
  -OEChem-01062216093D

 29 28  0     1  0  0  0  0  0999 V2000
   -3.7203   -3.0595    0.7774 H   0  0  0  0  0  0  0  0  0  0  0  0
   -3.5693   -2.0783    0.3183 C   0  0  0  0  0  0  0  0  0  0  0  0
   -4.3643   -1.4065    0.6513 H   0  0  0  0  0  0  0  0  0  0  0  0
   -3.6237   -2.1870   -0.7676 H   0  0  0  0  0  0  0  0  0  0  0  0
   -2.2177   -1.5170    0.7177 C   0  0  0  0  0  0  0  0  0  0  0  0
   -1.5932   -2.0533    1.6139 O   0  0  0  0  0  0  0  0  0  0  0  0
   -1.7887   -0.3347    0.1537 N   0  0  0  0  0  0  0  0  0  0  0  0
   -2.4468    0.1065   -0.4899 H   0  0  0  0  0  0  0  0  0  0  0  0
   -0.4516    0.2958    0.1775 C   0  0  1  0  0  0  0  0  0  0  0  0
   -0.1706    0.5094    1.2136 H   0  0  0  0  0  0  0  0  0  0  0  0
    0.6674   -0.5422   -0.5159 C   0  0  0  0  0  0  0  0  0  0  0  0
    0.3427   -0.7466   -1.5416 H   0  0  0  0  0  0  0  0  0  0  0  0
    1.5768    0.0598   -0.5842 H   0  0  0  0  0  0  0  0  0  0  0  0
    1.0712   -1.8801    0.1149 C   0  0  0  0  0  0  0  0  0  0  0  0
    0.2323   -2.5777    0.1227 H   0  0  0  0  0  0  0  0  0  0  0  0
    1.8512   -2.3423   -0.4977 H   0  0  0  0  0  0  0  0  0  0  0  0
    1.7269   -1.6431    1.8200 S   0  0  0  0  0  0  0  0  0  0  0  0
    3.3285   -0.7830    1.5603 C   0  0  0  0  0  0  0  0  0  0  0  0
    3.1679    0.2137    1.1416 H   0  0  0  0  0  0  0  0  0  0  0  0
    3.8521   -0.6778    2.5152 H   0  0  0  0  0  0  0  0  0  0  0  0
    3.9605   -1.3579    0.8771 H   0  0  0  0  0  0  0  0  0  0  0  0
   -0.5271    1.6297   -0.6124 C   0  0  0  0  0  0  0  0  0  0  0  0
   -1.5660    1.9524   -1.1818 O   0  0  0  0  0  0  0  0  0  0  0  0
    0.5826    2.4448   -0.7574 N   0  0  0  0  0  0  0  0  0  0  0  0
    1.4226    2.1871   -0.2479 H   0  0  0  0  0  0  0  0  0  0  0  0
    0.5655    3.7003   -1.4992 C   0  0  0  0  0  0  0  0  0  0  0  0
   -0.1547    4.3972   -1.0578 H   0  0  0  0  0  0  0  0  0  0  0  0
    1.5553    4.1663   -1.4774 H   0  0  0  0  0  0  0  0  0  0  0  0
    0.2903    3.5242   -2.5446 H   0  0  0  0  0  0  0  0  0  0  0  0
  1  2  1  0  0  0  0
  2  3  1  0  0  0  0
  2  4  1  0  0  0  0
  2  5  1  0  0  0  0
  5  6  2  0  0  0  0
  5  7  1  0  0  0  0
  7  8  1  0  0  0  0
  7  9  1  0  0  0  0
  9 10  1  0  0  0  0
  9 11  1  0  0  0  0
  9 22  1  0  0  0  0
 11 12  1  0  0  0  0
 11 13  1  0  0  0  0
 11 14  1  0  0  0  0
 14 15  1  0  0  0  0
 14 16  1  0  0  0  0
 14 17  1  0  0  0  0
 17 18  1  0  0  0  0
 18 19  1  0  0  0  0
 18 20  1  0  0  0  0
 18 21  1  0  0  0  0
 22 23  2  0  0  0  0
 22 24  1  0  0  0  0
 24 25  1  0  0  0  0
 24 26  1  0  0  0  0
 26 27  1  0  0  0  0
 26 28  1  0  0  0  0
 26 29  1  0  0  0  0
M  END
$$$$

  -OEChem-01062216093D

 29 28  0     1  0  0  0  0  0999 V2000
   -3.7743   -3.0081    0.7828 H   0  0  0  0  0  0  0  0  0  0  0  0
   -3.5907   -2.0369    0.3148 C   0  0  0  0  0  0  0  0  0  0  0  0
   -4.3531   -1.3316    0.6545 H   0  0  0  0  0  0  0  0  0  0  0  0
   -3.6648   -2.1497   -0.7693 H   0  0  0  0  0  0  0  0  0  0  0  0
   -2.2123   -1.5268    0.6900 C   0  0  0  0  0  0  0  0  0  0  0  0
   -1.5863   -2.0984    1.5629 O   0  0  0  0  0  0  0  0  0  0  0  0
   -1.7668   -0.3448    0.1376 N   0  0  0  0  0  0  0  0  0  0  0  0
   -2.4444    0.1449   -0.4482 H   0  0  0  0  0  0  0  0  0  0  0  0
   -0.4275    0.2824    0.1663 C   0  0  1  0  0  0  0  0  0  0  0  0
   -0.1504    0.4997    1.2029 H   0  0  0  0  0  0  0  0  0  0  0  0
    0.6967   -0.5633   -0.5136 C   0  0  0  0  0  0  0  0  0  0  0  0
    0.3826   -0.7697   -1.5422 H   0  0  0  0  0  0  0  0  0  0  0  0
    1.6109    0.0314   -0.5698 H   0  0  0  0  0  0  0  0  0  0  0  0
    1.0968   -1.8987    0.1246 C   0  0  0  0  0  0  0  0  0  0  0  0
    0.2609   -2.5993    0.1252 H   0  0  0  0  0  0  0  0  0  0  0  0
    1.8827   -2.3602   -0.4809 H   0  0  0  0  0  0  0  0  0  0  0  0
    1.7414   -1.6579    1.8335 S   0  0  0  0  0  0  0  0  0  0  0  0
    3.3450   -0.7983    1.5850 C   0  0  0  0  0  0  0  0  0  0  0  0
    3.1858    0.2019    1.1736 H   0  0  0  0  0  0  0  0  0  0  0  0
    3.8654   -0.7006    2.5424 H   0  0  0  0  0  0  0  0  0  0  0  0
    3.9787   -1.3687    0.8997 H   0  0  0  0  0  0  0  0  0  0  0  0
   -0.5179    1.6210   -0.6226 C   0  0  0  0  0  0  0  0  0  0  0  0
   -1.6135    2.0518   -0.9719 O   0  0  0  0  0  0  0  0  0  0  0  0
    0.6075    2.3093   -1.0457 N   0  0  0  0  0  0  0  0  0  0  0  0
    1.5102    1.9706   -0.7277 H   0  0  0  0  0  0  0  0  0  0  0  0
    0.5532    3.5481   -1.8139 C   0  0  0  0  0  0  0  0  0  0  0  0
    0.0321    4.3279   -1.2483 H   0  0  0  0  0  0  0  0  0  0  0  0
    1.5653    3.9001   -2.0363 H   0  0  0  0  0  0  0  0  0  0  0  0
    0.0277    3.3893   -2.7616 H   0  0  0  0  0  0  0  0  0  0  0  0
  1  2  1  0  0  0  0
  2  3  1  0  0  0  0
  2  4  1  0  0  0  0
  2  5  1  0  0  0  0
  5  6  2  0  0  0  0
  5  7  1  0  0  0  0
  7  8  1  0  0  0  0
  7  9  1  0  0  0  0
  9 10  1  0  0  0  0
  9 11  1  0  0  0  0
  9 22  1  0  0  0  0
 11 12  1  0  0  0  0
 11 13  1  0  0  0  0
 11 14  1  0  0  0  0
 14 15  1  0  0  0  0
 14 16  1  0  0  0  0
 14 17  1  0  0  0  0
 17 18  1  0  0  0  0
 18 19  1  0  0  0  0
 18 20  1  0  0  0  0
 18 21  1  0  0  0  0
 22 23  2  0  0  0  0
 22 24  1  0  0  0  0
 24 25  1  0  0  0  0
 24 26  1  0  0  0  0
 26 27  1  0  0  0  0
 26 28  1  0  0  0  0
 26 29  1  0  0  0  0
M  END
$$$$

  -OEChem-01062216093D

 29 28  0     1  0  0  0  0  0999 V2000
   -3.8251   -2.9583    0.7787 H   0  0  0  0  0  0  0  0  0  0  0  0
   -3.6170   -1.9919    0.3111 C   0  0  0  0  0  0  0  0  0  0  0  0
   -4.3443   -1.2609    0.6724 H   0  0  0  0  0  0  0  0  0  0  0  0
   -3.7212   -2.0956   -0.7714 H   0  0  0  0  0  0  0  0  0  0  0  0
   -2.2120   -1.5347    0.6554 C   0  0  0  0  0  0  0  0  0  0  0  0
   -1.5809   -2.1486    1.4947 O   0  0  0  0  0  0  0  0  0  0  0  0
   -1.7491   -0.3534    0.1154 N   0  0  0  0  0  0  0  0  0  0  0  0
   -2.4429    0.1850   -0.4044 H   0  0  0  0  0  0  0  0  0  0  0  0
   -0.4040    0.2622    0.1476 C   0  0  1  0  0  0  0  0  0  0  0  0
   -0.1331    0.4820    1.1853 H   0  0  0  0  0  0  0  0  0  0  0  0
    0.7313   -0.5850   -0.5131 C   0  0  0  0  0  0  0  0  0  0  0  0
    0.4346   -0.7953   -1.5459 H   0  0  0  0  0  0  0  0  0  0  0  0
    1.6445    0.0129   -0.5501 H   0  0  0  0  0  0  0  0  0  0  0  0
    1.1298   -1.9163    0.1346 C   0  0  0  0  0  0  0  0  0  0  0  0
    0.2995   -2.6229    0.1247 H   0  0  0  0  0  0  0  0  0  0  0  0
    1.9264   -2.3749   -0.4592 H   0  0  0  0  0  0  0  0  0  0  0  0
    1.7533   -1.6671    1.8500 S   0  0  0  0  0  0  0  0  0  0  0  0
    3.3560   -0.8011    1.6170 C   0  0  0  0  0  0  0  0  0  0  0  0
    3.1954    0.2007    1.2099 H   0  0  0  0  0  0  0  0  0  0  0  0
    3.8694   -0.7062    2.5785 H   0  0  0  0  0  0  0  0  0  0  0  0
    3.9967   -1.3651    0.9327 H   0  0  0  0  0  0  0  0  0  0  0  0
   -0.5058    1.6061   -0.6349 C   0  0  0  0  0  0  0  0  0  0  0  0
   -1.5971    2.1575   -0.7426 O   0  0  0  0  0  0  0  0  0  0  0  0
    0.5562    2.1626   -1.3305 N   0  0  0  0  0  0  0  0  0  0  0  0
    1.4598    1.7075   -1.2515 H   0  0  0  0  0  0  0  0  0  0  0  0
    0.4532    3.3860   -2.1185 C   0  0  0  0  0  0  0  0  0  0  0  0
    0.1628    4.2286   -1.4822 H   0  0  0  0  0  0  0  0  0  0  0  0
    1.4164    3.6189   -2.5824 H   0  0  0  0  0  0  0  0  0  0  0  0
   -0.2925    3.2701   -2.9121 H   0  0  0  0  0  0  0  0  0  0  0  0
  1  2  1  0  0  0  0
  2  3  1  0  0  0  0
  2  4  1  0  0  0  0
  2  5  1  0  0  0  0
  5  6  2  0  0  0  0
  5  7  1  0  0  0  0
  7  8  1  0  0  0  0
  7  9  1  0  0  0  0
  9 10  1  0  0  0  0
  9 11  1  0  0  0  0
  9 22  1  0  0  0  0
 11 12  1  0  0  0  0
 11 13  1  0  0  0  0
 11 14  1  0  0  0  0
 14 15  1  0  0  0  0
 14 16  1  0  0  0  0
 14 17  1  0  0  0  0
 17 18  1  0  0  0  0
 18 19  1  0  0  0  0
 18 20  1  0  0  0  0
 18 21  1  0  0  0  0
 22 23  2  0  0  0  0
 22 24  1  0  0  0  0
 24 25  1  0  0  0  0
 24 26  1  0  0  0  0
 26 27  1  0  0  0  0
 26 28  1  0  0  0  0
 26 29  1  0  0  0  0
M  END
$$$$

  -OEChem-01062216093D

 29 28  0     1  0  0  0  0  0999 V2000
   -3.8591   -2.9241    0.7904 H   0  0  0  0  0  0  0  0  0  0  0  0
   -3.6389   -1.9626    0.3179 C   0  0  0  0  0  0  0  0  0  0  0  0
   -4.3393   -1.2147    0.6975 H   0  0  0  0  0  0  0  0  0  0  0  0
   -3.7719   -2.0630   -0.7618 H   0  0  0  0  0  0  0  0  0  0  0  0
   -2.2151   -1.5409    0.6287 C   0  0  0  0  0  0  0  0  0  0  0  0
   -1.5757   -2.1841    1.4385 O   0  0  0  0  0  0  0  0  0  0  0  0
   -1.7435   -0.3611    0.0922 N   0  0  0  0  0  0  0  0  0  0  0  0
   -2.4483    0.2059   -0.3786 H   0  0  0  0  0  0  0  0  0  0  0  0
   -0.3937    0.2441    0.1236 C   0  0  1  0  0  0  0  0  0  0  0  0
   -0.1287    0.4678    1.1622 H   0  0  0  0  0  0  0  0  0  0  0  0
    0.7530   -0.6006   -0.5189 C   0  0  0  0  0  0  0  0  0  0  0  0
    0.4677   -0.8232   -1.5524 H   0  0  0  0  0  0  0  0  0  0  0  0
    1.6596    0.0090   -0.5496 H   0  0  0  0  0  0  0  0  0  0  0  0
    1.1555   -1.9255    0.1391 C   0  0  0  0  0  0  0  0  0  0  0  0
    0.3325   -2.6400    0.1228 H   0  0  0  0  0  0  0  0  0  0  0  0
    1.9623   -2.3794   -0.4440 H   0  0  0  0  0  0  0  0  0  0  0  0
    1.7610   -1.6628    1.8586 S   0  0  0  0  0  0  0  0  0  0  0  0
    3.3588   -0.7856    1.6350 C   0  0  0  0  0  0  0  0  0  0  0  0
    3.1948    0.2113    1.2170 H   0  0  0  0  0  0  0  0  0  0  0  0
    3.8610   -0.6777    2.6010 H   0  0  0  0  0  0  0  0  0  0  0  0
    4.0112   -1.3504    0.9628 H   0  0  0  0  0  0  0  0  0  0  0  0
   -0.4969    1.5885   -0.6550 C   0  0  0  0  0  0  0  0  0  0  0  0
   -1.5167    2.2601   -0.5425 O   0  0  0  0  0  0  0  0  0  0  0  0
    0.4357    2.0055   -1.5926 N   0  0  0  0  0  0  0  0  0  0  0  0
    1.2620    1.4305   -1.7218 H   0  0  0  0  0  0  0  0  0  0  0  0
    0.2975    3.2239   -2.3830 C   0  0  0  0  0  0  0  0  0  0  0  0
    0.2534    4.1017   -1.7295 H   0  0  0  0  0  0  0  0  0  0  0  0
    1.1529    3.3369   -3.0560 H   0  0  0  0  0  0  0  0  0  0  0  0
   -0.6149    3.1884   -2.9878 H   0  0  0  0  0  0  0  0  0  0  0  0
  1  2  1  0  0  0  0
  2  3  1  0  0  0  0
  2  4  1  0  0  0  0
  2  5  1  0  0  0  0
  5  6  2  0  0  0  0
  5  7  1  0  0  0  0
  7  8  1  0  0  0  0
  7  9  1  0  0  0  0
  9 10  1  0  0  0  0
  9 11  1  0  0  0  0
  9 22  1  0  0  0  0
 11 12  1  0  0  0  0
 11 13  1  0  0  0  0
 11 14  1  0  0  0  0
 14 15  1  0  0  0  0
 14 16  1  0  0  0  0
 14 17  1  0  0  0  0
 17 18  1  0  0  0  0
 18 19  1  0  0  0  0
 18 20  1  0  0  0  0
 18 21  1  0  0  0  0
 22 23  2  0  0  0  0
 22 24  1  0  0  0  0
 24 25  1  0  0  0  0
 24 26  1  0  0  0  0
 26 27  1  0  0  0  0
 26 28  1  0  0  0  0
 26 29  1  0  0  0  0
M  END
$$$$

  -OEChem-01062216093D

 29 28  0     1  0  0  0  0  0999 V2000
   -3.8814   -2.9079    0.8104 H   0  0  0  0  0  0  0  0  0  0  0  0
   -3.6561   -1.9521    0.3288 C   0  0  0  0  0  0  0  0  0  0  0  0
   -4.3402   -1.1932    0.7164 H   0  0  0  0  0  0  0  0  0  0  0  0
   -3.8096   -2.0566   -0.7477 H   0  0  0  0  0  0  0  0  0  0  0  0
   -2.2212   -1.5483    0.6126 C   0  0  0  0  0  0  0  0  0  0  0  0
   -1.5723   -2.2079    1.4009 O   0  0  0  0  0  0  0  0  0  0  0  0
   -1.7488   -0.3689    0.0744 N   0  0  0  0  0  0  0  0  0  0  0  0
   -2.4608    0.2078   -0.3709 H   0  0  0  0  0  0  0  0  0  0  0  0
   -0.3960    0.2309    0.1017 C   0  0  1  0  0  0  0  0  0  0  0  0
   -0.1346    0.4574    1.1407 H   0  0  0  0  0  0  0  0  0  0  0  0
    0.7607   -0.6092   -0.5278 C   0  0  0  0  0  0  0  0  0  0  0  0
    0.4789   -0.8492   -1.5580 H   0  0  0  0  0  0  0  0  0  0  0  0
    1.6580    0.0152   -0.5662 H   0  0  0  0  0  0  0  0  0  0  0  0
    1.1720   -1.9271    0.1392 C   0  0  0  0  0  0  0  0  0  0  0  0
    0.3563   -2.6498    0.1222 H   0  0  0  0  0  0  0  0  0  0  0  0
    1.9866   -2.3760   -0.4372 H   0  0  0  0  0  0  0  0  0  0  0  0
    1.7664   -1.6496    1.8600 S   0  0  0  0  0  0  0  0  0  0  0  0
    3.3570   -0.7589    1.6374 C   0  0  0  0  0  0  0  0  0  0  0  0
    3.1849    0.2337    1.2124 H   0  0  0  0  0  0  0  0  0  0  0  0
    3.8555   -0.6400    2.6042 H   0  0  0  0  0  0  0  0  0  0  0  0
    4.0172   -1.3217    0.9711 H   0  0  0  0  0  0  0  0  0  0  0  0
   -0.4928    1.5744   -0.6733 C   0  0  0  0  0  0  0  0  0  0  0  0
   -1.3818    2.3611   -0.3727 O   0  0  0  0  0  0  0  0  0  0  0  0
    0.2509    1.8573   -1.8088 N   0  0  0  0  0  0  0  0  0  0  0  0
    0.9477    1.1771   -2.0951 H   0  0  0  0  0  0  0  0  0  0  0  0
    0.0915    3.0751   -2.5961 C   0  0  0  0  0  0  0  0  0  0  0  0
    0.3022    3.9578   -1.9830 H   0  0  0  0  0  0  0  0  0  0  0  0
    0.7829    3.0709   -3.4444 H   0  0  0  0  0  0  0  0  0  0  0  0
   -0.9299    3.1512   -2.9840 H   0  0  0  0  0  0  0  0  0  0  0  0
  1  2  1  0  0  0  0
  2  3  1  0  0  0  0
  2  4  1  0  0  0  0
  2  5  1  0  0  0  0
  5  6  2  0  0  0  0
  5  7  1  0  0  0  0
  7  8  1  0  0  0  0
  7  9  1  0  0  0  0
  9 10  1  0  0  0  0
  9 11  1  0  0  0  0
  9 22  1  0  0  0  0
 11 12  1  0  0  0  0
 11 13  1  0  0  0  0
 11 14  1  0  0  0  0
 14 15  1  0  0  0  0
 14 16  1  0  0  0  0
 14 17  1  0  0  0  0
 17 18  1  0  0  0  0
 18 19  1  0  0  0  0
 18 20  1  0  0  0  0
 18 21  1  0  0  0  0
 22 23  2  0  0  0  0
 22 24  1  0  0  0  0
 24 25  1  0  0  0  0
 24 26  1  0  0  0  0
 26 27  1  0  0  0  0
 26 28  1  0  0  0  0
 26 29  1  0  0  0  0
M  END
$$$$

  -OEChem-01062216093D

 29 28  0     1  0  0  0  0  0999 V2000
   -3.8835   -2.9147    0.8316 H   0  0  0  0  0  0  0  0  0  0  0  0
   -3.6630   -1.9623    0.3412 C   0  0  0  0  0  0  0  0  0  0  0  0
   -4.3471   -1.2020    0.7263 H   0  0  0  0  0  0  0  0  0  0  0  0
   -3.8215   -2.0765   -0.7337 H   0  0  0  0  0  0  0  0  0  0  0  0
   -2.2277   -1.5528    0.6153 C   0  0  0  0  0  0  0  0  0  0  0  0
   -1.5722   -2.2100    1.3995 O   0  0  0  0  0  0  0  0  0  0  0  0
   -1.7618   -0.3739    0.0696 N   0  0  0  0  0  0  0  0  0  0  0  0
   -2.4773    0.1899   -0.3842 H   0  0  0  0  0  0  0  0  0  0  0  0
   -0.4081    0.2252    0.0870 C   0  0  1  0  0  0  0  0  0  0  0  0
   -0.1448    0.4543    1.1252 H   0  0  0  0  0  0  0  0  0  0  0  0
    0.7520   -0.6122   -0.5386 C   0  0  0  0  0  0  0  0  0  0  0  0
    0.4676   -0.8692   -1.5636 H   0  0  0  0  0  0  0  0  0  0  0  0
    1.6419    0.0225   -0.5923 H   0  0  0  0  0  0  0  0  0  0  0  0
    1.1719   -1.9233    0.1364 C   0  0  0  0  0  0  0  0  0  0  0  0
    0.3600   -2.6502    0.1274 H   0  0  0  0  0  0  0  0  0  0  0  0
    1.9875   -2.3726   -0.4384 H   0  0  0  0  0  0  0  0  0  0  0  0
    1.7673   -1.6291    1.8540 S   0  0  0  0  0  0  0  0  0  0  0  0
    3.3519   -0.7305    1.6194 C   0  0  0  0  0  0  0  0  0  0  0  0
    3.1740    0.2533    1.1768 H   0  0  0  0  0  0  0  0  0  0  0  0
    3.8460   -0.5911    2.5855 H   0  0  0  0  0  0  0  0  0  0  0  0
    4.0183   -1.2998    0.9650 H   0  0  0  0  0  0  0  0  0  0  0  0
   -0.4943    1.5662   -0.6867 C   0  0  0  0  0  0  0  0  0  0  0  0
   -1.1811    2.4673   -0.2256 O   0  0  0  0  0  0  0  0  0  0  0  0
    0.0068    1.7322   -1.9685 N   0  0  0  0  0  0  0  0  0  0  0  0
    0.5248    0.9591   -2.3743 H   0  0  0  0  0  0  0  0  0  0  0  0
   -0.1549    2.9567   -2.7448 C   0  0  0  0  0  0  0  0  0  0  0  0
    0.3005    3.8047   -2.2224 H   0  0  0  0  0  0  0  0  0  0  0  0
    0.3285    2.8529   -3.7210 H   0  0  0  0  0  0  0  0  0  0  0  0
   -1.2165    3.1720   -2.9062 H   0  0  0  0  0  0  0  0  0  0  0  0
  1  2  1  0  0  0  0
  2  3  1  0  0  0  0
  2  4  1  0  0  0  0
  2  5  1  0  0  0  0
  5  6  2  0  0  0  0
  5  7  1  0  0  0  0
  7  8  1  0  0  0  0
  7  9  1  0  0  0  0
  9 10  1  0  0  0  0
  9 11  1  0  0  0  0
  9 22  1  0  0  0  0
 11 12  1  0  0  0  0
 11 13  1  0  0  0  0
 11 14  1  0  0  0  0
 14 15  1  0  0  0  0
 14 16  1  0  0  0  0
 14 17  1  0  0  0  0
 17 18  1  0  0  0  0
 18 19  1  0  0  0  0
 18 20  1  0  0  0  0
 18 21  1  0  0  0  0
 22 23  2  0  0  0  0
 22 24  1  0  0  0  0
 24 25  1  0  0  0  0
 24 26  1  0  0  0  0
 26 27  1  0  0  0  0
 26 28  1  0  0  0  0
 26 29  1  0  0  0  0
M  END
$$$$

  -OEChem-01062216093D

 29 28  0     1  0  0  0  0  0999 V2000
   -3.8633   -2.9499    0.8511 H   0  0  0  0  0  0  0  0  0  0  0  0
   -3.6599   -1.9956    0.3567 C   0  0  0  0  0  0  0  0  0  0  0  0
   -4.3612   -1.2476    0.7346 H   0  0  0  0  0  0  0  0  0  0  0  0
   -3.8107   -2.1187   -0.7182 H   0  0  0  0  0  0  0  0  0  0  0  0
   -2.2344   -1.5557    0.6352 C   0  0  0  0  0  0  0  0  0  0  0  0
   -1.5699   -2.1926    1.4286 O   0  0  0  0  0  0  0  0  0  0  0  0
   -1.7851   -0.3760    0.0764 N   0  0  0  0  0  0  0  0  0  0  0  0
   -2.5023    0.1581   -0.4078 H   0  0  0  0  0  0  0  0  0  0  0  0
   -0.4329    0.2281    0.0833 C   0  0  1  0  0  0  0  0  0  0  0  0
   -0.1651    0.4580    1.1205 H   0  0  0  0  0  0  0  0  0  0  0  0
    0.7278   -0.6017   -0.5488 C   0  0  0  0  0  0  0  0  0  0  0  0
    0.4408   -0.8639   -1.5714 H   0  0  0  0  0  0  0  0  0  0  0  0
    1.6112    0.0415   -0.6115 H   0  0  0  0  0  0  0  0  0  0  0  0
    1.1585   -1.9096    0.1255 C   0  0  0  0  0  0  0  0  0  0  0  0
    0.3490   -2.6397    0.1230 H   0  0  0  0  0  0  0  0  0  0  0  0
    1.9730   -2.3550   -0.4535 H   0  0  0  0  0  0  0  0  0  0  0  0
    1.7621   -1.6116    1.8396 S   0  0  0  0  0  0  0  0  0  0  0  0
    3.3405   -0.7050    1.5935 C   0  0  0  0  0  0  0  0  0  0  0  0
    3.1534    0.2792    1.1554 H   0  0  0  0  0  0  0  0  0  0  0  0
    3.8433   -0.5658    2.5551 H   0  0  0  0  0  0  0  0  0  0  0  0
    4.0031   -1.2695    0.9310 H   0  0  0  0  0  0  0  0  0  0  0  0
   -0.5099    1.5649   -0.6934 C   0  0  0  0  0  0  0  0  0  0  0  0
   -0.9138    2.5666   -0.1214 O   0  0  0  0  0  0  0  0  0  0  0  0
   -0.2896    1.6394   -2.0595 N   0  0  0  0  0  0  0  0  0  0  0  0
    0.0061    0.7923   -2.5342 H   0  0  0  0  0  0  0  0  0  0  0  0
   -0.4201    2.8714   -2.8295 C   0  0  0  0  0  0  0  0  0  0  0  0
    0.2710    3.6331   -2.4532 H   0  0  0  0  0  0  0  0  0  0  0  0
   -0.1893    2.6866   -3.8831 H   0  0  0  0  0  0  0  0  0  0  0  0
   -1.4419    3.2597   -2.7629 H   0  0  0  0  0  0  0  0  0  0  0  0
  1  2  1  0  0  0  0
  2  3  1  0  0  0  0
  2  4  1  0  0  0  0
  2  5  1  0  0  0  0
  5  6  2  0  0  0  0
  5  7  1  0  0  0  0
  7  8  1  0  0  0  0
  7  9  1  0  0  0  0
  9 10  1  0  0  0  0
  9 11  1  0  0  0  0
  9 22  1  0  0  0  0
 11 12  1  0  0  0  0
 11 13  1  0  0  0  0
 11 14  1  0  0  0  0
 14 15  1  0  0  0  0
 14 16  1  0  0  0  0
 14 17  1  0  0  0  0
 17 18  1  0  0  0  0
 18 19  1  0  0  0  0
 18 20  1  0  0  0  0
 18 21  1  0  0  0  0
 22 23  2  0  0  0  0
 22 24  1  0  0  0  0
 24 25  1  0  0  0  0
 24 26  1  0  0  0  0
 26 27  1  0  0  0  0
 26 28  1  0  0  0  0
 26 29  1  0  0  0  0
M  END
$$$$

  -OEChem-01062216093D

 29 28  0     1  0  0  0  0  0999 V2000
   -3.8492   -2.9782    0.8767 H   0  0  0  0  0  0  0  0  0  0  0  0
   -3.6581   -2.0251    0.3750 C   0  0  0  0  0  0  0  0  0  0  0  0
   -4.3699   -1.2839    0.7467 H   0  0  0  0  0  0  0  0  0  0  0  0
   -3.8069   -2.1583   -0.6991 H   0  0  0  0  0  0  0  0  0  0  0  0
   -2.2391   -1.5640    0.6513 C   0  0  0  0  0  0  0  0  0  0  0  0
   -1.5641   -2.1889    1.4449 O   0  0  0  0  0  0  0  0  0  0  0  0
   -1.8062   -0.3810    0.0866 N   0  0  0  0  0  0  0  0  0  0  0  0
   -2.5268    0.1341   -0.4121 H   0  0  0  0  0  0  0  0  0  0  0  0
   -0.4583    0.2328    0.0916 C   0  0  1  0  0  0  0  0  0  0  0  0
   -0.1868    0.4585    1.1290 H   0  0  0  0  0  0  0  0  0  0  0  0
    0.7050   -0.5780   -0.5572 C   0  0  0  0  0  0  0  0  0  0  0  0
    0.4185   -0.8265   -1.5833 H   0  0  0  0  0  0  0  0  0  0  0  0
    1.5824    0.0738   -0.6151 H   0  0  0  0  0  0  0  0  0  0  0  0
    1.1480   -1.8898    0.1013 C   0  0  0  0  0  0  0  0  0  0  0  0
    0.3415   -2.6235    0.0961 H   0  0  0  0  0  0  0  0  0  0  0  0
    1.9621   -2.3242   -0.4866 H   0  0  0  0  0  0  0  0  0  0  0  0
    1.7574   -1.6083    1.8159 S   0  0  0  0  0  0  0  0  0  0  0  0
    3.3280   -0.6884    1.5721 C   0  0  0  0  0  0  0  0  0  0  0  0
    3.1311    0.3010    1.1500 H   0  0  0  0  0  0  0  0  0  0  0  0
    3.8367   -0.5603    2.5323 H   0  0  0  0  0  0  0  0  0  0  0  0
    3.9894   -1.2384    0.8964 H   0  0  0  0  0  0  0  0  0  0  0  0
   -0.5377    1.5659   -0.6860 C   0  0  0  0  0  0  0  0  0  0  0  0
   -0.6177    2.6237   -0.0797 O   0  0  0  0  0  0  0  0  0  0  0  0
   -0.6197    1.5872   -2.0686 N   0  0  0  0  0  0  0  0  0  0  0  0
   -0.5494    0.6989   -2.5556 H   0  0  0  0  0  0  0  0  0  0  0  0
   -0.7087    2.8170   -2.8480 C   0  0  0  0  0  0  0  0  0  0  0  0
    0.1664    3.4499   -2.6661 H   0  0  0  0  0  0  0  0  0  0  0  0
   -0.7517    2.5861   -3.9168 H   0  0  0  0  0  0  0  0  0  0  0  0
   -1.6103    3.3778   -2.5795 H   0  0  0  0  0  0  0  0  0  0  0  0
  1  2  1  0  0  0  0
  2  3  1  0  0  0  0
  2  4  1  0  0  0  0
  2  5  1  0  0  0  0
  5  6  2  0  0  0  0
  5  7  1  0  0  0  0
  7  8  1  0  0  0  0
  7  9  1  0  0  0  0
  9 10  1  0  0  0  0
  9 11  1  0  0  0  0
  9 22  1  0  0  0  0
 11 12  1  0  0  0  0
 11 13  1  0  0  0  0
 11 14  1  0  0  0  0
 14 15  1  0  0  0  0
 14 16  1  0  0  0  0
 14 17  1  0  0  0  0
 17 18  1  0  0  0  0
 18 19  1  0  0  0  0
 18 20  1  0  0  0  0
 18 21  1  0  0  0  0
 22 23  2  0  0  0  0
 22 24  1  0  0  0  0
 24 25  1  0  0  0  0
 24 26  1  0  0  0  0
 26 27  1  0  0  0  0
 26 28  1  0  0  0  0
 26 29  1  0  0  0  0
M  END
$$$$

  -OEChem-01062216093D

 29 28  0     1  0  0  0  0  0999 V2000
   -3.8271   -3.0170    0.8917 H   0  0  0  0  0  0  0  0  0  0  0  0
   -3.6536   -2.0594    0.3925 C   0  0  0  0  0  0  0  0  0  0  0  0
   -4.3801   -1.3333    0.7649 H   0  0  0  0  0  0  0  0  0  0  0  0
   -3.7979   -2.1938   -0.6818 H   0  0  0  0  0  0  0  0  0  0  0  0
   -2.2443   -1.5717    0.6718 C   0  0  0  0  0  0  0  0  0  0  0  0
   -1.5606   -2.1813    1.4696 O   0  0  0  0  0  0  0  0  0  0  0  0
   -1.8281   -0.3838    0.1036 N   0  0  0  0  0  0  0  0  0  0  0  0
   -2.5519    0.1157   -0.4058 H   0  0  0  0  0  0  0  0  0  0  0  0
   -0.4850    0.2431    0.1120 C   0  0  1  0  0  0  0  0  0  0  0  0
   -0.2097    0.4632    1.1496 H   0  0  0  0  0  0  0  0  0  0  0  0
    0.6764   -0.5492   -0.5588 C   0  0  0  0  0  0  0  0  0  0  0  0
    0.3867   -0.7763   -1.5891 H   0  0  0  0  0  0  0  0  0  0  0  0
    1.5506    0.1078   -0.6090 H   0  0  0  0  0  0  0  0  0  0  0  0
    1.1294   -1.8694    0.0759 C   0  0  0  0  0  0  0  0  0  0  0  0
    0.3238   -2.6048    0.0671 H   0  0  0  0  0  0  0  0  0  0  0  0
    1.9402   -2.2927   -0.5245 H   0  0  0  0  0  0  0  0  0  0  0  0
    1.7488   -1.6101    1.7907 S   0  0  0  0  0  0  0  0  0  0  0  0
    3.3132   -0.6791    1.5480 C   0  0  0  0  0  0  0  0  0  0  0  0
    3.1072    0.3188    1.1507 H   0  0  0  0  0  0  0  0  0  0  0  0
    3.8341   -0.5703    2.5039 H   0  0  0  0  0  0  0  0  0  0  0  0
    3.9679   -1.2108    0.8517 H   0  0  0  0  0  0  0  0  0  0  0  0
   -0.5623    1.5743   -0.6649 C   0  0  0  0  0  0  0  0  0  0  0  0
   -0.3214    2.6335   -0.1057 O   0  0  0  0  0  0  0  0  0  0  0  0
   -0.9412    1.5885   -1.9969 N   0  0  0  0  0  0  0  0  0  0  0  0
   -1.0590    0.6906   -2.4563 H   0  0  0  0  0  0  0  0  0  0  0  0
   -0.9959    2.8057   -2.7985 C   0  0  0  0  0  0  0  0  0  0  0  0
   -0.0120    3.2854   -2.8355 H   0  0  0  0  0  0  0  0  0  0  0  0
   -1.3055    2.5718   -3.8217 H   0  0  0  0  0  0  0  0  0  0  0  0
   -1.7161    3.5130   -2.3733 H   0  0  0  0  0  0  0  0  0  0  0  0
  1  2  1  0  0  0  0
  2  3  1  0  0  0  0
  2  4  1  0  0  0  0
  2  5  1  0  0  0  0
  5  6  2  0  0  0  0
  5  7  1  0  0  0  0
  7  8  1  0  0  0  0
  7  9  1  0  0  0  0
  9 10  1  0  0  0  0
  9 11  1  0  0  0  0
  9 22  1  0  0  0  0
 11 12  1  0  0  0  0
 11 13  1  0  0  0  0
 11 14  1  0  0  0  0
 14 15  1  0  0  0  0
 14 16  1  0  0  0  0
 14 17  1  0  0  0  0
 17 18  1  0  0  0  0
 18 19  1  0  0  0  0
 18 20  1  0  0  0  0
 18 21  1  0  0  0  0
 22 23  2  0  0  0  0
 22 24  1  0  0  0  0
 24 25  1  0  0  0  0
 24 26  1  0  0  0  0
 26 27  1  0  0  0  0
 26 28  1  0  0  0  0
 26 29  1  0  0  0  0
M  END
$$$$

  -OEChem-01062216093D

 29 28  0     1  0  0  0  0  0999 V2000
   -3.8117   -3.0496    0.9111 H   0  0  0  0  0  0  0  0  0  0  0  0
   -3.6518   -2.0897    0.4112 C   0  0  0  0  0  0  0  0  0  0  0  0
   -4.3859   -1.3724    0.7861 H   0  0  0  0  0  0  0  0  0  0  0  0
   -3.7978   -2.2258   -0.6629 H   0  0  0  0  0  0  0  0  0  0  0  0
   -2.2471   -1.5860    0.6863 C   0  0  0  0  0  0  0  0  0  0  0  0
   -1.5548   -2.1866    1.4832 O   0  0  0  0  0  0  0  0  0  0  0  0
   -1.8452   -0.3934    0.1173 N   0  0  0  0  0  0  0  0  0  0  0  0
   -2.5807    0.1090   -0.3714 H   0  0  0  0  0  0  0  0  0  0  0  0
   -0.5081    0.2490    0.1317 C   0  0  1  0  0  0  0  0  0  0  0  0
   -0.2314    0.4637    1.1701 H   0  0  0  0  0  0  0  0  0  0  0  0
    0.6521   -0.5278   -0.5565 C   0  0  0  0  0  0  0  0  0  0  0  0
    0.3565   -0.7365   -1.5893 H   0  0  0  0  0  0  0  0  0  0  0  0
    1.5242    0.1329   -0.6011 H   0  0  0  0  0  0  0  0  0  0  0  0
    1.1153   -1.8545    0.0565 C   0  0  0  0  0  0  0  0  0  0  0  0
    0.3125   -2.5929    0.0424 H   0  0  0  0  0  0  0  0  0  0  0  0
    1.9236   -2.2659   -0.5553 H   0  0  0  0  0  0  0  0  0  0  0  0
    1.7442   -1.6168    1.7710 S   0  0  0  0  0  0  0  0  0  0  0  0
    3.3029   -0.6747    1.5330 C   0  0  0  0  0  0  0  0  0  0  0  0
    3.0905    0.3253    1.1443 H   0  0  0  0  0  0  0  0  0  0  0  0
    3.8247   -0.5707    2.4889 H   0  0  0  0  0  0  0  0  0  0  0  0
    3.9594   -1.1967    0.8310 H   0  0  0  0  0  0  0  0  0  0  0  0
   -0.5812    1.5810   -0.6443 C   0  0  0  0  0  0  0  0  0  0  0  0
   -0.0680    2.5927   -0.1902 O   0  0  0  0  0  0  0  0  0  0  0  0
   -1.2324    1.6437   -1.8656 N   0  0  0  0  0  0  0  0  0  0  0  0
   -1.5078    0.7613   -2.2859 H   0  0  0  0  0  0  0  0  0  0  0  0
   -1.2699    2.8523   -2.6815 C   0  0  0  0  0  0  0  0  0  0  0  0
   -0.2553    3.1714   -2.9429 H   0  0  0  0  0  0  0  0  0  0  0  0
   -1.8242    2.6682   -3.6068 H   0  0  0  0  0  0  0  0  0  0  0  0
   -1.7651    3.6651   -2.1397 H   0  0  0  0  0  0  0  0  0  0  0  0
  1  2  1  0  0  0  0
  2  3  1  0  0  0  0
  2  4  1  0  0  0  0
  2  5  1  0  0  0  0
  5  6  2  0  0  0  0
  5  7  1  0  0  0  0
  7  8  1  0  0  0  0
  7  9  1  0  0  0  0
  9 10  1  0  0  0  0
  9 11  1  0  0  0  0
  9 22  1  0  0  0  0
 11 12  1  0  0  0  0
 11 13  1  0  0  0  0
 11 14  1  0  0  0  0
 14 15  1  0  0  0  0
 14 16  1  0  0  0  0
 14 17  1  0  0  0  0
 17 18  1  0  0  0  0
 18 19  1  0  0  0  0
 18 20  1  0  0  0  0
 18 21  1  0  0  0  0
 22 23  2  0  0  0  0
 22 24  1  0  0  0  0
 24 25  1  0  0  0  0
 24 26  1  0  0  0  0
 26 27  1  0  0  0  0
 26 28  1  0  0  0  0
 26 29  1  0  0  0  0
M  END
$$$$

  -OEChem-01062216093D

 29 28  0     1  0  0  0  0  0999 V2000
   -3.8072   -3.0721    0.9398 H   0  0  0  0  0  0  0  0  0  0  0  0
   -3.6535   -2.1157    0.4315 C   0  0  0  0  0  0  0  0  0  0  0  0
   -4.3856   -1.3973    0.8081 H   0  0  0  0  0  0  0  0  0  0  0  0
   -3.8094   -2.2601   -0.6400 H   0  0  0  0  0  0  0  0  0  0  0  0
   -2.2467   -1.6088    0.6905 C   0  0  0  0  0  0  0  0  0  0  0  0
   -1.5468   -2.2066    1.4826 O   0  0  0  0  0  0  0  0  0  0  0  0
   -1.8558   -0.4117    0.1227 N   0  0  0  0  0  0  0  0  0  0  0  0
   -2.6079    0.1065   -0.3207 H   0  0  0  0  0  0  0  0  0  0  0  0
   -0.5257    0.2476    0.1452 C   0  0  1  0  0  0  0  0  0  0  0  0
   -0.2507    0.4584    1.1847 H   0  0  0  0  0  0  0  0  0  0  0  0
    0.6368   -0.5199   -0.5516 C   0  0  0  0  0  0  0  0  0  0  0  0
    0.3371   -0.7197   -1.5852 H   0  0  0  0  0  0  0  0  0  0  0  0
    1.5072    0.1427   -0.5948 H   0  0  0  0  0  0  0  0  0  0  0  0
    1.1099   -1.8490    0.0478 C   0  0  0  0  0  0  0  0  0  0  0  0
    0.3124   -2.5929    0.0291 H   0  0  0  0  0  0  0  0  0  0  0  0
    1.9195   -2.2486   -0.5703 H   0  0  0  0  0  0  0  0  0  0  0  0
    1.7433   -1.6204    1.7618 S   0  0  0  0  0  0  0  0  0  0  0  0
    3.2944   -0.6666    1.5223 C   0  0  0  0  0  0  0  0  0  0  0  0
    3.0745    0.3316    1.1326 H   0  0  0  0  0  0  0  0  0  0  0  0
    3.8155   -0.5583    2.4780 H   0  0  0  0  0  0  0  0  0  0  0  0
    3.9544   -1.1845    0.8204 H   0  0  0  0  0  0  0  0  0  0  0  0
   -0.5913    1.5827   -0.6298 C   0  0  0  0  0  0  0  0  0  0  0  0
    0.1192    2.5220   -0.3020 O   0  0  0  0  0  0  0  0  0  0  0  0
   -1.4693    1.7421   -1.6905 N   0  0  0  0  0  0  0  0  0  0  0  0
   -1.8791    0.8952   -2.0710 H   0  0  0  0  0  0  0  0  0  0  0  0
   -1.5106    2.9558   -2.4993 C   0  0  0  0  0  0  0  0  0  0  0  0
   -0.5461    3.1232   -2.9904 H   0  0  0  0  0  0  0  0  0  0  0  0
   -2.2828    2.8718   -3.2701 H   0  0  0  0  0  0  0  0  0  0  0  0
   -1.7423    3.8253   -1.8747 H   0  0  0  0  0  0  0  0  0  0  0  0
  1  2  1  0  0  0  0
  2  3  1  0  0  0  0
  2  4  1  0  0  0  0
  2  5  1  0  0  0  0
  5  6  2  0  0  0  0
  5  7  1  0  0  0  0
  7  8  1  0  0  0  0
  7  9  1  0  0  0  0
  9 10  1  0  0  0  0
  9 11  1  0  0  0  0
  9 22  1  0  0  0  0
 11 12  1  0  0  0  0
 11 13  1  0  0  0  0
 11 14  1  0  0  0  0
 14 15  1  0  0  0  0
 14 16  1  0  0  0  0
 14 17  1  0  0  0  0
 17 18  1  0  0  0  0
 18 19  1  0  0  0  0
 18 20  1  0  0  0  0
 18 21  1  0  0  0  0
 22 23  2  0  0  0  0
 22 24  1  0  0  0  0
 24 25  1  0  0  0  0
 24 26  1  0  0  0  0
 26 27  1  0  0  0  0
 26 28  1  0  0  0  0
 26 29  1  0  0  0  0
M  END
$$$$

  -OEChem-01062216093D

 29 28  0     1  0  0  0  0  0999 V2000
   -3.7876   -3.0995    0.9618 H   0  0  0  0  0  0  0  0  0  0  0  0
   -3.6370   -2.1515    0.4367 C   0  0  0  0  0  0  0  0  0  0  0  0
   -4.3834   -1.4346    0.7871 H   0  0  0  0  0  0  0  0  0  0  0  0
   -3.7737   -2.3196   -0.6341 H   0  0  0  0  0  0  0  0  0  0  0  0
   -2.2408   -1.6219    0.7065 C   0  0  0  0  0  0  0  0  0  0  0  0
   -1.5459   -2.1949    1.5210 O   0  0  0  0  0  0  0  0  0  0  0  0
   -1.8615   -0.4252    0.1299 N   0  0  0  0  0  0  0  0  0  0  0  0
   -2.6209    0.0812   -0.3114 H   0  0  0  0  0  0  0  0  0  0  0  0
   -0.5357    0.2457    0.1466 C   0  0  1  0  0  0  0  0  0  0  0  0
   -0.2602    0.4612    1.1848 H   0  0  0  0  0  0  0  0  0  0  0  0
    0.6226   -0.5354   -0.5465 C   0  0  0  0  0  0  0  0  0  0  0  0
    0.3167   -0.7448   -1.5761 H   0  0  0  0  0  0  0  0  0  0  0  0
    1.4977    0.1199   -0.6024 H   0  0  0  0  0  0  0  0  0  0  0  0
    1.0977   -1.8582    0.0653 C   0  0  0  0  0  0  0  0  0  0  0  0
    0.3009   -2.6025    0.0600 H   0  0  0  0  0  0  0  0  0  0  0  0
    1.9038   -2.2658   -0.5520 H   0  0  0  0  0  0  0  0  0  0  0  0
    1.7412   -1.6071    1.7728 S   0  0  0  0  0  0  0  0  0  0  0  0
    3.2909   -0.6574    1.5081 C   0  0  0  0  0  0  0  0  0  0  0  0
    3.0673    0.3368    1.1106 H   0  0  0  0  0  0  0  0  0  0  0  0
    3.8218   -0.5390    2.4573 H   0  0  0  0  0  0  0  0  0  0  0  0
    3.9432   -1.1826    0.8044 H   0  0  0  0  0  0  0  0  0  0  0  0
   -0.5901    1.5826   -0.6341 C   0  0  0  0  0  0  0  0  0  0  0  0
    0.2707    2.4328   -0.4532 O   0  0  0  0  0  0  0  0  0  0  0  0
   -1.6414    1.8788   -1.4892 N   0  0  0  0  0  0  0  0  0  0  0  0
   -2.2025    1.0974   -1.8079 H   0  0  0  0  0  0  0  0  0  0  0  0
   -1.7056    3.1230   -2.2491 C   0  0  0  0  0  0  0  0  0  0  0  0
   -0.8640    3.1910   -2.9464 H   0  0  0  0  0  0  0  0  0  0  0  0
   -2.6368    3.1698   -2.8220 H   0  0  0  0  0  0  0  0  0  0  0  0
   -1.6748    3.9862   -1.5756 H   0  0  0  0  0  0  0  0  0  0  0  0
  1  2  1  0  0  0  0
  2  3  1  0  0  0  0
  2  4  1  0  0  0  0
  2  5  1  0  0  0  0
  5  6  2  0  0  0  0
  5  7  1  0  0  0  0
  7  8  1  0  0  0  0
  7  9  1  0  0  0  0
  9 10  1  0  0  0  0
  9 11  1  0  0  0  0
  9 22  1  0  0  0  0
 11 12  1  0  0  0  0
 11 13  1  0  0  0  0
 11 14  1  0  0  0  0
 14 15  1  0  0  0  0
 14 16  1  0  0  0  0
 14 17  1  0  0  0  0
 17 18  1  0  0  0  0
 18 19  1  0  0  0  0
 18 20  1  0  0  0  0
 18 21  1  0  0  0  0
 22 23  2  0  0  0  0
 22 24  1  0  0  0  0
 24 25  1  0  0  0  0
 24 26  1  0  0  0  0
 26 27  1  0  0  0  0
 26 28  1  0  0  0  0
 26 29  1  0  0  0  0
M  END
$$$$

  -OEChem-01062216093D

 29 28  0     1  0  0  0  0  0999 V2000
   -3.5218   -3.1956    0.9301 H   0  0  0  0  0  0  0  0  0  0  0  0
   -3.4115   -2.2856    0.3332 C   0  0  0  0  0  0  0  0  0  0  0  0
   -4.3246   -1.6925    0.4250 H   0  0  0  0  0  0  0  0  0  0  0  0
   -3.2697   -2.5682   -0.7126 H   0  0  0  0  0  0  0  0  0  0  0  0
   -2.2195   -1.4841    0.8218 C   0  0  0  0  0  0  0  0  0  0  0  0
   -1.6441   -1.8251    1.8368 O   0  0  0  0  0  0  0  0  0  0  0  0
   -1.8889   -0.3055    0.1852 N   0  0  0  0  0  0  0  0  0  0  0  0
   -2.4459   -0.1558   -0.6494 H   0  0  0  0  0  0  0  0  0  0  0  0
   -0.5411    0.3180    0.1428 C   0  0  1  0  0  0  0  0  0  0  0  0
   -0.2284    0.5562    1.1653 H   0  0  0  0  0  0  0  0  0  0  0  0
    0.5495   -0.5696   -0.5364 C   0  0  0  0  0  0  0  0  0  0  0  0
    0.2032   -0.8157   -1.5451 H   0  0  0  0  0  0  0  0  0  0  0  0
    1.4642    0.0194   -0.6519 H   0  0  0  0  0  0  0  0  0  0  0  0
    0.9587   -1.8799    0.1503 C   0  0  0  0  0  0  0  0  0  0  0  0
    0.1134   -2.5660    0.2240 H   0  0  0  0  0  0  0  0  0  0  0  0
    1.7164   -2.3805   -0.4603 H   0  0  0  0  0  0  0  0  0  0  0  0
    1.6652   -1.5657    1.8217 S   0  0  0  0  0  0  0  0  0  0  0  0
    3.2645   -0.7369    1.4622 C   0  0  0  0  0  0  0  0  0  0  0  0
    3.0948    0.2368    0.9938 H   0  0  0  0  0  0  0  0  0  0  0  0
    3.8203   -0.5814    2.3914 H   0  0  0  0  0  0  0  0  0  0  0  0
    3.8695   -1.3528    0.7908 H   0  0  0  0  0  0  0  0  0  0  0  0
   -0.5841    1.6445   -0.6638 C   0  0  0  0  0  0  0  0  0  0  0  0
    0.4373    2.2788   -0.8938 O   0  0  0  0  0  0  0  0  0  0  0  0
   -1.7702    2.0952   -1.2230 N   0  0  0  0  0  0  0  0  0  0  0  0
   -2.6197    1.7294   -0.8064 H   0  0  0  0  0  0  0  0  0  0  0  0
   -1.8609    3.3519   -1.9596 C   0  0  0  0  0  0  0  0  0  0  0  0
   -1.1784    3.3455   -2.8162 H   0  0  0  0  0  0  0  0  0  0  0  0
   -2.8784    3.4982   -2.3343 H   0  0  0  0  0  0  0  0  0  0  0  0
   -1.6035    4.1963   -1.3113 H   0  0  0  0  0  0  0  0  0  0  0  0
  1  2  1  0  0  0  0
  2  3  1  0  0  0  0
  2  4  1  0  0  0  0
  2  5  1  0  0  0  0
  5  6  2  0  0  0  0
  5  7  1  0  0  0  0
  7  8  1  0  0  0  0
  7  9  1  0  0  0  0
  9 10  1  0  0  0  0
  9 11  1  0  0  0  0
  9 22  1  0  0  0  0
 11 12  1  0  0  0  0
 11 13  1  0  0  0  0
 11 14  1  0  0  0  0
 14 15  1  0  0  0  0
 14 16  1  0  0  0  0
 14 17  1  0  0  0  0
 17 18  1  0  0  0  0
 18 19  1  0  0  0  0
 18 20  1  0  0  0  0
 18 21  1  0  0  0  0
 22 23  2  0  0  0  0
 22 24  1  0  0  0  0
 24 25  1  0  0  0  0
 24 26  1  0  0  0  0
 26 27  1  0  0  0  0
 26 28  1  0  0  0  0
 26 29  1  0  0  0  0
M  END
$$$$

  -OEChem-01062216093D

 29 28  0     1  0  0  0  0  0999 V2000
   -3.5291   -3.1794    0.8972 H   0  0  0  0  0  0  0  0  0  0  0  0
   -3.4172   -2.2619    0.3123 C   0  0  0  0  0  0  0  0  0  0  0  0
   -4.3259   -1.6648    0.4178 H   0  0  0  0  0  0  0  0  0  0  0  0
   -3.2834   -2.5312   -0.7380 H   0  0  0  0  0  0  0  0  0  0  0  0
   -2.2177   -1.4745    0.8046 C   0  0  0  0  0  0  0  0  0  0  0  0
   -1.6480   -1.8237    1.8201 O   0  0  0  0  0  0  0  0  0  0  0  0
   -1.8741   -0.2955    0.1758 N   0  0  0  0  0  0  0  0  0  0  0  0
   -2.4406   -0.1163   -0.6483 H   0  0  0  0  0  0  0  0  0  0  0  0
   -0.5222    0.3190    0.1336 C   0  0  1  0  0  0  0  0  0  0  0  0
   -0.2096    0.5600    1.1554 H   0  0  0  0  0  0  0  0  0  0  0  0
    0.5675   -0.5782   -0.5361 C   0  0  0  0  0  0  0  0  0  0  0  0
    0.2250   -0.8273   -1.5453 H   0  0  0  0  0  0  0  0  0  0  0  0
    1.4864    0.0045   -0.6480 H   0  0  0  0  0  0  0  0  0  0  0  0
    0.9670   -1.8863    0.1609 C   0  0  0  0  0  0  0  0  0  0  0  0
    0.1189   -2.5686    0.2338 H   0  0  0  0  0  0  0  0  0  0  0  0
    1.7250   -2.3939   -0.4435 H   0  0  0  0  0  0  0  0  0  0  0  0
    1.6680   -1.5662    1.8339 S   0  0  0  0  0  0  0  0  0  0  0  0
    3.2732   -0.7486    1.4742 C   0  0  0  0  0  0  0  0  0  0  0  0
    3.1119    0.2211    0.9948 H   0  0  0  0  0  0  0  0  0  0  0  0
    3.8254   -0.5869    2.4045 H   0  0  0  0  0  0  0  0  0  0  0  0
    3.8781   -1.3748    0.8123 H   0  0  0  0  0  0  0  0  0  0  0  0
   -0.5861    1.6477   -0.6713 C   0  0  0  0  0  0  0  0  0  0  0  0
    0.4151    2.1757   -1.1380 O   0  0  0  0  0  0  0  0  0  0  0  0
   -1.8132    2.2334   -0.9405 N   0  0  0  0  0  0  0  0  0  0  0  0
   -2.5858    1.9240   -0.3578 H   0  0  0  0  0  0  0  0  0  0  0  0
   -1.9435    3.5091   -1.6371 C   0  0  0  0  0  0  0  0  0  0  0  0
   -1.4846    3.4529   -2.6301 H   0  0  0  0  0  0  0  0  0  0  0  0
   -2.9997    3.7664   -1.7619 H   0  0  0  0  0  0  0  0  0  0  0  0
   -1.4553    4.3083   -1.0692 H   0  0  0  0  0  0  0  0  0  0  0  0
  1  2  1  0  0  0  0
  2  3  1  0  0  0  0
  2  4  1  0  0  0  0
  2  5  1  0  0  0  0
  5  6  2  0  0  0  0
  5  7  1  0  0  0  0
  7  8  1  0  0  0  0
  7  9  1  0  0  0  0
  9 10  1  0  0  0  0
  9 11  1  0  0  0  0
  9 22  1  0  0  0  0
 11 12  1  0  0  0  0
 11 13  1  0  0  0  0
 11 14  1  0  0  0  0
 14 15  1  0  0  0  0
 14 16  1  0  0  0  0
 14 17  1  0  0  0  0
 17 18  1  0  0  0  0
 18 19  1  0  0  0  0
 18 20  1  0  0  0  0
 18 21  1  0  0  0  0
 22 23  2  0  0  0  0
 22 24  1  0  0  0  0
 24 25  1  0  0  0  0
 24 26  1  0  0  0  0
 26 27  1  0  0  0  0
 26 28  1  0  0  0  0
 26 29  1  0  0  0  0
M  END
$$$$

  -OEChem-01062216093D

 29 28  0     1  0  0  0  0  0999 V2000
   -3.5633   -3.1526    0.8716 H   0  0  0  0  0  0  0  0  0  0  0  0
   -3.4434   -2.2268    0.3013 C   0  0  0  0  0  0  0  0  0  0  0  0
   -4.3371   -1.6128    0.4351 H   0  0  0  0  0  0  0  0  0  0  0  0
   -3.3356   -2.4793   -0.7563 H   0  0  0  0  0  0  0  0  0  0  0  0
   -2.2184   -1.4734    0.7840 C   0  0  0  0  0  0  0  0  0  0  0  0
   -1.6443   -1.8463    1.7887 O   0  0  0  0  0  0  0  0  0  0  0  0
   -1.8598   -0.2935    0.1658 N   0  0  0  0  0  0  0  0  0  0  0  0
   -2.4440   -0.0747   -0.6368 H   0  0  0  0  0  0  0  0  0  0  0  0
   -0.5055    0.3132    0.1244 C   0  0  1  0  0  0  0  0  0  0  0  0
   -0.1938    0.5540    1.1463 H   0  0  0  0  0  0  0  0  0  0  0  0
    0.5880   -0.5844   -0.5376 C   0  0  0  0  0  0  0  0  0  0  0  0
    0.2518   -0.8355   -1.5485 H   0  0  0  0  0  0  0  0  0  0  0  0
    1.5059    0.0011   -0.6433 H   0  0  0  0  0  0  0  0  0  0  0  0
    0.9852   -1.8904    0.1637 C   0  0  0  0  0  0  0  0  0  0  0  0
    0.1375   -2.5741    0.2318 H   0  0  0  0  0  0  0  0  0  0  0  0
    1.7472   -2.3974   -0.4362 H   0  0  0  0  0  0  0  0  0  0  0  0
    1.6779   -1.5670    1.8397 S   0  0  0  0  0  0  0  0  0  0  0  0
    3.2845   -0.7487    1.4874 C   0  0  0  0  0  0  0  0  0  0  0  0
    3.1249    0.2230    1.0113 H   0  0  0  0  0  0  0  0  0  0  0  0
    3.8342   -0.5913    2.4201 H   0  0  0  0  0  0  0  0  0  0  0  0
    3.8912   -1.3727    0.8247 H   0  0  0  0  0  0  0  0  0  0  0  0
   -0.5873    1.6440   -0.6748 C   0  0  0  0  0  0  0  0  0  0  0  0
    0.3277    2.0564   -1.3765 O   0  0  0  0  0  0  0  0  0  0  0  0
   -1.7672    2.3693   -0.6566 N   0  0  0  0  0  0  0  0  0  0  0  0
   -2.4449    2.1018    0.0524 H   0  0  0  0  0  0  0  0  0  0  0  0
   -1.9194    3.6622   -1.3157 C   0  0  0  0  0  0  0  0  0  0  0  0
   -1.7260    3.5712   -2.3899 H   0  0  0  0  0  0  0  0  0  0  0  0
   -2.9382    4.0383   -1.1816 H   0  0  0  0  0  0  0  0  0  0  0  0
   -1.2214    4.3928   -0.8935 H   0  0  0  0  0  0  0  0  0  0  0  0
  1  2  1  0  0  0  0
  2  3  1  0  0  0  0
  2  4  1  0  0  0  0
  2  5  1  0  0  0  0
  5  6  2  0  0  0  0
  5  7  1  0  0  0  0
  7  8  1  0  0  0  0
  7  9  1  0  0  0  0
  9 10  1  0  0  0  0
  9 11  1  0  0  0  0
  9 22  1  0  0  0  0
 11 12  1  0  0  0  0
 11 13  1  0  0  0  0
 11 14  1  0  0  0  0
 14 15  1  0  0  0  0
 14 16  1  0  0  0  0
 14 17  1  0  0  0  0
 17 18  1  0  0  0  0
 18 19  1  0  0  0  0
 18 20  1  0  0  0  0
 18 21  1  0  0  0  0
 22 23  2  0  0  0  0
 22 24  1  0  0  0  0
 24 25  1  0  0  0  0
 24 26  1  0  0  0  0
 26 27  1  0  0  0  0
 26 28  1  0  0  0  0
 26 29  1  0  0  0  0
M  END
$$$$

  -OEChem-01062216093D

 29 28  0     1  0  0  0  0  0999 V2000
   -3.5961   -3.1256    0.8486 H   0  0  0  0  0  0  0  0  0  0  0  0
   -3.4676   -2.1916    0.2940 C   0  0  0  0  0  0  0  0  0  0  0  0
   -4.3460   -1.5622    0.4558 H   0  0  0  0  0  0  0  0  0  0  0  0
   -3.3837   -2.4254   -0.7700 H   0  0  0  0  0  0  0  0  0  0  0  0
   -2.2190   -1.4722    0.7677 C   0  0  0  0  0  0  0  0  0  0  0  0
   -1.6389   -1.8702    1.7593 O   0  0  0  0  0  0  0  0  0  0  0  0
   -1.8478   -0.2898    0.1625 N   0  0  0  0  0  0  0  0  0  0  0  0
   -2.4447   -0.0370   -0.6207 H   0  0  0  0  0  0  0  0  0  0  0  0
   -0.4914    0.3086    0.1251 C   0  0  1  0  0  0  0  0  0  0  0  0
   -0.1800    0.5427    1.1483 H   0  0  0  0  0  0  0  0  0  0  0  0
    0.6063   -0.5827   -0.5367 C   0  0  0  0  0  0  0  0  0  0  0  0
    0.2730   -0.8328   -1.5491 H   0  0  0  0  0  0  0  0  0  0  0  0
    1.5202    0.0105   -0.6396 H   0  0  0  0  0  0  0  0  0  0  0  0
    1.0023   -1.8912    0.1600 C   0  0  0  0  0  0  0  0  0  0  0  0
    0.1544   -2.5750    0.2213 H   0  0  0  0  0  0  0  0  0  0  0  0
    1.7671   -2.3954   -0.4384 H   0  0  0  0  0  0  0  0  0  0  0  0
    1.6861   -1.5728    1.8406 S   0  0  0  0  0  0  0  0  0  0  0  0
    3.2922   -0.7500    1.4972 C   0  0  0  0  0  0  0  0  0  0  0  0
    3.1328    0.2189    1.0159 H   0  0  0  0  0  0  0  0  0  0  0  0
    3.8351   -0.5866    2.4327 H   0  0  0  0  0  0  0  0  0  0  0  0
    3.9055   -1.3746    0.8415 H   0  0  0  0  0  0  0  0  0  0  0  0
   -0.5825    1.6428   -0.6627 C   0  0  0  0  0  0  0  0  0  0  0  0
    0.1819    1.9397   -1.5725 O   0  0  0  0  0  0  0  0  0  0  0  0
   -1.6285    2.5048   -0.3830 N   0  0  0  0  0  0  0  0  0  0  0  0
   -2.1982    2.2808    0.4291 H   0  0  0  0  0  0  0  0  0  0  0  0
   -1.8001    3.8000   -1.0311 C   0  0  0  0  0  0  0  0  0  0  0  0
   -1.8960    3.6769   -2.1151 H   0  0  0  0  0  0  0  0  0  0  0  0
   -2.7042    4.2922   -0.6598 H   0  0  0  0  0  0  0  0  0  0  0  0
   -0.9421    4.4486   -0.8251 H   0  0  0  0  0  0  0  0  0  0  0  0
  1  2  1  0  0  0  0
  2  3  1  0  0  0  0
  2  4  1  0  0  0  0
  2  5  1  0  0  0  0
  5  6  2  0  0  0  0
  5  7  1  0  0  0  0
  7  8  1  0  0  0  0
  7  9  1  0  0  0  0
  9 10  1  0  0  0  0
  9 11  1  0  0  0  0
  9 22  1  0  0  0  0
 11 12  1  0  0  0  0
 11 13  1  0  0  0  0
 11 14  1  0  0  0  0
 14 15  1  0  0  0  0
 14 16  1  0  0  0  0
 14 17  1  0  0  0  0
 17 18  1  0  0  0  0
 18 19  1  0  0  0  0
 18 20  1  0  0  0  0
 18 21  1  0  0  0  0
 22 23  2  0  0  0  0
 22 24  1  0  0  0  0
 24 25  1  0  0  0  0
 24 26  1  0  0  0  0
 26 27  1  0  0  0  0
 26 28  1  0  0  0  0
 26 29  1  0  0  0  0
M  END
$$$$

  -OEChem-01062216093D

 29 28  0     1  0  0  0  0  0999 V2000
   -3.6138   -3.1072    0.8486 H   0  0  0  0  0  0  0  0  0  0  0  0
   -3.4717   -2.1795    0.2868 C   0  0  0  0  0  0  0  0  0  0  0  0
   -4.3451   -1.5402    0.4359 H   0  0  0  0  0  0  0  0  0  0  0  0
   -3.3815   -2.4233   -0.7744 H   0  0  0  0  0  0  0  0  0  0  0  0
   -2.2198   -1.4682    0.7644 C   0  0  0  0  0  0  0  0  0  0  0  0
   -1.6371   -1.8776    1.7503 O   0  0  0  0  0  0  0  0  0  0  0  0
   -1.8438   -0.2831    0.1680 N   0  0  0  0  0  0  0  0  0  0  0  0
   -2.4427   -0.0170   -0.6096 H   0  0  0  0  0  0  0  0  0  0  0  0
   -0.4867    0.3094    0.1342 C   0  0  1  0  0  0  0  0  0  0  0  0
   -0.1737    0.5337    1.1591 H   0  0  0  0  0  0  0  0  0  0  0  0
    0.6115   -0.5754   -0.5329 C   0  0  0  0  0  0  0  0  0  0  0  0
    0.2775   -0.8239   -1.5455 H   0  0  0  0  0  0  0  0  0  0  0  0
    1.5209    0.0243   -0.6359 H   0  0  0  0  0  0  0  0  0  0  0  0
    1.0064   -1.8886    0.1548 C   0  0  0  0  0  0  0  0  0  0  0  0
    0.1578   -2.5723    0.2105 H   0  0  0  0  0  0  0  0  0  0  0  0
    1.7715   -2.3892   -0.4463 H   0  0  0  0  0  0  0  0  0  0  0  0
    1.6876   -1.5813    1.8385 S   0  0  0  0  0  0  0  0  0  0  0  0
    3.2938   -0.7559    1.5024 C   0  0  0  0  0  0  0  0  0  0  0  0
    3.1337    0.2196    1.0348 H   0  0  0  0  0  0  0  0  0  0  0  0
    3.8389   -0.6061    2.4390 H   0  0  0  0  0  0  0  0  0  0  0  0
    3.9049   -1.3721    0.8365 H   0  0  0  0  0  0  0  0  0  0  0  0
   -0.5751    1.6472   -0.6429 C   0  0  0  0  0  0  0  0  0  0  0  0
   -0.0164    1.8346   -1.7169 O   0  0  0  0  0  0  0  0  0  0  0  0
   -1.4084    2.6371   -0.1549 N   0  0  0  0  0  0  0  0  0  0  0  0
   -1.8562    2.4633    0.7414 H   0  0  0  0  0  0  0  0  0  0  0  0
   -1.5903    3.9320   -0.8004 C   0  0  0  0  0  0  0  0  0  0  0  0
   -1.9955    3.8039   -1.8096 H   0  0  0  0  0  0  0  0  0  0  0  0
   -2.2880    4.5473   -0.2242 H   0  0  0  0  0  0  0  0  0  0  0  0
   -0.6354    4.4639   -0.8689 H   0  0  0  0  0  0  0  0  0  0  0  0
  1  2  1  0  0  0  0
  2  3  1  0  0  0  0
  2  4  1  0  0  0  0
  2  5  1  0  0  0  0
  5  6  2  0  0  0  0
  5  7  1  0  0  0  0
  7  8  1  0  0  0  0
  7  9  1  0  0  0  0
  9 10  1  0  0  0  0
  9 11  1  0  0  0  0
  9 22  1  0  0  0  0
 11 12  1  0  0  0  0
 11 13  1  0  0  0  0
 11 14  1  0  0  0  0
 14 15  1  0  0  0  0
 14 16  1  0  0  0  0
 14 17  1  0  0  0  0
 17 18  1  0  0  0  0
 18 19  1  0  0  0  0
 18 20  1  0  0  0  0
 18 21  1  0  0  0  0
 22 23  2  0  0  0  0
 22 24  1  0  0  0  0
 24 25  1  0  0  0  0
 24 26  1  0  0  0  0
 26 27  1  0  0  0  0
 26 28  1  0  0  0  0
 26 29  1  0  0  0  0
M  END
$$$$

  -OEChem-01062216093D

 29 28  0     1  0  0  0  0  0999 V2000
   -3.6154   -3.1030    0.8351 H   0  0  0  0  0  0  0  0  0  0  0  0
   -3.4765   -2.1673    0.2859 C   0  0  0  0  0  0  0  0  0  0  0  0
   -4.3468   -1.5283    0.4530 H   0  0  0  0  0  0  0  0  0  0  0  0
   -3.3975   -2.3953   -0.7797 H   0  0  0  0  0  0  0  0  0  0  0  0
   -2.2186   -1.4657    0.7618 C   0  0  0  0  0  0  0  0  0  0  0  0
   -1.6335   -1.8851    1.7424 O   0  0  0  0  0  0  0  0  0  0  0  0
   -1.8396   -0.2782    0.1726 N   0  0  0  0  0  0  0  0  0  0  0  0
   -2.4350   -0.0053   -0.6057 H   0  0  0  0  0  0  0  0  0  0  0  0
   -0.4824    0.3107    0.1462 C   0  0  1  0  0  0  0  0  0  0  0  0
   -0.1701    0.5228    1.1738 H   0  0  0  0  0  0  0  0  0  0  0  0
    0.6174   -0.5648   -0.5291 C   0  0  0  0  0  0  0  0  0  0  0  0
    0.2831   -0.8074   -1.5433 H   0  0  0  0  0  0  0  0  0  0  0  0
    1.5238    0.0400   -0.6295 H   0  0  0  0  0  0  0  0  0  0  0  0
    1.0108   -1.8854    0.1452 C   0  0  0  0  0  0  0  0  0  0  0  0
    0.1611   -2.5684    0.1920 H   0  0  0  0  0  0  0  0  0  0  0  0
    1.7767   -2.3804   -0.4595 H   0  0  0  0  0  0  0  0  0  0  0  0
    1.6881   -1.5961    1.8338 S   0  0  0  0  0  0  0  0  0  0  0  0
    3.2949   -0.7675    1.5112 C   0  0  0  0  0  0  0  0  0  0  0  0
    3.1366    0.2130    1.0541 H   0  0  0  0  0  0  0  0  0  0  0  0
    3.8372   -0.6285    2.4511 H   0  0  0  0  0  0  0  0  0  0  0  0
    3.9075   -1.3765    0.8402 H   0  0  0  0  0  0  0  0  0  0  0  0
   -0.5608    1.6513   -0.6221 C   0  0  0  0  0  0  0  0  0  0  0  0
   -0.2549    1.7493   -1.8042 O   0  0  0  0  0  0  0  0  0  0  0  0
   -1.1255    2.7452    0.0070 N   0  0  0  0  0  0  0  0  0  0  0  0
   -1.4197    2.6250    0.9728 H   0  0  0  0  0  0  0  0  0  0  0  0
   -1.3210    4.0377   -0.6387 C   0  0  0  0  0  0  0  0  0  0  0  0
   -1.9917    3.9393   -1.4988 H   0  0  0  0  0  0  0  0  0  0  0  0
   -1.7636    4.7490    0.0653 H   0  0  0  0  0  0  0  0  0  0  0  0
   -0.3635    4.4430   -0.9827 H   0  0  0  0  0  0  0  0  0  0  0  0
  1  2  1  0  0  0  0
  2  3  1  0  0  0  0
  2  4  1  0  0  0  0
  2  5  1  0  0  0  0
  5  6  2  0  0  0  0
  5  7  1  0  0  0  0
  7  8  1  0  0  0  0
  7  9  1  0  0  0  0
  9 10  1  0  0  0  0
  9 11  1  0  0  0  0
  9 22  1  0  0  0  0
 11 12  1  0  0  0  0
 11 13  1  0  0  0  0
 11 14  1  0  0  0  0
 14 15  1  0  0  0  0
 14 16  1  0  0  0  0
 14 17  1  0  0  0  0
 17 18  1  0  0  0  0
 18 19  1  0  0  0  0
 18 20  1  0  0  0  0
 18 21  1  0  0  0  0
 22 23  2  0  0  0  0
 22 24  1  0  0  0  0
 24 25  1  0  0  0  0
 24 26  1  0  0  0  0
 26 27  1  0  0  0  0
 26 28  1  0  0  0  0
 26 29  1  0  0  0  0
M  END
$$$$

  -OEChem-01062216093D

 29 28  0     1  0  0  0  0  0999 V2000
   -3.6273   -3.0906    0.8310 H   0  0  0  0  0  0  0  0  0  0  0  0
   -3.4814   -2.1541    0.2853 C   0  0  0  0  0  0  0  0  0  0  0  0
   -4.3464   -1.5087    0.4557 H   0  0  0  0  0  0  0  0  0  0  0  0
   -3.4053   -2.3781   -0.7814 H   0  0  0  0  0  0  0  0  0  0  0  0
   -2.2177   -1.4638    0.7624 C   0  0  0  0  0  0  0  0  0  0  0  0
   -1.6293   -1.8961    1.7356 O   0  0  0  0  0  0  0  0  0  0  0  0
   -1.8322   -0.2761    0.1782 N   0  0  0  0  0  0  0  0  0  0  0  0
   -2.4219    0.0039   -0.6024 H   0  0  0  0  0  0  0  0  0  0  0  0
   -0.4760    0.3115    0.1614 C   0  0  1  0  0  0  0  0  0  0  0  0
   -0.1666    0.5136    1.1917 H   0  0  0  0  0  0  0  0  0  0  0  0
    0.6250   -0.5513   -0.5249 C   0  0  0  0  0  0  0  0  0  0  0  0
    0.2924   -0.7819   -1.5424 H   0  0  0  0  0  0  0  0  0  0  0  0
    1.5300    0.0567   -0.6168 H   0  0  0  0  0  0  0  0  0  0  0  0
    1.0162   -1.8805    0.1330 C   0  0  0  0  0  0  0  0  0  0  0  0
    0.1649   -2.5625    0.1685 H   0  0  0  0  0  0  0  0  0  0  0  0
    1.7823   -2.3685   -0.4770 H   0  0  0  0  0  0  0  0  0  0  0  0
    1.6893   -1.6168    1.8274 S   0  0  0  0  0  0  0  0  0  0  0  0
    3.2982   -0.7850    1.5229 C   0  0  0  0  0  0  0  0  0  0  0  0
    3.1440    0.2007    1.0757 H   0  0  0  0  0  0  0  0  0  0  0  0
    3.8357   -0.6573    2.4671 H   0  0  0  0  0  0  0  0  0  0  0  0
    3.9140   -1.3875    0.8490 H   0  0  0  0  0  0  0  0  0  0  0  0
   -0.5452    1.6518   -0.6040 C   0  0  0  0  0  0  0  0  0  0  0  0
   -0.5222    1.6881   -1.8284 O   0  0  0  0  0  0  0  0  0  0  0  0
   -0.8109    2.8171    0.0907 N   0  0  0  0  0  0  0  0  0  0  0  0
   -0.9176    2.7452    1.0991 H   0  0  0  0  0  0  0  0  0  0  0  0
   -1.0143    4.1099   -0.5526 C   0  0  0  0  0  0  0  0  0  0  0  0
   -1.8922    4.0792   -1.2064 H   0  0  0  0  0  0  0  0  0  0  0  0
   -1.1710    4.8873    0.2015 H   0  0  0  0  0  0  0  0  0  0  0  0
   -0.1384    4.3821   -1.1511 H   0  0  0  0  0  0  0  0  0  0  0  0
  1  2  1  0  0  0  0
  2  3  1  0  0  0  0
  2  4  1  0  0  0  0
  2  5  1  0  0  0  0
  5  6  2  0  0  0  0
  5  7  1  0  0  0  0
  7  8  1  0  0  0  0
  7  9  1  0  0  0  0
  9 10  1  0  0  0  0
  9 11  1  0  0  0  0
  9 22  1  0  0  0  0
 11 12  1  0  0  0  0
 11 13  1  0  0  0  0
 11 14  1  0  0  0  0
 14 15  1  0  0  0  0
 14 16  1  0  0  0  0
 14 17  1  0  0  0  0
 17 18  1  0  0  0  0
 18 19  1  0  0  0  0
 18 20  1  0  0  0  0
 18 21  1  0  0  0  0
 22 23  2  0  0  0  0
 22 24  1  0  0  0  0
 24 25  1  0  0  0  0
 24 26  1  0  0  0  0
 26 27  1  0  0  0  0
 26 28  1  0  0  0  0
 26 29  1  0  0  0  0
M  END
$$$$

  -OEChem-01062216093D

 29 28  0     1  0  0  0  0  0999 V2000
   -3.6523   -3.0704    0.8336 H   0  0  0  0  0  0  0  0  0  0  0  0
   -3.4920   -2.1376    0.2857 C   0  0  0  0  0  0  0  0  0  0  0  0
   -4.3487   -1.4802    0.4512 H   0  0  0  0  0  0  0  0  0  0  0  0
   -3.4156   -2.3657   -0.7800 H   0  0  0  0  0  0  0  0  0  0  0  0
   -2.2200   -1.4631    0.7636 C   0  0  0  0  0  0  0  0  0  0  0  0
   -1.6269   -1.9133    1.7260 O   0  0  0  0  0  0  0  0  0  0  0  0
   -1.8237   -0.2782    0.1817 N   0  0  0  0  0  0  0  0  0  0  0  0
   -2.4112    0.0155   -0.5964 H   0  0  0  0  0  0  0  0  0  0  0  0
   -0.4684    0.3095    0.1736 C   0  0  1  0  0  0  0  0  0  0  0  0
   -0.1638    0.5067    1.2064 H   0  0  0  0  0  0  0  0  0  0  0  0
    0.6341   -0.5424   -0.5206 C   0  0  0  0  0  0  0  0  0  0  0  0
    0.3026   -0.7602   -1.5414 H   0  0  0  0  0  0  0  0  0  0  0  0
    1.5392    0.0665   -0.6040 H   0  0  0  0  0  0  0  0  0  0  0  0
    1.0240   -1.8784    0.1239 C   0  0  0  0  0  0  0  0  0  0  0  0
    0.1714   -2.5593    0.1510 H   0  0  0  0  0  0  0  0  0  0  0  0
    1.7912   -2.3613   -0.4888 H   0  0  0  0  0  0  0  0  0  0  0  0
    1.6928   -1.6321    1.8229 S   0  0  0  0  0  0  0  0  0  0  0  0
    3.3023   -0.7966    1.5311 C   0  0  0  0  0  0  0  0  0  0  0  0
    3.1485    0.1928    1.0920 H   0  0  0  0  0  0  0  0  0  0  0  0
    3.8364   -0.6768    2.4783 H   0  0  0  0  0  0  0  0  0  0  0  0
    3.9210   -1.3926    0.8538 H   0  0  0  0  0  0  0  0  0  0  0  0
   -0.5316    1.6457   -0.5955 C   0  0  0  0  0  0  0  0  0  0  0  0
   -0.7752    1.6595   -1.7965 O   0  0  0  0  0  0  0  0  0  0  0  0
   -0.4901    2.8432    0.0940 N   0  0  0  0  0  0  0  0  0  0  0  0
   -0.3952    2.7982    1.1051 H   0  0  0  0  0  0  0  0  0  0  0  0
   -0.6846    4.1416   -0.5403 C   0  0  0  0  0  0  0  0  0  0  0  0
   -1.6915    4.2141   -0.9646 H   0  0  0  0  0  0  0  0  0  0  0  0
   -0.5594    4.9438    0.1933 H   0  0  0  0  0  0  0  0  0  0  0  0
    0.0471    4.2905   -1.3413 H   0  0  0  0  0  0  0  0  0  0  0  0
  1  2  1  0  0  0  0
  2  3  1  0  0  0  0
  2  4  1  0  0  0  0
  2  5  1  0  0  0  0
  5  6  2  0  0  0  0
  5  7  1  0  0  0  0
  7  8  1  0  0  0  0
  7  9  1  0  0  0  0
  9 10  1  0  0  0  0
  9 11  1  0  0  0  0
  9 22  1  0  0  0  0
 11 12  1  0  0  0  0
 11 13  1  0  0  0  0
 11 14  1  0  0  0  0
 14 15  1  0  0  0  0
 14 16  1  0  0  0  0
 14 17  1  0  0  0  0
 17 18  1  0  0  0  0
 18 19  1  0  0  0  0
 18 20  1  0  0  0  0
 18 21  1  0  0  0  0
 22 23  2  0  0  0  0
 22 24  1  0  0  0  0
 24 25  1  0  0  0  0
 24 26  1  0  0  0  0
 26 27  1  0  0  0  0
 26 28  1  0  0  0  0
 26 29  1  0  0  0  0
M  END
$$$$

  -OEChem-01062216093D

 29 28  0     1  0  0  0  0  0999 V2000
   -3.6684   -3.0648    0.8403 H   0  0  0  0  0  0  0  0  0  0  0  0
   -3.5070   -2.1292    0.2975 C   0  0  0  0  0  0  0  0  0  0  0  0
   -4.3534   -1.4635    0.4823 H   0  0  0  0  0  0  0  0  0  0  0  0
   -3.4507   -2.3488   -0.7713 H   0  0  0  0  0  0  0  0  0  0  0  0
   -2.2207   -1.4716    0.7604 C   0  0  0  0  0  0  0  0  0  0  0  0
   -1.6206   -1.9325    1.7135 O   0  0  0  0  0  0  0  0  0  0  0  0
   -1.8194   -0.2887    0.1782 N   0  0  0  0  0  0  0  0  0  0  0  0
   -2.4097    0.0197   -0.5930 H   0  0  0  0  0  0  0  0  0  0  0  0
   -0.4678    0.3058    0.1789 C   0  0  1  0  0  0  0  0  0  0  0  0
   -0.1702    0.5033    1.2135 H   0  0  0  0  0  0  0  0  0  0  0  0
    0.6386   -0.5340   -0.5203 C   0  0  0  0  0  0  0  0  0  0  0  0
    0.3096   -0.7417   -1.5441 H   0  0  0  0  0  0  0  0  0  0  0  0
    1.5419    0.0789   -0.5952 H   0  0  0  0  0  0  0  0  0  0  0  0
    1.0316   -1.8739    0.1136 C   0  0  0  0  0  0  0  0  0  0  0  0
    0.1804   -2.5572    0.1333 H   0  0  0  0  0  0  0  0  0  0  0  0
    1.8014   -2.3492   -0.5021 H   0  0  0  0  0  0  0  0  0  0  0  0
    1.6953   -1.6397    1.8162 S   0  0  0  0  0  0  0  0  0  0  0  0
    3.3029   -0.7963    1.5374 C   0  0  0  0  0  0  0  0  0  0  0  0
    3.1480    0.1943    1.1016 H   0  0  0  0  0  0  0  0  0  0  0  0
    3.8314   -0.6790    2.4883 H   0  0  0  0  0  0  0  0  0  0  0  0
    3.9277   -1.3870    0.8612 H   0  0  0  0  0  0  0  0  0  0  0  0
   -0.5272    1.6374   -0.5964 C   0  0  0  0  0  0  0  0  0  0  0  0
   -0.9900    1.6653   -1.7314 O   0  0  0  0  0  0  0  0  0  0  0  0
   -0.1904    2.8243    0.0270 N   0  0  0  0  0  0  0  0  0  0  0  0
    0.0945    2.7776    1.0015 H   0  0  0  0  0  0  0  0  0  0  0  0
   -0.3390    4.1305   -0.6033 C   0  0  0  0  0  0  0  0  0  0  0  0
   -1.3923    4.3314   -0.8255 H   0  0  0  0  0  0  0  0  0  0  0  0
    0.0310    4.9163    0.0622 H   0  0  0  0  0  0  0  0  0  0  0  0
    0.2323    4.1731   -1.5365 H   0  0  0  0  0  0  0  0  0  0  0  0
  1  2  1  0  0  0  0
  2  3  1  0  0  0  0
  2  4  1  0  0  0  0
  2  5  1  0  0  0  0
  5  6  2  0  0  0  0
  5  7  1  0  0  0  0
  7  8  1  0  0  0  0
  7  9  1  0  0  0  0
  9 10  1  0  0  0  0
  9 11  1  0  0  0  0
  9 22  1  0  0  0  0
 11 12  1  0  0  0  0
 11 13  1  0  0  0  0
 11 14  1  0  0  0  0
 14 15  1  0  0  0  0
 14 16  1  0  0  0  0
 14 17  1  0  0  0  0
 17 18  1  0  0  0  0
 18 19  1  0  0  0  0
 18 20  1  0  0  0  0
 18 21  1  0  0  0  0
 22 23  2  0  0  0  0
 22 24  1  0  0  0  0
 24 25  1  0  0  0  0
 24 26  1  0  0  0  0
 26 27  1  0  0  0  0
 26 28  1  0  0  0  0
 26 29  1  0  0  0  0
M  END
$$$$

  -OEChem-01062216093D

 29 28  0     1  0  0  0  0  0999 V2000
   -3.6836   -3.0674    0.8366 H   0  0  0  0  0  0  0  0  0  0  0  0
   -3.5258   -2.1228    0.3085 C   0  0  0  0  0  0  0  0  0  0  0  0
   -4.3629   -1.4543    0.5241 H   0  0  0  0  0  0  0  0  0  0  0  0
   -3.4940   -2.3220   -0.7653 H   0  0  0  0  0  0  0  0  0  0  0  0
   -2.2247   -1.4842    0.7568 C   0  0  0  0  0  0  0  0  0  0  0  0
   -1.6159   -1.9607    1.6968 O   0  0  0  0  0  0  0  0  0  0  0  0
   -1.8183   -0.3029    0.1752 N   0  0  0  0  0  0  0  0  0  0  0  0
   -2.4203    0.0291   -0.5777 H   0  0  0  0  0  0  0  0  0  0  0  0
   -0.4708    0.3012    0.1794 C   0  0  1  0  0  0  0  0  0  0  0  0
   -0.1783    0.5026    1.2150 H   0  0  0  0  0  0  0  0  0  0  0  0
    0.6395   -0.5309   -0.5213 C   0  0  0  0  0  0  0  0  0  0  0  0
    0.3103   -0.7365   -1.5454 H   0  0  0  0  0  0  0  0  0  0  0  0
    1.5405    0.0855   -0.5949 H   0  0  0  0  0  0  0  0  0  0  0  0
    1.0392   -1.8701    0.1094 C   0  0  0  0  0  0  0  0  0  0  0  0
    0.1918   -2.5580    0.1275 H   0  0  0  0  0  0  0  0  0  0  0  0
    1.8119   -2.3402   -0.5066 H   0  0  0  0  0  0  0  0  0  0  0  0
    1.7012   -1.6338    1.8124 S   0  0  0  0  0  0  0  0  0  0  0  0
    3.3046   -0.7811    1.5366 C   0  0  0  0  0  0  0  0  0  0  0  0
    3.1458    0.2065    1.0955 H   0  0  0  0  0  0  0  0  0  0  0  0
    3.8279   -0.6557    2.4892 H   0  0  0  0  0  0  0  0  0  0  0  0
    3.9361   -1.3714    0.8661 H   0  0  0  0  0  0  0  0  0  0  0  0
   -0.5279    1.6302   -0.6012 C   0  0  0  0  0  0  0  0  0  0  0  0
   -1.1785    1.7039   -1.6383 O   0  0  0  0  0  0  0  0  0  0  0  0
    0.0829    2.7639   -0.0983 N   0  0  0  0  0  0  0  0  0  0  0  0
    0.5451    2.6872    0.8036 H   0  0  0  0  0  0  0  0  0  0  0  0
   -0.0077    4.0714   -0.7369 C   0  0  0  0  0  0  0  0  0  0  0  0
   -1.0495    4.4063   -0.7789 H   0  0  0  0  0  0  0  0  0  0  0  0
    0.5704    4.8093   -0.1723 H   0  0  0  0  0  0  0  0  0  0  0  0
    0.3900    4.0285   -1.7564 H   0  0  0  0  0  0  0  0  0  0  0  0
  1  2  1  0  0  0  0
  2  3  1  0  0  0  0
  2  4  1  0  0  0  0
  2  5  1  0  0  0  0
  5  6  2  0  0  0  0
  5  7  1  0  0  0  0
  7  8  1  0  0  0  0
  7  9  1  0  0  0  0
  9 10  1  0  0  0  0
  9 11  1  0  0  0  0
  9 22  1  0  0  0  0
 11 12  1  0  0  0  0
 11 13  1  0  0  0  0
 11 14  1  0  0  0  0
 14 15  1  0  0  0  0
 14 16  1  0  0  0  0
 14 17  1  0  0  0  0
 17 18  1  0  0  0  0
 18 19  1  0  0  0  0
 18 20  1  0  0  0  0
 18 21  1  0  0  0  0
 22 23  2  0  0  0  0
 22 24  1  0  0  0  0
 24 25  1  0  0  0  0
 24 26  1  0  0  0  0
 26 27  1  0  0  0  0
 26 28  1  0  0  0  0
 26 29  1  0  0  0  0
M  END
$$$$

  -OEChem-01062216093D

 29 28  0     1  0  0  0  0  0999 V2000
   -3.6721   -3.0951    0.7859 H   0  0  0  0  0  0  0  0  0  0  0  0
   -3.5462   -2.1133    0.3207 C   0  0  0  0  0  0  0  0  0  0  0  0
   -4.3737   -1.4687    0.6269 H   0  0  0  0  0  0  0  0  0  0  0  0
   -3.5691   -2.2339   -0.7650 H   0  0  0  0  0  0  0  0  0  0  0  0
   -2.2267   -1.4989    0.7479 C   0  0  0  0  0  0  0  0  0  0  0  0
   -1.6074   -1.9952    1.6705 O   0  0  0  0  0  0  0  0  0  0  0  0
   -1.8151   -0.3178    0.1691 N   0  0  0  0  0  0  0  0  0  0  0  0
   -2.4347    0.0466   -0.5547 H   0  0  0  0  0  0  0  0  0  0  0  0
   -0.4728    0.2984    0.1796 C   0  0  1  0  0  0  0  0  0  0  0  0
   -0.1864    0.5047    1.2158 H   0  0  0  0  0  0  0  0  0  0  0  0
    0.6435   -0.5276   -0.5205 C   0  0  0  0  0  0  0  0  0  0  0  0
    0.3160   -0.7320   -1.5455 H   0  0  0  0  0  0  0  0  0  0  0  0
    1.5432    0.0907   -0.5915 H   0  0  0  0  0  0  0  0  0  0  0  0
    1.0500   -1.8658    0.1076 C   0  0  0  0  0  0  0  0  0  0  0  0
    0.2072   -2.5593    0.1214 H   0  0  0  0  0  0  0  0  0  0  0  0
    1.8269   -2.3295   -0.5078 H   0  0  0  0  0  0  0  0  0  0  0  0
    1.7085   -1.6299    1.8119 S   0  0  0  0  0  0  0  0  0  0  0  0
    3.3072   -0.7676    1.5398 C   0  0  0  0  0  0  0  0  0  0  0  0
    3.1420    0.2284    1.1203 H   0  0  0  0  0  0  0  0  0  0  0  0
    3.8381   -0.6604    2.4904 H   0  0  0  0  0  0  0  0  0  0  0  0
    3.9350   -1.3422    0.8524 H   0  0  0  0  0  0  0  0  0  0  0  0
   -0.5318    1.6261   -0.6058 C   0  0  0  0  0  0  0  0  0  0  0  0
   -1.3384    1.7663   -1.5199 O   0  0  0  0  0  0  0  0  0  0  0  0
    0.3083    2.6732   -0.2746 N   0  0  0  0  0  0  0  0  0  0  0  0
    0.9192    2.5491    0.5280 H   0  0  0  0  0  0  0  0  0  0  0  0
    0.2755    3.9677   -0.9445 C   0  0  0  0  0  0  0  0  0  0  0  0
   -0.7127    4.4283   -0.8411 H   0  0  0  0  0  0  0  0  0  0  0  0
    1.0180    4.6402   -0.5043 H   0  0  0  0  0  0  0  0  0  0  0  0
    0.5013    3.8540   -2.0100 H   0  0  0  0  0  0  0  0  0  0  0  0
  1  2  1  0  0  0  0
  2  3  1  0  0  0  0
  2  4  1  0  0  0  0
  2  5  1  0  0  0  0
  5  6  2  0  0  0  0
  5  7  1  0  0  0  0
  7  8  1  0  0  0  0
  7  9  1  0  0  0  0
  9 10  1  0  0  0  0
  9 11  1  0  0  0  0
  9 22  1  0  0  0  0
 11 12  1  0  0  0  0
 11 13  1  0  0  0  0
 11 14  1  0  0  0  0
 14 15  1  0  0  0  0
 14 16  1  0  0  0  0
 14 17  1  0  0  0  0
 17 18  1  0  0  0  0
 18 19  1  0  0  0  0
 18 20  1  0  0  0  0
 18 21  1  0  0  0  0
 22 23  2  0  0  0  0
 22 24  1  0  0  0  0
 24 25  1  0  0  0  0
 24 26  1  0  0  0  0
 26 27  1  0  0  0  0
 26 28  1  0  0  0  0
 26 29  1  0  0  0  0
M  END
$$$$

  -OEChem-01062216093D

 29 28  0     1  0  0  0  0  0999 V2000
   -3.7003   -3.0783    0.7883 H   0  0  0  0  0  0  0  0  0  0  0  0
   -3.5600   -2.0989    0.3227 C   0  0  0  0  0  0  0  0  0  0  0  0
   -4.3699   -1.4375    0.6395 H   0  0  0  0  0  0  0  0  0  0  0  0
   -3.5985   -2.2175   -0.7628 H   0  0  0  0  0  0  0  0  0  0  0  0
   -2.2234   -1.5115    0.7347 C   0  0  0  0  0  0  0  0  0  0  0  0
   -1.5991   -2.0281    1.6426 O   0  0  0  0  0  0  0  0  0  0  0  0
   -1.8047   -0.3295    0.1631 N   0  0  0  0  0  0  0  0  0  0  0  0
   -2.4430    0.0713   -0.5249 H   0  0  0  0  0  0  0  0  0  0  0  0
   -0.4668    0.2971    0.1814 C   0  0  1  0  0  0  0  0  0  0  0  0
   -0.1841    0.5065    1.2180 H   0  0  0  0  0  0  0  0  0  0  0  0
    0.6523   -0.5295   -0.5182 C   0  0  0  0  0  0  0  0  0  0  0  0
    0.3258   -0.7327   -1.5436 H   0  0  0  0  0  0  0  0  0  0  0  0
    1.5543    0.0847   -0.5884 H   0  0  0  0  0  0  0  0  0  0  0  0
    1.0614   -1.8681    0.1071 C   0  0  0  0  0  0  0  0  0  0  0  0
    0.2222   -2.5655    0.1173 H   0  0  0  0  0  0  0  0  0  0  0  0
    1.8404   -2.3276   -0.5087 H   0  0  0  0  0  0  0  0  0  0  0  0
    1.7187   -1.6337    1.8120 S   0  0  0  0  0  0  0  0  0  0  0  0
    3.3157   -0.7673    1.5452 C   0  0  0  0  0  0  0  0  0  0  0  0
    3.1475    0.2317    1.1349 H   0  0  0  0  0  0  0  0  0  0  0  0
    3.8474   -0.6676    2.4963 H   0  0  0  0  0  0  0  0  0  0  0  0
    3.9436   -1.3346    0.8517 H   0  0  0  0  0  0  0  0  0  0  0  0
   -0.5332    1.6269   -0.6064 C   0  0  0  0  0  0  0  0  0  0  0  0
   -1.4720    1.8513   -1.3649 O   0  0  0  0  0  0  0  0  0  0  0  0
    0.4776    2.5648   -0.4933 N   0  0  0  0  0  0  0  0  0  0  0  0
    1.2165    2.3797    0.1790 H   0  0  0  0  0  0  0  0  0  0  0  0
    0.4709    3.8388   -1.2026 C   0  0  0  0  0  0  0  0  0  0  0  0
   -0.4047    4.4319   -0.9176 H   0  0  0  0  0  0  0  0  0  0  0  0
    1.3709    4.4121   -0.9601 H   0  0  0  0  0  0  0  0  0  0  0  0
    0.4481    3.6739   -2.2851 H   0  0  0  0  0  0  0  0  0  0  0  0
  1  2  1  0  0  0  0
  2  3  1  0  0  0  0
  2  4  1  0  0  0  0
  2  5  1  0  0  0  0
  5  6  2  0  0  0  0
  5  7  1  0  0  0  0
  7  8  1  0  0  0  0
  7  9  1  0  0  0  0
  9 10  1  0  0  0  0
  9 11  1  0  0  0  0
  9 22  1  0  0  0  0
 11 12  1  0  0  0  0
 11 13  1  0  0  0  0
 11 14  1  0  0  0  0
 14 15  1  0  0  0  0
 14 16  1  0  0  0  0
 14 17  1  0  0  0  0
 17 18  1  0  0  0  0
 18 19  1  0  0  0  0
 18 20  1  0  0  0  0
 18 21  1  0  0  0  0
 22 23  2  0  0  0  0
 22 24  1  0  0  0  0
 24 25  1  0  0  0  0
 24 26  1  0  0  0  0
 26 27  1  0  0  0  0
 26 28  1  0  0  0  0
 26 29  1  0  0  0  0
M  END
$$$$

  -OEChem-01062216093D

 29 28  0     1  0  0  0  0  0999 V2000
   -3.6732   -3.0525    0.9174 H   0  0  0  0  0  0  0  0  0  0  0  0
   -3.5446   -2.0824    0.4290 C   0  0  0  0  0  0  0  0  0  0  0  0
   -4.2777   -1.3822    0.8366 H   0  0  0  0  0  0  0  0  0  0  0  0
   -3.7211   -2.2023   -0.6426 H   0  0  0  0  0  0  0  0  0  0  0  0
   -2.1410   -1.5586    0.6681 C   0  0  0  0  0  0  0  0  0  0  0  0
   -1.4001   -2.1560    1.4266 O   0  0  0  0  0  0  0  0  0  0  0  0
   -1.7611   -0.3651    0.0921 N   0  0  0  0  0  0  0  0  0  0  0  0
   -2.4887    0.1455   -0.4086 H   0  0  0  0  0  0  0  0  0  0  0  0
   -0.4377    0.2887    0.1165 C   0  0  1  0  0  0  0  0  0  0  0  0
   -0.0375    0.2681    1.1355 H   0  0  0  0  0  0  0  0  0  0  0  0
    0.5650   -0.3801   -0.8676 C   0  0  0  0  0  0  0  0  0  0  0  0
    0.1140   -0.3737   -1.8655 H   0  0  0  0  0  0  0  0  0  0  0  0
    1.4730    0.2253   -0.9244 H   0  0  0  0  0  0  0  0  0  0  0  0
    0.9968   -1.8187   -0.5567 C   0  0  0  0  0  0  0  0  0  0  0  0
    0.1309   -2.4850   -0.5616 H   0  0  0  0  0  0  0  0  0  0  0  0
    1.6744   -2.1714   -1.3401 H   0  0  0  0  0  0  0  0  0  0  0  0
    1.8550   -1.9267    1.0701 S   0  0  0  0  0  0  0  0  0  0  0  0
    3.4425   -1.0478    0.7865 C   0  0  0  0  0  0  0  0  0  0  0  0
    3.2655    0.0112    0.5822 H   0  0  0  0  0  0  0  0  0  0  0  0
    4.0759   -1.1286    1.6750 H   0  0  0  0  0  0  0  0  0  0  0  0
    3.9735   -1.4892   -0.0620 H   0  0  0  0  0  0  0  0  0  0  0  0
   -0.5874    1.7660   -0.3255 C   0  0  0  0  0  0  0  0  0  0  0  0
   -1.6770    2.1933   -0.6955 O   0  0  0  0  0  0  0  0  0  0  0  0
    0.5098    2.6074   -0.3874 N   0  0  0  0  0  0  0  0  0  0  0  0
    1.3921    2.2524   -0.0308 H   0  0  0  0  0  0  0  0  0  0  0  0
    0.4273    4.0029   -0.8027 C   0  0  0  0  0  0  0  0  0  0  0  0
   -0.2310    4.5644   -0.1314 H   0  0  0  0  0  0  0  0  0  0  0  0
    1.4195    4.4638   -0.7802 H   0  0  0  0  0  0  0  0  0  0  0  0
    0.0361    4.0770   -1.8229 H   0  0  0  0  0  0  0  0  0  0  0  0
  1  2  1  0  0  0  0
  2  3  1  0  0  0  0
  2  4  1  0  0  0  0
  2  5  1  0  0  0  0
  5  6  2  0  0  0  0
  5  7  1  0  0  0  0
  7  8  1  0  0  0  0
  7  9  1  0  0  0  0
  9 10  1  0  0  0  0
  9 11  1  0  0  0  0
  9 22  1  0  0  0  0
 11 12  1  0  0  0  0
 11 13  1  0  0  0  0
 11 14  1  0  0  0  0
 14 15  1  0  0  0  0
 14 16  1  0  0  0  0
 14 17  1  0  0  0  0
 17 18  1  0  0  0  0
 18 19  1  0  0  0  0
 18 20  1  0  0  0  0
 18 21  1  0  0  0  0
 22 23  2  0  0  0  0
 22 24  1  0  0  0  0
 24 25  1  0  0  0  0
 24 26  1  0  0  0  0
 26 27  1  0  0  0  0
 26 28  1  0  0  0  0
 26 29  1  0  0  0  0
M  END
$$$$

  -OEChem-01062216093D

 29 28  0     1  0  0  0  0  0999 V2000
   -3.7006   -3.0156    0.9242 H   0  0  0  0  0  0  0  0  0  0  0  0
   -3.5564   -2.0492    0.4333 C   0  0  0  0  0  0  0  0  0  0  0  0
   -4.2636   -1.3308    0.8550 H   0  0  0  0  0  0  0  0  0  0  0  0
   -3.7560   -2.1643   -0.6347 H   0  0  0  0  0  0  0  0  0  0  0  0
   -2.1355   -1.5616    0.6452 C   0  0  0  0  0  0  0  0  0  0  0  0
   -1.3931   -2.1874    1.3787 O   0  0  0  0  0  0  0  0  0  0  0  0
   -1.7453   -0.3678    0.0761 N   0  0  0  0  0  0  0  0  0  0  0  0
   -2.4859    0.1805   -0.3616 H   0  0  0  0  0  0  0  0  0  0  0  0
   -0.4191    0.2821    0.1055 C   0  0  1  0  0  0  0  0  0  0  0  0
   -0.0224    0.2646    1.1260 H   0  0  0  0  0  0  0  0  0  0  0  0
    0.5884   -0.3980   -0.8692 C   0  0  0  0  0  0  0  0  0  0  0  0
    0.1463   -0.3913   -1.8710 H   0  0  0  0  0  0  0  0  0  0  0  0
    1.5033    0.1968   -0.9175 H   0  0  0  0  0  0  0  0  0  0  0  0
    1.0154   -1.8368   -0.5519 C   0  0  0  0  0  0  0  0  0  0  0  0
    0.1495   -2.5028   -0.5641 H   0  0  0  0  0  0  0  0  0  0  0  0
    1.6978   -2.1911   -1.3303 H   0  0  0  0  0  0  0  0  0  0  0  0
    1.8648   -1.9449    1.0795 S   0  0  0  0  0  0  0  0  0  0  0  0
    3.4559   -1.0711    0.8029 C   0  0  0  0  0  0  0  0  0  0  0  0
    3.2833   -0.0093    0.6093 H   0  0  0  0  0  0  0  0  0  0  0  0
    4.0895   -1.1632    1.6900 H   0  0  0  0  0  0  0  0  0  0  0  0
    3.9839   -1.5069   -0.0503 H   0  0  0  0  0  0  0  0  0  0  0  0
   -0.5819    1.7631   -0.3348 C   0  0  0  0  0  0  0  0  0  0  0  0
   -1.7043    2.2431   -0.4621 O   0  0  0  0  0  0  0  0  0  0  0  0
    0.5020    2.5455   -0.6970 N   0  0  0  0  0  0  0  0  0  0  0  0
    1.4285    2.1537   -0.5600 H   0  0  0  0  0  0  0  0  0  0  0  0
    0.3821    3.9288   -1.1441 C   0  0  0  0  0  0  0  0  0  0  0  0
   -0.0635    4.5486   -0.3587 H   0  0  0  0  0  0  0  0  0  0  0  0
    1.3688    4.3349   -1.3870 H   0  0  0  0  0  0  0  0  0  0  0  0
   -0.2452    3.9902   -2.0398 H   0  0  0  0  0  0  0  0  0  0  0  0
  1  2  1  0  0  0  0
  2  3  1  0  0  0  0
  2  4  1  0  0  0  0
  2  5  1  0  0  0  0
  5  6  2  0  0  0  0
  5  7  1  0  0  0  0
  7  8  1  0  0  0  0
  7  9  1  0  0  0  0
  9 10  1  0  0  0  0
  9 11  1  0  0  0  0
  9 22  1  0  0  0  0
 11 12  1  0  0  0  0
 11 13  1  0  0  0  0
 11 14  1  0  0  0  0
 14 15  1  0  0  0  0
 14 16  1  0  0  0  0
 14 17  1  0  0  0  0
 17 18  1  0  0  0  0
 18 19  1  0  0  0  0
 18 20  1  0  0  0  0
 18 21  1  0  0  0  0
 22 23  2  0  0  0  0
 22 24  1  0  0  0  0
 24 25  1  0  0  0  0
 24 26  1  0  0  0  0
 26 27  1  0  0  0  0
 26 28  1  0  0  0  0
 26 29  1  0  0  0  0
M  END
$$$$

  -OEChem-01062216093D

 29 28  0     1  0  0  0  0  0999 V2000
   -3.7271   -2.9782    0.9380 H   0  0  0  0  0  0  0  0  0  0  0  0
   -3.5708   -2.0160    0.4421 C   0  0  0  0  0  0  0  0  0  0  0  0
   -4.2516   -1.2804    0.8774 H   0  0  0  0  0  0  0  0  0  0  0  0
   -3.7962   -2.1277   -0.6211 H   0  0  0  0  0  0  0  0  0  0  0  0
   -2.1345   -1.5618    0.6219 C   0  0  0  0  0  0  0  0  0  0  0  0
   -1.3890   -2.2135    1.3290 O   0  0  0  0  0  0  0  0  0  0  0  0
   -1.7360   -0.3687    0.0564 N   0  0  0  0  0  0  0  0  0  0  0  0
   -2.4864    0.2125   -0.3167 H   0  0  0  0  0  0  0  0  0  0  0  0
   -0.4045    0.2715    0.0835 C   0  0  1  0  0  0  0  0  0  0  0  0
   -0.0112    0.2589    1.1055 H   0  0  0  0  0  0  0  0  0  0  0  0
    0.6113   -0.4182   -0.8776 C   0  0  0  0  0  0  0  0  0  0  0  0
    0.1806   -0.4163   -1.8843 H   0  0  0  0  0  0  0  0  0  0  0  0
    1.5291    0.1726   -0.9140 H   0  0  0  0  0  0  0  0  0  0  0  0
    1.0367   -1.8548   -0.5502 C   0  0  0  0  0  0  0  0  0  0  0  0
    0.1724   -2.5226   -0.5687 H   0  0  0  0  0  0  0  0  0  0  0  0
    1.7269   -2.2119   -1.3204 H   0  0  0  0  0  0  0  0  0  0  0  0
    1.8733   -1.9530    1.0886 S   0  0  0  0  0  0  0  0  0  0  0  0
    3.4670   -1.0795    0.8248 C   0  0  0  0  0  0  0  0  0  0  0  0
    3.2960   -0.0172    0.6323 H   0  0  0  0  0  0  0  0  0  0  0  0
    4.0936   -1.1732    1.7168 H   0  0  0  0  0  0  0  0  0  0  0  0
    4.0015   -1.5142   -0.0248 H   0  0  0  0  0  0  0  0  0  0  0  0
   -0.5758    1.7545   -0.3531 C   0  0  0  0  0  0  0  0  0  0  0  0
   -1.6697    2.2961   -0.2285 O   0  0  0  0  0  0  0  0  0  0  0  0
    0.4187    2.4661   -1.0051 N   0  0  0  0  0  0  0  0  0  0  0  0
    1.3252    2.0210   -1.1067 H   0  0  0  0  0  0  0  0  0  0  0  0
    0.2564    3.8417   -1.4630 C   0  0  0  0  0  0  0  0  0  0  0  0
    0.0490    4.5048   -0.6164 H   0  0  0  0  0  0  0  0  0  0  0  0
    1.1698    4.1867   -1.9572 H   0  0  0  0  0  0  0  0  0  0  0  0
   -0.5703    3.9134   -2.1777 H   0  0  0  0  0  0  0  0  0  0  0  0
  1  2  1  0  0  0  0
  2  3  1  0  0  0  0
  2  4  1  0  0  0  0
  2  5  1  0  0  0  0
  5  6  2  0  0  0  0
  5  7  1  0  0  0  0
  7  8  1  0  0  0  0
  7  9  1  0  0  0  0
  9 10  1  0  0  0  0
  9 11  1  0  0  0  0
  9 22  1  0  0  0  0
 11 12  1  0  0  0  0
 11 13  1  0  0  0  0
 11 14  1  0  0  0  0
 14 15  1  0  0  0  0
 14 16  1  0  0  0  0
 14 17  1  0  0  0  0
 17 18  1  0  0  0  0
 18 19  1  0  0  0  0
 18 20  1  0  0  0  0
 18 21  1  0  0  0  0
 22 23  2  0  0  0  0
 22 24  1  0  0  0  0
 24 25  1  0  0  0  0
 24 26  1  0  0  0  0
 26 27  1  0  0  0  0
 26 28  1  0  0  0  0
 26 29  1  0  0  0  0
M  END
$$$$

  -OEChem-01062216093D

 29 28  0     1  0  0  0  0  0999 V2000
   -3.7501   -2.9478    0.9592 H   0  0  0  0  0  0  0  0  0  0  0  0
   -3.5864   -1.9910    0.4551 C   0  0  0  0  0  0  0  0  0  0  0  0
   -4.2428   -1.2407    0.9027 H   0  0  0  0  0  0  0  0  0  0  0  0
   -3.8387   -2.1026   -0.6021 H   0  0  0  0  0  0  0  0  0  0  0  0
   -2.1375   -1.5648    0.5999 C   0  0  0  0  0  0  0  0  0  0  0  0
   -1.3868   -2.2394    1.2788 O   0  0  0  0  0  0  0  0  0  0  0  0
   -1.7353   -0.3713    0.0370 N   0  0  0  0  0  0  0  0  0  0  0  0
   -2.4914    0.2281   -0.2909 H   0  0  0  0  0  0  0  0  0  0  0  0
   -0.3990    0.2598    0.0598 C   0  0  1  0  0  0  0  0  0  0  0  0
   -0.0099    0.2493    1.0834 H   0  0  0  0  0  0  0  0  0  0  0  0
    0.6289   -0.4312   -0.8869 C   0  0  0  0  0  0  0  0  0  0  0  0
    0.2086   -0.4381   -1.8980 H   0  0  0  0  0  0  0  0  0  0  0  0
    1.5431    0.1671   -0.9131 H   0  0  0  0  0  0  0  0  0  0  0  0
    1.0590   -1.8641   -0.5508 C   0  0  0  0  0  0  0  0  0  0  0  0
    0.1993   -2.5372   -0.5765 H   0  0  0  0  0  0  0  0  0  0  0  0
    1.7596   -2.2192   -1.3125 H   0  0  0  0  0  0  0  0  0  0  0  0
    1.8808   -1.9517    1.0960 S   0  0  0  0  0  0  0  0  0  0  0  0
    3.4716   -1.0697    0.8428 C   0  0  0  0  0  0  0  0  0  0  0  0
    3.2958   -0.0077    0.6522 H   0  0  0  0  0  0  0  0  0  0  0  0
    4.0939   -1.1624    1.7378 H   0  0  0  0  0  0  0  0  0  0  0  0
    4.0130   -1.4991   -0.0052 H   0  0  0  0  0  0  0  0  0  0  0  0
   -0.5718    1.7438   -0.3700 C   0  0  0  0  0  0  0  0  0  0  0  0
   -1.5709    2.3542   -0.0070 O   0  0  0  0  0  0  0  0  0  0  0  0
    0.2664    2.3744   -1.2762 N   0  0  0  0  0  0  0  0  0  0  0  0
    1.0736    1.8568   -1.6086 H   0  0  0  0  0  0  0  0  0  0  0  0
    0.0691    3.7429   -1.7409 C   0  0  0  0  0  0  0  0  0  0  0  0
    0.1126    4.4423   -0.8993 H   0  0  0  0  0  0  0  0  0  0  0  0
    0.8495    4.0152   -2.4579 H   0  0  0  0  0  0  0  0  0  0  0  0
   -0.9032    3.8449   -2.2344 H   0  0  0  0  0  0  0  0  0  0  0  0
  1  2  1  0  0  0  0
  2  3  1  0  0  0  0
  2  4  1  0  0  0  0
  2  5  1  0  0  0  0
  5  6  2  0  0  0  0
  5  7  1  0  0  0  0
  7  8  1  0  0  0  0
  7  9  1  0  0  0  0
  9 10  1  0  0  0  0
  9 11  1  0  0  0  0
  9 22  1  0  0  0  0
 11 12  1  0  0  0  0
 11 13  1  0  0  0  0
 11 14  1  0  0  0  0
 14 15  1  0  0  0  0
 14 16  1  0  0  0  0
 14 17  1  0  0  0  0
 17 18  1  0  0  0  0
 18 19  1  0  0  0  0
 18 20  1  0  0  0  0
 18 21  1  0  0  0  0
 22 23  2  0  0  0  0
 22 24  1  0  0  0  0
 24 25  1  0  0  0  0
 24 26  1  0  0  0  0
 26 27  1  0  0  0  0
 26 28  1  0  0  0  0
 26 29  1  0  0  0  0
M  END
$$$$

  -OEChem-01062216093D

 29 28  0     1  0  0  0  0  0999 V2000
   -3.7555   -2.9413    0.9781 H   0  0  0  0  0  0  0  0  0  0  0  0
   -3.5943   -1.9866    0.4695 C   0  0  0  0  0  0  0  0  0  0  0  0
   -4.2395   -1.2320    0.9257 H   0  0  0  0  0  0  0  0  0  0  0  0
   -3.8631   -2.0991   -0.5833 H   0  0  0  0  0  0  0  0  0  0  0  0
   -2.1412   -1.5675    0.5917 C   0  0  0  0  0  0  0  0  0  0  0  0
   -1.3840   -2.2490    1.2557 O   0  0  0  0  0  0  0  0  0  0  0  0
   -1.7430   -0.3739    0.0250 N   0  0  0  0  0  0  0  0  0  0  0  0
   -2.5037    0.2229   -0.2938 H   0  0  0  0  0  0  0  0  0  0  0  0
   -0.4051    0.2546    0.0424 C   0  0  1  0  0  0  0  0  0  0  0  0
   -0.0185    0.2470    1.0671 H   0  0  0  0  0  0  0  0  0  0  0  0
    0.6315   -0.4354   -0.8947 C   0  0  0  0  0  0  0  0  0  0  0  0
    0.2155   -0.4555   -1.9071 H   0  0  0  0  0  0  0  0  0  0  0  0
    1.5378    0.1761   -0.9207 H   0  0  0  0  0  0  0  0  0  0  0  0
    1.0698   -1.8644   -0.5517 C   0  0  0  0  0  0  0  0  0  0  0  0
    0.2151   -2.5436   -0.5801 H   0  0  0  0  0  0  0  0  0  0  0  0
    1.7767   -2.2167   -1.3089 H   0  0  0  0  0  0  0  0  0  0  0  0
    1.8847   -1.9434    1.0985 S   0  0  0  0  0  0  0  0  0  0  0  0
    3.4699   -1.0513    0.8451 C   0  0  0  0  0  0  0  0  0  0  0  0
    3.2867    0.0060    0.6358 H   0  0  0  0  0  0  0  0  0  0  0  0
    4.0855   -1.1244    1.7467 H   0  0  0  0  0  0  0  0  0  0  0  0
    4.0218   -1.4893    0.0084 H   0  0  0  0  0  0  0  0  0  0  0  0
   -0.5724    1.7371   -0.3862 C   0  0  0  0  0  0  0  0  0  0  0  0
   -1.4187    2.4209    0.1753 O   0  0  0  0  0  0  0  0  0  0  0  0
    0.0551    2.2802   -1.4968 N   0  0  0  0  0  0  0  0  0  0  0  0
    0.7165    1.6941   -1.9963 H   0  0  0  0  0  0  0  0  0  0  0  0
   -0.1643    3.6461   -1.9599 C   0  0  0  0  0  0  0  0  0  0  0  0
    0.1194    4.3643   -1.1832 H   0  0  0  0  0  0  0  0  0  0  0  0
    0.4387    3.8454   -2.8509 H   0  0  0  0  0  0  0  0  0  0  0  0
   -1.2180    3.8010   -2.2150 H   0  0  0  0  0  0  0  0  0  0  0  0
  1  2  1  0  0  0  0
  2  3  1  0  0  0  0
  2  4  1  0  0  0  0
  2  5  1  0  0  0  0
  5  6  2  0  0  0  0
  5  7  1  0  0  0  0
  7  8  1  0  0  0  0
  7  9  1  0  0  0  0
  9 10  1  0  0  0  0
  9 11  1  0  0  0  0
  9 22  1  0  0  0  0
 11 12  1  0  0  0  0
 11 13  1  0  0  0  0
 11 14  1  0  0  0  0
 14 15  1  0  0  0  0
 14 16  1  0  0  0  0
 14 17  1  0  0  0  0
 17 18  1  0  0  0  0
 18 19  1  0  0  0  0
 18 20  1  0  0  0  0
 18 21  1  0  0  0  0
 22 23  2  0  0  0  0
 22 24  1  0  0  0  0
 24 25  1  0  0  0  0
 24 26  1  0  0  0  0
 26 27  1  0  0  0  0
 26 28  1  0  0  0  0
 26 29  1  0  0  0  0
M  END
$$$$

  -OEChem-01062216093D

 29 28  0     1  0  0  0  0  0999 V2000
   -3.7473   -2.9578    0.9949 H   0  0  0  0  0  0  0  0  0  0  0  0
   -3.5954   -2.0048    0.4801 C   0  0  0  0  0  0  0  0  0  0  0  0
   -4.2482   -1.2538    0.9315 H   0  0  0  0  0  0  0  0  0  0  0  0
   -3.8629   -2.1269   -0.5720 H   0  0  0  0  0  0  0  0  0  0  0  0
   -2.1465   -1.5713    0.5999 C   0  0  0  0  0  0  0  0  0  0  0  0
   -1.3823   -2.2449    1.2635 O   0  0  0  0  0  0  0  0  0  0  0  0
   -1.7591   -0.3774    0.0256 N   0  0  0  0  0  0  0  0  0  0  0  0
   -2.5231    0.2006   -0.3162 H   0  0  0  0  0  0  0  0  0  0  0  0
   -0.4220    0.2535    0.0323 C   0  0  1  0  0  0  0  0  0  0  0  0
   -0.0328    0.2485    1.0565 H   0  0  0  0  0  0  0  0  0  0  0  0
    0.6173   -0.4343   -0.9025 C   0  0  0  0  0  0  0  0  0  0  0  0
    0.1973   -0.4712   -1.9125 H   0  0  0  0  0  0  0  0  0  0  0  0
    1.5144    0.1911   -0.9405 H   0  0  0  0  0  0  0  0  0  0  0  0
    1.0661   -1.8585   -0.5531 C   0  0  0  0  0  0  0  0  0  0  0  0
    0.2159   -2.5439   -0.5761 H   0  0  0  0  0  0  0  0  0  0  0  0
    1.7744   -2.2092   -1.3095 H   0  0  0  0  0  0  0  0  0  0  0  0
    1.8836   -1.9222    1.0962 S   0  0  0  0  0  0  0  0  0  0  0  0
    3.4616   -1.0196    0.8352 C   0  0  0  0  0  0  0  0  0  0  0  0
    3.2691    0.0354    0.6223 H   0  0  0  0  0  0  0  0  0  0  0  0
    4.0803   -1.0842    1.7353 H   0  0  0  0  0  0  0  0  0  0  0  0
    4.0150   -1.4562   -0.0013 H   0  0  0  0  0  0  0  0  0  0  0  0
   -0.5795    1.7342   -0.3970 C   0  0  0  0  0  0  0  0  0  0  0  0
   -1.2017    2.4986    0.3272 O   0  0  0  0  0  0  0  0  0  0  0  0
   -0.2105    2.1913   -1.6524 N   0  0  0  0  0  0  0  0  0  0  0  0
    0.2640    1.5386   -2.2683 H   0  0  0  0  0  0  0  0  0  0  0  0
   -0.4243    3.5607   -2.1073 C   0  0  0  0  0  0  0  0  0  0  0  0
    0.1038    4.2667   -1.4576 H   0  0  0  0  0  0  0  0  0  0  0  0
   -0.0490    3.6836   -3.1280 H   0  0  0  0  0  0  0  0  0  0  0  0
   -1.4916    3.8062   -2.1004 H   0  0  0  0  0  0  0  0  0  0  0  0
  1  2  1  0  0  0  0
  2  3  1  0  0  0  0
  2  4  1  0  0  0  0
  2  5  1  0  0  0  0
  5  6  2  0  0  0  0
  5  7  1  0  0  0  0
  7  8  1  0  0  0  0
  7  9  1  0  0  0  0
  9 10  1  0  0  0  0
  9 11  1  0  0  0  0
  9 22  1  0  0  0  0
 11 12  1  0  0  0  0
 11 13  1  0  0  0  0
 11 14  1  0  0  0  0
 14 15  1  0  0  0  0
 14 16  1  0  0  0  0
 14 17  1  0  0  0  0
 17 18  1  0  0  0  0
 18 19  1  0  0  0  0
 18 20  1  0  0  0  0
 18 21  1  0  0  0  0
 22 23  2  0  0  0  0
 22 24  1  0  0  0  0
 24 25  1  0  0  0  0
 24 26  1  0  0  0  0
 26 27  1  0  0  0  0
 26 28  1  0  0  0  0
 26 29  1  0  0  0  0
M  END
$$$$

  -OEChem-01062216093D

 29 28  0     1  0  0  0  0  0999 V2000
   -3.7302   -2.9886    1.0045 H   0  0  0  0  0  0  0  0  0  0  0  0
   -3.5912   -2.0348    0.4874 C   0  0  0  0  0  0  0  0  0  0  0  0
   -4.2610   -1.2943    0.9312 H   0  0  0  0  0  0  0  0  0  0  0  0
   -3.8480   -2.1658   -0.5663 H   0  0  0  0  0  0  0  0  0  0  0  0
   -2.1514   -1.5750    0.6179 C   0  0  0  0  0  0  0  0  0  0  0  0
   -1.3816   -2.2307    1.2924 O   0  0  0  0  0  0  0  0  0  0  0  0
   -1.7767   -0.3807    0.0353 N   0  0  0  0  0  0  0  0  0  0  0  0
   -2.5412    0.1680   -0.3487 H   0  0  0  0  0  0  0  0  0  0  0  0
   -0.4422    0.2563    0.0336 C   0  0  1  0  0  0  0  0  0  0  0  0
   -0.0476    0.2517    1.0560 H   0  0  0  0  0  0  0  0  0  0  0  0
    0.5960   -0.4236   -0.9062 C   0  0  0  0  0  0  0  0  0  0  0  0
    0.1721   -0.4665   -1.9139 H   0  0  0  0  0  0  0  0  0  0  0  0
    1.4862    0.2110   -0.9520 H   0  0  0  0  0  0  0  0  0  0  0  0
    1.0537   -1.8453   -0.5575 C   0  0  0  0  0  0  0  0  0  0  0  0
    0.2063   -2.5344   -0.5739 H   0  0  0  0  0  0  0  0  0  0  0  0
    1.7598   -2.1937   -1.3171 H   0  0  0  0  0  0  0  0  0  0  0  0
    1.8787   -1.9035    1.0881 S   0  0  0  0  0  0  0  0  0  0  0  0
    3.4505   -0.9929    0.8190 C   0  0  0  0  0  0  0  0  0  0  0  0
    3.2514    0.0603    0.6025 H   0  0  0  0  0  0  0  0  0  0  0  0
    4.0718   -1.0502    1.7178 H   0  0  0  0  0  0  0  0  0  0  0  0
    4.0040   -1.4294   -0.0173 H   0  0  0  0  0  0  0  0  0  0  0  0
   -0.5938    1.7340   -0.3987 C   0  0  0  0  0  0  0  0  0  0  0  0
   -0.9258    2.5725    0.4262 O   0  0  0  0  0  0  0  0  0  0  0  0
   -0.5169    2.1194   -1.7273 N   0  0  0  0  0  0  0  0  0  0  0  0
   -0.2659    1.4093   -2.4078 H   0  0  0  0  0  0  0  0  0  0  0  0
   -0.7099    3.4928   -2.1789 C   0  0  0  0  0  0  0  0  0  0  0  0
    0.0269    4.1560   -1.7133 H   0  0  0  0  0  0  0  0  0  0  0  0
   -0.5924    3.5546   -3.2651 H   0  0  0  0  0  0  0  0  0  0  0  0
   -1.7139    3.8452   -1.9197 H   0  0  0  0  0  0  0  0  0  0  0  0
  1  2  1  0  0  0  0
  2  3  1  0  0  0  0
  2  4  1  0  0  0  0
  2  5  1  0  0  0  0
  5  6  2  0  0  0  0
  5  7  1  0  0  0  0
  7  8  1  0  0  0  0
  7  9  1  0  0  0  0
  9 10  1  0  0  0  0
  9 11  1  0  0  0  0
  9 22  1  0  0  0  0
 11 12  1  0  0  0  0
 11 13  1  0  0  0  0
 11 14  1  0  0  0  0
 14 15  1  0  0  0  0
 14 16  1  0  0  0  0
 14 17  1  0  0  0  0
 17 18  1  0  0  0  0
 18 19  1  0  0  0  0
 18 20  1  0  0  0  0
 18 21  1  0  0  0  0
 22 23  2  0  0  0  0
 22 24  1  0  0  0  0
 24 25  1  0  0  0  0
 24 26  1  0  0  0  0
 26 27  1  0  0  0  0
 26 28  1  0  0  0  0
 26 29  1  0  0  0  0
M  END
$$$$

  -OEChem-01062216093D

 29 28  0     1  0  0  0  0  0999 V2000
   -3.7105   -3.0255    1.0049 H   0  0  0  0  0  0  0  0  0  0  0  0
   -3.5847   -2.0684    0.4905 C   0  0  0  0  0  0  0  0  0  0  0  0
   -4.2760   -1.3428    0.9259 H   0  0  0  0  0  0  0  0  0  0  0  0
   -3.8244   -2.2038   -0.5666 H   0  0  0  0  0  0  0  0  0  0  0  0
   -2.1563   -1.5791    0.6409 C   0  0  0  0  0  0  0  0  0  0  0  0
   -1.3826   -2.2155    1.3291 O   0  0  0  0  0  0  0  0  0  0  0  0
   -1.7939   -0.3834    0.0532 N   0  0  0  0  0  0  0  0  0  0  0  0
   -2.5574    0.1388   -0.3671 H   0  0  0  0  0  0  0  0  0  0  0  0
   -0.4623    0.2609    0.0473 C   0  0  1  0  0  0  0  0  0  0  0  0
   -0.0615    0.2538    1.0674 H   0  0  0  0  0  0  0  0  0  0  0  0
    0.5725   -0.4034   -0.9044 C   0  0  0  0  0  0  0  0  0  0  0  0
    0.1465   -0.4380   -1.9113 H   0  0  0  0  0  0  0  0  0  0  0  0
    1.4591    0.2367   -0.9490 H   0  0  0  0  0  0  0  0  0  0  0  0
    1.0372   -1.8252   -0.5665 C   0  0  0  0  0  0  0  0  0  0  0  0
    0.1902   -2.5150   -0.5790 H   0  0  0  0  0  0  0  0  0  0  0  0
    1.7392   -2.1684   -1.3324 H   0  0  0  0  0  0  0  0  0  0  0  0
    1.8711   -1.8911    1.0742 S   0  0  0  0  0  0  0  0  0  0  0  0
    3.4375   -0.9726    0.7999 C   0  0  0  0  0  0  0  0  0  0  0  0
    3.2326    0.0830    0.6010 H   0  0  0  0  0  0  0  0  0  0  0  0
    4.0689   -1.0407    1.6908 H   0  0  0  0  0  0  0  0  0  0  0  0
    3.9830   -1.3952   -0.0488 H   0  0  0  0  0  0  0  0  0  0  0  0
   -0.6131    1.7351   -0.3867 C   0  0  0  0  0  0  0  0  0  0  0  0
   -0.6155    2.6255    0.4499 O   0  0  0  0  0  0  0  0  0  0  0  0
   -0.8428    2.0685   -1.7111 N   0  0  0  0  0  0  0  0  0  0  0  0
   -0.8217    1.3173   -2.3938 H   0  0  0  0  0  0  0  0  0  0  0  0
   -1.0070    3.4417   -2.1738 C   0  0  0  0  0  0  0  0  0  0  0  0
   -0.1175    4.0347   -1.9359 H   0  0  0  0  0  0  0  0  0  0  0  0
   -1.1560    3.4615   -3.2577 H   0  0  0  0  0  0  0  0  0  0  0  0
   -1.8769    3.9051   -1.6966 H   0  0  0  0  0  0  0  0  0  0  0  0
  1  2  1  0  0  0  0
  2  3  1  0  0  0  0
  2  4  1  0  0  0  0
  2  5  1  0  0  0  0
  5  6  2  0  0  0  0
  5  7  1  0  0  0  0
  7  8  1  0  0  0  0
  7  9  1  0  0  0  0
  9 10  1  0  0  0  0
  9 11  1  0  0  0  0
  9 22  1  0  0  0  0
 11 12  1  0  0  0  0
 11 13  1  0  0  0  0
 11 14  1  0  0  0  0
 14 15  1  0  0  0  0
 14 16  1  0  0  0  0
 14 17  1  0  0  0  0
 17 18  1  0  0  0  0
 18 19  1  0  0  0  0
 18 20  1  0  0  0  0
 18 21  1  0  0  0  0
 22 23  2  0  0  0  0
 22 24  1  0  0  0  0
 24 25  1  0  0  0  0
 24 26  1  0  0  0  0
 26 27  1  0  0  0  0
 26 28  1  0  0  0  0
 26 29  1  0  0  0  0
M  END
$$$$

  -OEChem-01062216093D

 29 28  0     1  0  0  0  0  0999 V2000
   -3.7058   -3.0520    1.0232 H   0  0  0  0  0  0  0  0  0  0  0  0
   -3.5871   -2.0958    0.5054 C   0  0  0  0  0  0  0  0  0  0  0  0
   -4.2806   -1.3726    0.9415 H   0  0  0  0  0  0  0  0  0  0  0  0
   -3.8305   -2.2363   -0.5504 H   0  0  0  0  0  0  0  0  0  0  0  0
   -2.1610   -1.5981    0.6487 C   0  0  0  0  0  0  0  0  0  0  0  0
   -1.3790   -2.2313    1.3298 O   0  0  0  0  0  0  0  0  0  0  0  0
   -1.8104   -0.3976    0.0634 N   0  0  0  0  0  0  0  0  0  0  0  0
   -2.5795    0.1206   -0.3511 H   0  0  0  0  0  0  0  0  0  0  0  0
   -0.4836    0.2587    0.0663 C   0  0  1  0  0  0  0  0  0  0  0  0
   -0.0810    0.2447    1.0859 H   0  0  0  0  0  0  0  0  0  0  0  0
    0.5531   -0.3784   -0.8990 C   0  0  0  0  0  0  0  0  0  0  0  0
    0.1265   -0.3921   -1.9062 H   0  0  0  0  0  0  0  0  0  0  0  0
    1.4351    0.2690   -0.9314 H   0  0  0  0  0  0  0  0  0  0  0  0
    1.0287   -1.8025   -0.5866 C   0  0  0  0  0  0  0  0  0  0  0  0
    0.1861   -2.4978   -0.6084 H   0  0  0  0  0  0  0  0  0  0  0  0
    1.7316   -2.1272   -1.3598 H   0  0  0  0  0  0  0  0  0  0  0  0
    1.8661   -1.8908    1.0514 S   0  0  0  0  0  0  0  0  0  0  0  0
    3.4243   -0.9558    0.7878 C   0  0  0  0  0  0  0  0  0  0  0  0
    3.2103    0.1003    0.6010 H   0  0  0  0  0  0  0  0  0  0  0  0
    4.0565   -1.0285    1.6776 H   0  0  0  0  0  0  0  0  0  0  0  0
    3.9725   -1.3639   -0.0661 H   0  0  0  0  0  0  0  0  0  0  0  0
   -0.6369    1.7319   -0.3649 C   0  0  0  0  0  0  0  0  0  0  0  0
   -0.3317    2.6374    0.3964 O   0  0  0  0  0  0  0  0  0  0  0  0
   -1.1584    2.0466   -1.6089 N   0  0  0  0  0  0  0  0  0  0  0  0
   -1.3204    1.2792   -2.2537 H   0  0  0  0  0  0  0  0  0  0  0  0
   -1.2954    3.4160   -2.0919 C   0  0  0  0  0  0  0  0  0  0  0  0
   -0.3195    3.9124   -2.1208 H   0  0  0  0  0  0  0  0  0  0  0  0
   -1.7164    3.4214   -3.1018 H   0  0  0  0  0  0  0  0  0  0  0  0
   -1.9617    3.9883   -1.4377 H   0  0  0  0  0  0  0  0  0  0  0  0
  1  2  1  0  0  0  0
  2  3  1  0  0  0  0
  2  4  1  0  0  0  0
  2  5  1  0  0  0  0
  5  6  2  0  0  0  0
  5  7  1  0  0  0  0
  7  8  1  0  0  0  0
  7  9  1  0  0  0  0
  9 10  1  0  0  0  0
  9 11  1  0  0  0  0
  9 22  1  0  0  0  0
 11 12  1  0  0  0  0
 11 13  1  0  0  0  0
 11 14  1  0  0  0  0
 14 15  1  0  0  0  0
 14 16  1  0  0  0  0
 14 17  1  0  0  0  0
 17 18  1  0  0  0  0
 18 19  1  0  0  0  0
 18 20  1  0  0  0  0
 18 21  1  0  0  0  0
 22 23  2  0  0  0  0
 22 24  1  0  0  0  0
 24 25  1  0  0  0  0
 24 26  1  0  0  0  0
 26 27  1  0  0  0  0
 26 28  1  0  0  0  0
 26 29  1  0  0  0  0
M  END
$$$$

  -OEChem-01062216093D

 29 28  0     1  0  0  0  0  0999 V2000
   -3.6959   -3.0888    1.0331 H   0  0  0  0  0  0  0  0  0  0  0  0
   -3.5879   -2.1298    0.5178 C   0  0  0  0  0  0  0  0  0  0  0  0
   -4.2835   -1.4136    0.9616 H   0  0  0  0  0  0  0  0  0  0  0  0
   -3.8384   -2.2686   -0.5364 H   0  0  0  0  0  0  0  0  0  0  0  0
   -2.1642   -1.6222    0.6519 C   0  0  0  0  0  0  0  0  0  0  0  0
   -1.3732   -2.2532    1.3243 O   0  0  0  0  0  0  0  0  0  0  0  0
   -1.8259   -0.4149    0.0725 N   0  0  0  0  0  0  0  0  0  0  0  0
   -2.6063    0.1108   -0.3094 H   0  0  0  0  0  0  0  0  0  0  0  0
   -0.5050    0.2561    0.0865 C   0  0  1  0  0  0  0  0  0  0  0  0
   -0.1032    0.2345    1.1060 H   0  0  0  0  0  0  0  0  0  0  0  0
    0.5330   -0.3585   -0.8909 C   0  0  0  0  0  0  0  0  0  0  0  0
    0.1029   -0.3551   -1.8972 H   0  0  0  0  0  0  0  0  0  0  0  0
    1.4113    0.2944   -0.9158 H   0  0  0  0  0  0  0  0  0  0  0  0
    1.0193   -1.7838   -0.6009 C   0  0  0  0  0  0  0  0  0  0  0  0
    0.1812   -2.4839   -0.6307 H   0  0  0  0  0  0  0  0  0  0  0  0
    1.7219   -2.0926   -1.3804 H   0  0  0  0  0  0  0  0  0  0  0  0
    1.8617   -1.8900    1.0337 S   0  0  0  0  0  0  0  0  0  0  0  0
    3.4129   -0.9401    0.7792 C   0  0  0  0  0  0  0  0  0  0  0  0
    3.1907    0.1156    0.6002 H   0  0  0  0  0  0  0  0  0  0  0  0
    4.0451   -1.0146    1.6688 H   0  0  0  0  0  0  0  0  0  0  0  0
    3.9651   -1.3370   -0.0774 H   0  0  0  0  0  0  0  0  0  0  0  0
   -0.6560    1.7309   -0.3381 C   0  0  0  0  0  0  0  0  0  0  0  0
   -0.0879    2.6179    0.2812 O   0  0  0  0  0  0  0  0  0  0  0  0
   -1.4376    2.0641   -1.4322 N   0  0  0  0  0  0  0  0  0  0  0  0
   -1.7554    1.2998   -2.0198 H   0  0  0  0  0  0  0  0  0  0  0  0
   -1.5518    3.4284   -1.9352 C   0  0  0  0  0  0  0  0  0  0  0  0
   -0.5739    3.8013   -2.2576 H   0  0  0  0  0  0  0  0  0  0  0  0
   -2.2350    3.4618   -2.7894 H   0  0  0  0  0  0  0  0  0  0  0  0
   -1.9423    4.0927   -1.1568 H   0  0  0  0  0  0  0  0  0  0  0  0
  1  2  1  0  0  0  0
  2  3  1  0  0  0  0
  2  4  1  0  0  0  0
  2  5  1  0  0  0  0
  5  6  2  0  0  0  0
  5  7  1  0  0  0  0
  7  8  1  0  0  0  0
  7  9  1  0  0  0  0
  9 10  1  0  0  0  0
  9 11  1  0  0  0  0
  9 22  1  0  0  0  0
 11 12  1  0  0  0  0
 11 13  1  0  0  0  0
 11 14  1  0  0  0  0
 14 15  1  0  0  0  0
 14 16  1  0  0  0  0
 14 17  1  0  0  0  0
 17 18  1  0  0  0  0
 18 19  1  0  0  0  0
 18 20  1  0  0  0  0
 18 21  1  0  0  0  0
 22 23  2  0  0  0  0
 22 24  1  0  0  0  0
 24 25  1  0  0  0  0
 24 26  1  0  0  0  0
 26 27  1  0  0  0  0
 26 28  1  0  0  0  0
 26 29  1  0  0  0  0
M  END
$$$$

  -OEChem-01062216093D

 29 28  0     1  0  0  0  0  0999 V2000
   -3.6770   -3.1263    1.0410 H   0  0  0  0  0  0  0  0  0  0  0  0
   -3.5783   -2.1679    0.5229 C   0  0  0  0  0  0  0  0  0  0  0  0
   -4.2866   -1.4592    0.9588 H   0  0  0  0  0  0  0  0  0  0  0  0
   -3.8192   -2.3140   -0.5327 H   0  0  0  0  0  0  0  0  0  0  0  0
   -2.1620   -1.6419    0.6652 C   0  0  0  0  0  0  0  0  0  0  0  0
   -1.3677   -2.2592    1.3463 O   0  0  0  0  0  0  0  0  0  0  0  0
   -1.8372   -0.4318    0.0838 N   0  0  0  0  0  0  0  0  0  0  0  0
   -2.6285    0.0927   -0.2738 H   0  0  0  0  0  0  0  0  0  0  0  0
   -0.5222    0.2537    0.1026 C   0  0  1  0  0  0  0  0  0  0  0  0
   -0.1189    0.2307    1.1215 H   0  0  0  0  0  0  0  0  0  0  0  0
    0.5124   -0.3569   -0.8809 C   0  0  0  0  0  0  0  0  0  0  0  0
    0.0765   -0.3502   -1.8846 H   0  0  0  0  0  0  0  0  0  0  0  0
    1.3901    0.2967   -0.9087 H   0  0  0  0  0  0  0  0  0  0  0  0
    1.0068   -1.7809   -0.5985 C   0  0  0  0  0  0  0  0  0  0  0  0
    0.1719   -2.4849   -0.6245 H   0  0  0  0  0  0  0  0  0  0  0  0
    1.7057   -2.0842   -1.3837 H   0  0  0  0  0  0  0  0  0  0  0  0
    1.8599   -1.8876    1.0304 S   0  0  0  0  0  0  0  0  0  0  0  0
    3.4040   -0.9289    0.7651 C   0  0  0  0  0  0  0  0  0  0  0  0
    3.1747    0.1267    0.5933 H   0  0  0  0  0  0  0  0  0  0  0  0
    4.0452   -1.0044    1.6482 H   0  0  0  0  0  0  0  0  0  0  0  0
    3.9500   -1.3185   -0.0989 H   0  0  0  0  0  0  0  0  0  0  0  0
   -0.6609    1.7317   -0.3230 C   0  0  0  0  0  0  0  0  0  0  0  0
    0.1053    2.5751    0.1196 O   0  0  0  0  0  0  0  0  0  0  0  0
   -1.6506    2.1229   -1.2111 N   0  0  0  0  0  0  0  0  0  0  0  0
   -2.1202    1.3852   -1.7248 H   0  0  0  0  0  0  0  0  0  0  0  0
   -1.7673    3.4914   -1.7034 C   0  0  0  0  0  0  0  0  0  0  0  0
   -0.8592    3.7854   -2.2405 H   0  0  0  0  0  0  0  0  0  0  0  0
   -2.6176    3.5771   -2.3867 H   0  0  0  0  0  0  0  0  0  0  0  0
   -1.9243    4.1862   -0.8714 H   0  0  0  0  0  0  0  0  0  0  0  0
  1  2  1  0  0  0  0
  2  3  1  0  0  0  0
  2  4  1  0  0  0  0
  2  5  1  0  0  0  0
  5  6  2  0  0  0  0
  5  7  1  0  0  0  0
  7  8  1  0  0  0  0
  7  9  1  0  0  0  0
  9 10  1  0  0  0  0
  9 11  1  0  0  0  0
  9 22  1  0  0  0  0
 11 12  1  0  0  0  0
 11 13  1  0  0  0  0
 11 14  1  0  0  0  0
 14 15  1  0  0  0  0
 14 16  1  0  0  0  0
 14 17  1  0  0  0  0
 17 18  1  0  0  0  0
 18 19  1  0  0  0  0
 18 20  1  0  0  0  0
 18 21  1  0  0  0  0
 22 23  2  0  0  0  0
 22 24  1  0  0  0  0
 24 25  1  0  0  0  0
 24 26  1  0  0  0  0
 26 27  1  0  0  0  0
 26 28  1  0  0  0  0
 26 29  1  0  0  0  0
M  END
$$$$

  -OEChem-01062216093D

 29 28  0     1  0  0  0  0  0999 V2000
   -3.3977   -3.2752    0.9542 H   0  0  0  0  0  0  0  0  0  0  0  0
   -3.3806   -2.3231    0.4157 C   0  0  0  0  0  0  0  0  0  0  0  0
   -4.2790   -1.7573    0.6737 H   0  0  0  0  0  0  0  0  0  0  0  0
   -3.3807   -2.5287   -0.6573 H   0  0  0  0  0  0  0  0  0  0  0  0
   -2.1432   -1.5323    0.7967 C   0  0  0  0  0  0  0  0  0  0  0  0
   -1.4452   -1.9179    1.7141 O   0  0  0  0  0  0  0  0  0  0  0  0
   -1.8721   -0.3422    0.1513 N   0  0  0  0  0  0  0  0  0  0  0  0
   -2.4734   -0.1756   -0.6476 H   0  0  0  0  0  0  0  0  0  0  0  0
   -0.5455    0.3204    0.1141 C   0  0  1  0  0  0  0  0  0  0  0  0
   -0.1152    0.3229    1.1223 H   0  0  0  0  0  0  0  0  0  0  0  0
    0.4318   -0.3846   -0.8677 C   0  0  0  0  0  0  0  0  0  0  0  0
   -0.0364   -0.4130   -1.8564 H   0  0  0  0  0  0  0  0  0  0  0  0
    1.3359    0.2249   -0.9625 H   0  0  0  0  0  0  0  0  0  0  0  0
    0.8782   -1.8097   -0.5122 C   0  0  0  0  0  0  0  0  0  0  0  0
    0.0163   -2.4793   -0.4649 H   0  0  0  0  0  0  0  0  0  0  0  0
    1.5373   -2.1880   -1.2994 H   0  0  0  0  0  0  0  0  0  0  0  0
    1.7794   -1.8587    1.0921 S   0  0  0  0  0  0  0  0  0  0  0  0
    3.3513   -0.9847    0.7210 C   0  0  0  0  0  0  0  0  0  0  0  0
    3.1590    0.0673    0.4908 H   0  0  0  0  0  0  0  0  0  0  0  0
    4.0178   -1.0328    1.5872 H   0  0  0  0  0  0  0  0  0  0  0  0
    3.8523   -1.4492   -0.1331 H   0  0  0  0  0  0  0  0  0  0  0  0
   -0.6435    1.7952   -0.3483 C   0  0  0  0  0  0  0  0  0  0  0  0
    0.3379    2.5238   -0.2906 O   0  0  0  0  0  0  0  0  0  0  0  0
   -1.7881    2.2816   -0.9597 N   0  0  0  0  0  0  0  0  0  0  0  0
   -2.6371    1.7484   -0.8137 H   0  0  0  0  0  0  0  0  0  0  0  0
   -1.9141    3.6662   -1.4031 C   0  0  0  0  0  0  0  0  0  0  0  0
   -1.1286    3.9116   -2.1259 H   0  0  0  0  0  0  0  0  0  0  0  0
   -2.8837    3.8223   -1.8854 H   0  0  0  0  0  0  0  0  0  0  0  0
   -1.8347    4.3505   -0.5518 H   0  0  0  0  0  0  0  0  0  0  0  0
  1  2  1  0  0  0  0
  2  3  1  0  0  0  0
  2  4  1  0  0  0  0
  2  5  1  0  0  0  0
  5  6  2  0  0  0  0
  5  7  1  0  0  0  0
  7  8  1  0  0  0  0
  7  9  1  0  0  0  0
  9 10  1  0  0  0  0
  9 11  1  0  0  0  0
  9 22  1  0  0  0  0
 11 12  1  0  0  0  0
 11 13  1  0  0  0  0
 11 14  1  0  0  0  0
 14 15  1  0  0  0  0
 14 16  1  0  0  0  0
 14 17  1  0  0  0  0
 17 18  1  0  0  0  0
 18 19  1  0  0  0  0
 18 20  1  0  0  0  0
 18 21  1  0  0  0  0
 22 23  2  0  0  0  0
 22 24  1  0  0  0  0
 24 25  1  0  0  0  0
 24 26  1  0  0  0  0
 26 27  1  0  0  0  0
 26 28  1  0  0  0  0
 26 29  1  0  0  0  0
M  END
$$$$

  -OEChem-01062216093D

 29 28  0     1  0  0  0  0  0999 V2000
   -3.4038   -3.2540    0.9441 H   0  0  0  0  0  0  0  0  0  0  0  0
   -3.3686   -2.3119    0.3891 C   0  0  0  0  0  0  0  0  0  0  0  0
   -4.2715   -1.7384    0.6123 H   0  0  0  0  0  0  0  0  0  0  0  0
   -3.3398   -2.5365   -0.6798 H   0  0  0  0  0  0  0  0  0  0  0  0
   -2.1385   -1.5187    0.7883 C   0  0  0  0  0  0  0  0  0  0  0  0
   -1.4541   -1.8998    1.7179 O   0  0  0  0  0  0  0  0  0  0  0  0
   -1.8592   -0.3283    0.1473 N   0  0  0  0  0  0  0  0  0  0  0  0
   -2.4554   -0.1540   -0.6556 H   0  0  0  0  0  0  0  0  0  0  0  0
   -0.5293    0.3278    0.1097 C   0  0  1  0  0  0  0  0  0  0  0  0
   -0.0979    0.3332    1.1170 H   0  0  0  0  0  0  0  0  0  0  0  0
    0.4428   -0.3917   -0.8692 C   0  0  0  0  0  0  0  0  0  0  0  0
   -0.0252   -0.4203   -1.8579 H   0  0  0  0  0  0  0  0  0  0  0  0
    1.3541    0.2056   -0.9673 H   0  0  0  0  0  0  0  0  0  0  0  0
    0.8774   -1.8184   -0.5048 C   0  0  0  0  0  0  0  0  0  0  0  0
    0.0108   -2.4814   -0.4536 H   0  0  0  0  0  0  0  0  0  0  0  0
    1.5333   -2.2071   -1.2897 H   0  0  0  0  0  0  0  0  0  0  0  0
    1.7790   -1.8636    1.0996 S   0  0  0  0  0  0  0  0  0  0  0  0
    3.3582   -1.0051    0.7215 C   0  0  0  0  0  0  0  0  0  0  0  0
    3.1755    0.0467    0.4834 H   0  0  0  0  0  0  0  0  0  0  0  0
    4.0250   -1.0530    1.5875 H   0  0  0  0  0  0  0  0  0  0  0  0
    3.8545   -1.4803   -0.1296 H   0  0  0  0  0  0  0  0  0  0  0  0
   -0.6456    1.8038   -0.3506 C   0  0  0  0  0  0  0  0  0  0  0  0
    0.3530    2.4875   -0.5336 O   0  0  0  0  0  0  0  0  0  0  0  0
   -1.8808    2.3485   -0.6623 N   0  0  0  0  0  0  0  0  0  0  0  0
   -2.6865    1.8538   -0.2937 H   0  0  0  0  0  0  0  0  0  0  0  0
   -2.0494    3.7436   -1.0549 C   0  0  0  0  0  0  0  0  0  0  0  0
   -1.4596    3.9643   -1.9510 H   0  0  0  0  0  0  0  0  0  0  0  0
   -3.1008    3.9497   -1.2775 H   0  0  0  0  0  0  0  0  0  0  0  0
   -1.7272    4.4110   -0.2485 H   0  0  0  0  0  0  0  0  0  0  0  0
  1  2  1  0  0  0  0
  2  3  1  0  0  0  0
  2  4  1  0  0  0  0
  2  5  1  0  0  0  0
  5  6  2  0  0  0  0
  5  7  1  0  0  0  0
  7  8  1  0  0  0  0
  7  9  1  0  0  0  0
  9 10  1  0  0  0  0
  9 11  1  0  0  0  0
  9 22  1  0  0  0  0
 11 12  1  0  0  0  0
 11 13  1  0  0  0  0
 11 14  1  0  0  0  0
 14 15  1  0  0  0  0
 14 16  1  0  0  0  0
 14 17  1  0  0  0  0
 17 18  1  0  0  0  0
 18 19  1  0  0  0  0
 18 20  1  0  0  0  0
 18 21  1  0  0  0  0
 22 23  2  0  0  0  0
 22 24  1  0  0  0  0
 24 25  1  0  0  0  0
 24 26  1  0  0  0  0
 26 27  1  0  0  0  0
 26 28  1  0  0  0  0
 26 29  1  0  0  0  0
M  END
$$$$

  -OEChem-01062216093D

 29 28  0     1  0  0  0  0  0999 V2000
   -3.4480   -3.2128    0.9470 H   0  0  0  0  0  0  0  0  0  0  0  0
   -3.3837   -2.2823    0.3754 C   0  0  0  0  0  0  0  0  0  0  0  0
   -4.2731   -1.6816    0.5801 H   0  0  0  0  0  0  0  0  0  0  0  0
   -3.3519   -2.5266   -0.6891 H   0  0  0  0  0  0  0  0  0  0  0  0
   -2.1363   -1.5146    0.7700 C   0  0  0  0  0  0  0  0  0  0  0  0
   -1.4504   -1.9144    1.6907 O   0  0  0  0  0  0  0  0  0  0  0  0
   -1.8442   -0.3220    0.1399 N   0  0  0  0  0  0  0  0  0  0  0  0
   -2.4586   -0.1093   -0.6406 H   0  0  0  0  0  0  0  0  0  0  0  0
   -0.5117    0.3278    0.0999 C   0  0  1  0  0  0  0  0  0  0  0  0
   -0.0799    0.3327    1.1068 H   0  0  0  0  0  0  0  0  0  0  0  0
    0.4602   -0.3991   -0.8754 C   0  0  0  0  0  0  0  0  0  0  0  0
   -0.0064   -0.4292   -1.8650 H   0  0  0  0  0  0  0  0  0  0  0  0
    1.3751    0.1925   -0.9735 H   0  0  0  0  0  0  0  0  0  0  0  0
    0.8894   -1.8254   -0.5043 C   0  0  0  0  0  0  0  0  0  0  0  0
    0.0211   -2.4862   -0.4530 H   0  0  0  0  0  0  0  0  0  0  0  0
    1.5464   -2.2182   -1.2862 H   0  0  0  0  0  0  0  0  0  0  0  0
    1.7883   -1.8665    1.1022 S   0  0  0  0  0  0  0  0  0  0  0  0
    3.3724   -1.0153    0.7276 C   0  0  0  0  0  0  0  0  0  0  0  0
    3.1946    0.0334    0.4729 H   0  0  0  0  0  0  0  0  0  0  0  0
    4.0307   -1.0527    1.6006 H   0  0  0  0  0  0  0  0  0  0  0  0
    3.8759   -1.5033   -0.1119 H   0  0  0  0  0  0  0  0  0  0  0  0
   -0.6471    1.8063   -0.3515 C   0  0  0  0  0  0  0  0  0  0  0  0
    0.3078    2.4419   -0.7792 O   0  0  0  0  0  0  0  0  0  0  0  0
   -1.8899    2.4175   -0.3453 N   0  0  0  0  0  0  0  0  0  0  0  0
   -2.6132    1.9435    0.1877 H   0  0  0  0  0  0  0  0  0  0  0  0
   -2.0871    3.8204   -0.6933 C   0  0  0  0  0  0  0  0  0  0  0  0
   -1.7295    4.0174   -1.7096 H   0  0  0  0  0  0  0  0  0  0  0  0
   -3.1502    4.0755   -0.6485 H   0  0  0  0  0  0  0  0  0  0  0  0
   -1.5439    4.4690    0.0022 H   0  0  0  0  0  0  0  0  0  0  0  0
  1  2  1  0  0  0  0
  2  3  1  0  0  0  0
  2  4  1  0  0  0  0
  2  5  1  0  0  0  0
  5  6  2  0  0  0  0
  5  7  1  0  0  0  0
  7  8  1  0  0  0  0
  7  9  1  0  0  0  0
  9 10  1  0  0  0  0
  9 11  1  0  0  0  0
  9 22  1  0  0  0  0
 11 12  1  0  0  0  0
 11 13  1  0  0  0  0
 11 14  1  0  0  0  0
 14 15  1  0  0  0  0
 14 16  1  0  0  0  0
 14 17  1  0  0  0  0
 17 18  1  0  0  0  0
 18 19  1  0  0  0  0
 18 20  1  0  0  0  0
 18 21  1  0  0  0  0
 22 23  2  0  0  0  0
 22 24  1  0  0  0  0
 24 25  1  0  0  0  0
 24 26  1  0  0  0  0
 26 27  1  0  0  0  0
 26 28  1  0  0  0  0
 26 29  1  0  0  0  0
M  END
$$$$

  -OEChem-01062216093D

 29 28  0     1  0  0  0  0  0999 V2000
   -3.4499   -3.2138    0.8847 H   0  0  0  0  0  0  0  0  0  0  0  0
   -3.4095   -2.2478    0.3730 C   0  0  0  0  0  0  0  0  0  0  0  0
   -4.2823   -1.6582    0.6640 H   0  0  0  0  0  0  0  0  0  0  0  0
   -3.4364   -2.4217   -0.7054 H   0  0  0  0  0  0  0  0  0  0  0  0
   -2.1378   -1.5119    0.7503 C   0  0  0  0  0  0  0  0  0  0  0  0
   -1.4471   -1.9318    1.6584 O   0  0  0  0  0  0  0  0  0  0  0  0
   -1.8327   -0.3183    0.1285 N   0  0  0  0  0  0  0  0  0  0  0  0
   -2.4656   -0.0690   -0.6267 H   0  0  0  0  0  0  0  0  0  0  0  0
   -0.4976    0.3246    0.0877 C   0  0  1  0  0  0  0  0  0  0  0  0
   -0.0684    0.3300    1.0953 H   0  0  0  0  0  0  0  0  0  0  0  0
    0.4809   -0.4064   -0.8785 C   0  0  0  0  0  0  0  0  0  0  0  0
    0.0213   -0.4405   -1.8711 H   0  0  0  0  0  0  0  0  0  0  0  0
    1.3961    0.1858   -0.9713 H   0  0  0  0  0  0  0  0  0  0  0  0
    0.9082   -1.8309   -0.4987 C   0  0  0  0  0  0  0  0  0  0  0  0
    0.0396   -2.4912   -0.4506 H   0  0  0  0  0  0  0  0  0  0  0  0
    1.5693   -2.2269   -1.2756 H   0  0  0  0  0  0  0  0  0  0  0  0
    1.7975   -1.8663    1.1137 S   0  0  0  0  0  0  0  0  0  0  0  0
    3.3823   -1.0159    0.7402 C   0  0  0  0  0  0  0  0  0  0  0  0
    3.2070    0.0387    0.5095 H   0  0  0  0  0  0  0  0  0  0  0  0
    4.0499   -1.0754    1.6048 H   0  0  0  0  0  0  0  0  0  0  0  0
    3.8743   -1.4880   -0.1150 H   0  0  0  0  0  0  0  0  0  0  0  0
   -0.6484    1.8036   -0.3572 C   0  0  0  0  0  0  0  0  0  0  0  0
    0.2013    2.3815   -1.0231 O   0  0  0  0  0  0  0  0  0  0  0  0
   -1.8121    2.4865   -0.0481 N   0  0  0  0  0  0  0  0  0  0  0  0
   -2.4349    2.0330    0.6151 H   0  0  0  0  0  0  0  0  0  0  0  0
   -2.0190    3.8971   -0.3564 C   0  0  0  0  0  0  0  0  0  0  0  0
   -1.9310    4.0717   -1.4340 H   0  0  0  0  0  0  0  0  0  0  0  0
   -3.0175    4.2115   -0.0380 H   0  0  0  0  0  0  0  0  0  0  0  0
   -1.2786    4.5157    0.1617 H   0  0  0  0  0  0  0  0  0  0  0  0
  1  2  1  0  0  0  0
  2  3  1  0  0  0  0
  2  4  1  0  0  0  0
  2  5  1  0  0  0  0
  5  6  2  0  0  0  0
  5  7  1  0  0  0  0
  7  8  1  0  0  0  0
  7  9  1  0  0  0  0
  9 10  1  0  0  0  0
  9 11  1  0  0  0  0
  9 22  1  0  0  0  0
 11 12  1  0  0  0  0
 11 13  1  0  0  0  0
 11 14  1  0  0  0  0
 14 15  1  0  0  0  0
 14 16  1  0  0  0  0
 14 17  1  0  0  0  0
 17 18  1  0  0  0  0
 18 19  1  0  0  0  0
 18 20  1  0  0  0  0
 18 21  1  0  0  0  0
 22 23  2  0  0  0  0
 22 24  1  0  0  0  0
 24 25  1  0  0  0  0
 24 26  1  0  0  0  0
 26 27  1  0  0  0  0
 26 28  1  0  0  0  0
 26 29  1  0  0  0  0
M  END
$$$$

  -OEChem-01062216093D

 29 28  0     1  0  0  0  0  0999 V2000
   -3.4824   -3.1779    0.8902 H   0  0  0  0  0  0  0  0  0  0  0  0
   -3.4249   -2.2166    0.3717 C   0  0  0  0  0  0  0  0  0  0  0  0
   -4.2841   -1.6076    0.6622 H   0  0  0  0  0  0  0  0  0  0  0  0
   -3.4599   -2.3973   -0.7051 H   0  0  0  0  0  0  0  0  0  0  0  0
   -2.1367   -1.5046    0.7387 C   0  0  0  0  0  0  0  0  0  0  0  0
   -1.4419   -1.9445    1.6344 O   0  0  0  0  0  0  0  0  0  0  0  0
   -1.8208   -0.3087    0.1274 N   0  0  0  0  0  0  0  0  0  0  0  0
   -2.4633   -0.0311   -0.6099 H   0  0  0  0  0  0  0  0  0  0  0  0
   -0.4830    0.3247    0.0889 C   0  0  1  0  0  0  0  0  0  0  0  0
   -0.0517    0.3235    1.0958 H   0  0  0  0  0  0  0  0  0  0  0  0
    0.4961   -0.4011   -0.8794 C   0  0  0  0  0  0  0  0  0  0  0  0
    0.0386   -0.4293   -1.8734 H   0  0  0  0  0  0  0  0  0  0  0  0
    1.4103    0.1943   -0.9657 H   0  0  0  0  0  0  0  0  0  0  0  0
    0.9186   -1.8291   -0.5078 C   0  0  0  0  0  0  0  0  0  0  0  0
    0.0471   -2.4862   -0.4660 H   0  0  0  0  0  0  0  0  0  0  0  0
    1.5799   -2.2230   -1.2856 H   0  0  0  0  0  0  0  0  0  0  0  0
    1.8028   -1.8776    1.1071 S   0  0  0  0  0  0  0  0  0  0  0  0
    3.3916   -1.0295    0.7475 C   0  0  0  0  0  0  0  0  0  0  0  0
    3.2191    0.0239    0.5097 H   0  0  0  0  0  0  0  0  0  0  0  0
    4.0487   -1.0845    1.6203 H   0  0  0  0  0  0  0  0  0  0  0  0
    3.8934   -1.5064   -0.0993 H   0  0  0  0  0  0  0  0  0  0  0  0
   -0.6427    1.8045   -0.3445 C   0  0  0  0  0  0  0  0  0  0  0  0
    0.0377    2.3180   -1.2239 O   0  0  0  0  0  0  0  0  0  0  0  0
   -1.6460    2.5605    0.2347 N   0  0  0  0  0  0  0  0  0  0  0  0
   -2.1506    2.1324    1.0067 H   0  0  0  0  0  0  0  0  0  0  0  0
   -1.8682    3.9707   -0.0629 C   0  0  0  0  0  0  0  0  0  0  0  0
   -2.0712    4.1108   -1.1300 H   0  0  0  0  0  0  0  0  0  0  0  0
   -2.7263    4.3463    0.5029 H   0  0  0  0  0  0  0  0  0  0  0  0
   -0.9878    4.5628    0.2086 H   0  0  0  0  0  0  0  0  0  0  0  0
  1  2  1  0  0  0  0
  2  3  1  0  0  0  0
  2  4  1  0  0  0  0
  2  5  1  0  0  0  0
  5  6  2  0  0  0  0
  5  7  1  0  0  0  0
  7  8  1  0  0  0  0
  7  9  1  0  0  0  0
  9 10  1  0  0  0  0
  9 11  1  0  0  0  0
  9 22  1  0  0  0  0
 11 12  1  0  0  0  0
 11 13  1  0  0  0  0
 11 14  1  0  0  0  0
 14 15  1  0  0  0  0
 14 16  1  0  0  0  0
 14 17  1  0  0  0  0
 17 18  1  0  0  0  0
 18 19  1  0  0  0  0
 18 20  1  0  0  0  0
 18 21  1  0  0  0  0
 22 23  2  0  0  0  0
 22 24  1  0  0  0  0
 24 25  1  0  0  0  0
 24 26  1  0  0  0  0
 26 27  1  0  0  0  0
 26 28  1  0  0  0  0
 26 29  1  0  0  0  0
M  END
$$$$

  -OEChem-01062216093D

 29 28  0     1  0  0  0  0  0999 V2000
   -3.5011   -3.1592    0.8945 H   0  0  0  0  0  0  0  0  0  0  0  0
   -3.4281   -2.2051    0.3647 C   0  0  0  0  0  0  0  0  0  0  0  0
   -4.2857   -1.5853    0.6364 H   0  0  0  0  0  0  0  0  0  0  0  0
   -3.4512   -2.3995   -0.7102 H   0  0  0  0  0  0  0  0  0  0  0  0
   -2.1382   -1.4987    0.7381 C   0  0  0  0  0  0  0  0  0  0  0  0
   -1.4437   -1.9466    1.6306 O   0  0  0  0  0  0  0  0  0  0  0  0
   -1.8166   -0.3004    0.1350 N   0  0  0  0  0  0  0  0  0  0  0  0
   -2.4612   -0.0083   -0.5948 H   0  0  0  0  0  0  0  0  0  0  0  0
   -0.4767    0.3250    0.0994 C   0  0  1  0  0  0  0  0  0  0  0  0
   -0.0434    0.3121    1.1054 H   0  0  0  0  0  0  0  0  0  0  0  0
    0.5011   -0.3936   -0.8740 C   0  0  0  0  0  0  0  0  0  0  0  0
    0.0416   -0.4170   -1.8675 H   0  0  0  0  0  0  0  0  0  0  0  0
    1.4125    0.2062   -0.9582 H   0  0  0  0  0  0  0  0  0  0  0  0
    0.9201   -1.8254   -0.5149 C   0  0  0  0  0  0  0  0  0  0  0  0
    0.0466   -2.4808   -0.4805 H   0  0  0  0  0  0  0  0  0  0  0  0
    1.5820   -2.2131   -1.2953 H   0  0  0  0  0  0  0  0  0  0  0  0
    1.8028   -1.8884    1.1006 S   0  0  0  0  0  0  0  0  0  0  0  0
    3.3934   -1.0401    0.7490 C   0  0  0  0  0  0  0  0  0  0  0  0
    3.2229    0.0145    0.5152 H   0  0  0  0  0  0  0  0  0  0  0  0
    4.0482   -1.0997    1.6233 H   0  0  0  0  0  0  0  0  0  0  0  0
    3.8971   -1.5138   -0.0986 H   0  0  0  0  0  0  0  0  0  0  0  0
   -0.6308    1.8062   -0.3226 C   0  0  0  0  0  0  0  0  0  0  0  0
   -0.1700    2.2487   -1.3678 O   0  0  0  0  0  0  0  0  0  0  0  0
   -1.3996    2.6422    0.4657 N   0  0  0  0  0  0  0  0  0  0  0  0
   -1.7698    2.2511    1.3282 H   0  0  0  0  0  0  0  0  0  0  0  0
   -1.6315    4.0497    0.1650 C   0  0  0  0  0  0  0  0  0  0  0  0
   -2.1251    4.1583   -0.8065 H   0  0  0  0  0  0  0  0  0  0  0  0
   -2.2721    4.4993    0.9297 H   0  0  0  0  0  0  0  0  0  0  0  0
   -0.6835    4.5974    0.1420 H   0  0  0  0  0  0  0  0  0  0  0  0
  1  2  1  0  0  0  0
  2  3  1  0  0  0  0
  2  4  1  0  0  0  0
  2  5  1  0  0  0  0
  5  6  2  0  0  0  0
  5  7  1  0  0  0  0
  7  8  1  0  0  0  0
  7  9  1  0  0  0  0
  9 10  1  0  0  0  0
  9 11  1  0  0  0  0
  9 22  1  0  0  0  0
 11 12  1  0  0  0  0
 11 13  1  0  0  0  0
 11 14  1  0  0  0  0
 14 15  1  0  0  0  0
 14 16  1  0  0  0  0
 14 17  1  0  0  0  0
 17 18  1  0  0  0  0
 18 19  1  0  0  0  0
 18 20  1  0  0  0  0
 18 21  1  0  0  0  0
 22 23  2  0  0  0  0
 22 24  1  0  0  0  0
 24 25  1  0  0  0  0
 24 26  1  0  0  0  0
 26 27  1  0  0  0  0
 26 28  1  0  0  0  0
 26 29  1  0  0  0  0
M  END
$$$$

  -OEChem-01062216093D

 29 28  0     1  0  0  0  0  0999 V2000
   -3.5232   -3.1379    0.9001 H   0  0  0  0  0  0  0  0  0  0  0  0
   -3.4349   -2.1894    0.3624 C   0  0  0  0  0  0  0  0  0  0  0  0
   -4.2857   -1.5559    0.6239 H   0  0  0  0  0  0  0  0  0  0  0  0
   -3.4545   -2.3916   -0.7111 H   0  0  0  0  0  0  0  0  0  0  0  0
   -2.1379   -1.4973    0.7363 C   0  0  0  0  0  0  0  0  0  0  0  0
   -1.4411   -1.9590    1.6202 O   0  0  0  0  0  0  0  0  0  0  0  0
   -1.8101   -0.2975    0.1403 N   0  0  0  0  0  0  0  0  0  0  0  0
   -2.4545    0.0063   -0.5853 H   0  0  0  0  0  0  0  0  0  0  0  0
   -0.4699    0.3237    0.1104 C   0  0  1  0  0  0  0  0  0  0  0  0
   -0.0369    0.2999    1.1159 H   0  0  0  0  0  0  0  0  0  0  0  0
    0.5079   -0.3852   -0.8690 C   0  0  0  0  0  0  0  0  0  0  0  0
    0.0476   -0.4033   -1.8623 H   0  0  0  0  0  0  0  0  0  0  0  0
    1.4163    0.2192   -0.9497 H   0  0  0  0  0  0  0  0  0  0  0  0
    0.9248   -1.8208   -0.5227 C   0  0  0  0  0  0  0  0  0  0  0  0
    0.0498   -2.4747   -0.4942 H   0  0  0  0  0  0  0  0  0  0  0  0
    1.5857   -2.2029   -1.3065 H   0  0  0  0  0  0  0  0  0  0  0  0
    1.8056   -1.9021    1.0929 S   0  0  0  0  0  0  0  0  0  0  0  0
    3.3979   -1.0535    0.7515 C   0  0  0  0  0  0  0  0  0  0  0  0
    3.2285    0.0004    0.5137 H   0  0  0  0  0  0  0  0  0  0  0  0
    4.0460   -1.1109    1.6310 H   0  0  0  0  0  0  0  0  0  0  0  0
    3.9081   -1.5295   -0.0911 H   0  0  0  0  0  0  0  0  0  0  0  0
   -0.6161    1.8059   -0.3044 C   0  0  0  0  0  0  0  0  0  0  0  0
   -0.4117    2.1850   -1.4513 O   0  0  0  0  0  0  0  0  0  0  0  0
   -1.1041    2.7127    0.6176 N   0  0  0  0  0  0  0  0  0  0  0  0
   -1.3178    2.3602    1.5470 H   0  0  0  0  0  0  0  0  0  0  0  0
   -1.3434    4.1194    0.3184 C   0  0  0  0  0  0  0  0  0  0  0  0
   -2.0903    4.2212   -0.4760 H   0  0  0  0  0  0  0  0  0  0  0  0
   -1.7126    4.6379    1.2085 H   0  0  0  0  0  0  0  0  0  0  0  0
   -0.4166    4.6054   -0.0047 H   0  0  0  0  0  0  0  0  0  0  0  0
  1  2  1  0  0  0  0
  2  3  1  0  0  0  0
  2  4  1  0  0  0  0
  2  5  1  0  0  0  0
  5  6  2  0  0  0  0
  5  7  1  0  0  0  0
  7  8  1  0  0  0  0
  7  9  1  0  0  0  0
  9 10  1  0  0  0  0
  9 11  1  0  0  0  0
  9 22  1  0  0  0  0
 11 12  1  0  0  0  0
 11 13  1  0  0  0  0
 11 14  1  0  0  0  0
 14 15  1  0  0  0  0
 14 16  1  0  0  0  0
 14 17  1  0  0  0  0
 17 18  1  0  0  0  0
 18 19  1  0  0  0  0
 18 20  1  0  0  0  0
 18 21  1  0  0  0  0
 22 23  2  0  0  0  0
 22 24  1  0  0  0  0
 24 25  1  0  0  0  0
 24 26  1  0  0  0  0
 26 27  1  0  0  0  0
 26 28  1  0  0  0  0
 26 29  1  0  0  0  0
M  END
$$$$

  -OEChem-01062216093D

 29 28  0     1  0  0  0  0  0999 V2000
   -3.5275   -3.1351    0.8810 H   0  0  0  0  0  0  0  0  0  0  0  0
   -3.4408   -2.1762    0.3621 C   0  0  0  0  0  0  0  0  0  0  0  0
   -4.2867   -1.5446    0.6436 H   0  0  0  0  0  0  0  0  0  0  0  0
   -3.4709   -2.3570   -0.7150 H   0  0  0  0  0  0  0  0  0  0  0  0
   -2.1389   -1.4950    0.7389 C   0  0  0  0  0  0  0  0  0  0  0  0
   -1.4424   -1.9684    1.6173 O   0  0  0  0  0  0  0  0  0  0  0  0
   -1.8021   -0.2965    0.1460 N   0  0  0  0  0  0  0  0  0  0  0  0
   -2.4418    0.0164   -0.5807 H   0  0  0  0  0  0  0  0  0  0  0  0
   -0.4619    0.3218    0.1250 C   0  0  1  0  0  0  0  0  0  0  0  0
   -0.0316    0.2890    1.1315 H   0  0  0  0  0  0  0  0  0  0  0  0
    0.5152   -0.3775   -0.8603 C   0  0  0  0  0  0  0  0  0  0  0  0
    0.0547   -0.3865   -1.8537 H   0  0  0  0  0  0  0  0  0  0  0  0
    1.4235    0.2277   -0.9356 H   0  0  0  0  0  0  0  0  0  0  0  0
    0.9279   -1.8176   -0.5282 C   0  0  0  0  0  0  0  0  0  0  0  0
    0.0501   -2.4680   -0.5052 H   0  0  0  0  0  0  0  0  0  0  0  0
    1.5874   -2.1953   -1.3156 H   0  0  0  0  0  0  0  0  0  0  0  0
    1.8064   -1.9164    1.0877 S   0  0  0  0  0  0  0  0  0  0  0  0
    3.4005   -1.0675    0.7536 C   0  0  0  0  0  0  0  0  0  0  0  0
    3.2355   -0.0058    0.5506 H   0  0  0  0  0  0  0  0  0  0  0  0
    4.0589   -1.1564    1.6227 H   0  0  0  0  0  0  0  0  0  0  0  0
    3.8974   -1.5202   -0.1094 H   0  0  0  0  0  0  0  0  0  0  0  0
   -0.5984    1.8027   -0.2904 C   0  0  0  0  0  0  0  0  0  0  0  0
   -0.6681    2.1282   -1.4696 O   0  0  0  0  0  0  0  0  0  0  0  0
   -0.7835    2.7686    0.6809 N   0  0  0  0  0  0  0  0  0  0  0  0
   -0.8108    2.4578    1.6486 H   0  0  0  0  0  0  0  0  0  0  0  0
   -1.0223    4.1753    0.3808 C   0  0  0  0  0  0  0  0  0  0  0  0
   -1.9453    4.2930   -0.1966 H   0  0  0  0  0  0  0  0  0  0  0  0
   -1.1182    4.7495    1.3074 H   0  0  0  0  0  0  0  0  0  0  0  0
   -0.1901    4.5901   -0.1978 H   0  0  0  0  0  0  0  0  0  0  0  0
  1  2  1  0  0  0  0
  2  3  1  0  0  0  0
  2  4  1  0  0  0  0
  2  5  1  0  0  0  0
  5  6  2  0  0  0  0
  5  7  1  0  0  0  0
  7  8  1  0  0  0  0
  7  9  1  0  0  0  0
  9 10  1  0  0  0  0
  9 11  1  0  0  0  0
  9 22  1  0  0  0  0
 11 12  1  0  0  0  0
 11 13  1  0  0  0  0
 11 14  1  0  0  0  0
 14 15  1  0  0  0  0
 14 16  1  0  0  0  0
 14 17  1  0  0  0  0
 17 18  1  0  0  0  0
 18 19  1  0  0  0  0
 18 20  1  0  0  0  0
 18 21  1  0  0  0  0
 22 23  2  0  0  0  0
 22 24  1  0  0  0  0
 24 25  1  0  0  0  0
 24 26  1  0  0  0  0
 26 27  1  0  0  0  0
 26 28  1  0  0  0  0
 26 29  1  0  0  0  0
M  END
$$$$

  -OEChem-01062216093D

 29 28  0     1  0  0  0  0  0999 V2000
   -3.5660   -3.1018    0.9068 H   0  0  0  0  0  0  0  0  0  0  0  0
   -3.4558   -2.1560    0.3686 C   0  0  0  0  0  0  0  0  0  0  0  0
   -4.2885   -1.5002    0.6336 H   0  0  0  0  0  0  0  0  0  0  0  0
   -3.4857   -2.3575   -0.7048 H   0  0  0  0  0  0  0  0  0  0  0  0
   -2.1401   -1.4965    0.7355 C   0  0  0  0  0  0  0  0  0  0  0  0
   -1.4387   -1.9883    1.6001 O   0  0  0  0  0  0  0  0  0  0  0  0
   -1.7921   -0.3009    0.1437 N   0  0  0  0  0  0  0  0  0  0  0  0
   -2.4383    0.0374   -0.5664 H   0  0  0  0  0  0  0  0  0  0  0  0
   -0.4522    0.3153    0.1289 C   0  0  1  0  0  0  0  0  0  0  0  0
   -0.0265    0.2776    1.1368 H   0  0  0  0  0  0  0  0  0  0  0  0
    0.5268   -0.3712   -0.8607 C   0  0  0  0  0  0  0  0  0  0  0  0
    0.0693   -0.3698   -1.8556 H   0  0  0  0  0  0  0  0  0  0  0  0
    1.4354    0.2343   -0.9271 H   0  0  0  0  0  0  0  0  0  0  0  0
    0.9368   -1.8140   -0.5385 C   0  0  0  0  0  0  0  0  0  0  0  0
    0.0576   -2.4628   -0.5230 H   0  0  0  0  0  0  0  0  0  0  0  0
    1.5980   -2.1874   -1.3264 H   0  0  0  0  0  0  0  0  0  0  0  0
    1.8093   -1.9253    1.0801 S   0  0  0  0  0  0  0  0  0  0  0  0
    3.4057   -1.0757    0.7603 C   0  0  0  0  0  0  0  0  0  0  0  0
    3.2417   -0.0149    0.5518 H   0  0  0  0  0  0  0  0  0  0  0  0
    4.0547   -1.1612    1.6369 H   0  0  0  0  0  0  0  0  0  0  0  0
    3.9121   -1.5309   -0.0960 H   0  0  0  0  0  0  0  0  0  0  0  0
   -0.5830    1.7935   -0.2909 C   0  0  0  0  0  0  0  0  0  0  0  0
   -0.9182    2.0876   -1.4324 O   0  0  0  0  0  0  0  0  0  0  0  0
   -0.4605    2.7944    0.6545 N   0  0  0  0  0  0  0  0  0  0  0  0
   -0.2843    2.5105    1.6145 H   0  0  0  0  0  0  0  0  0  0  0  0
   -0.6931    4.2044    0.3658 C   0  0  0  0  0  0  0  0  0  0  0  0
   -1.7322    4.3668    0.0605 H   0  0  0  0  0  0  0  0  0  0  0  0
   -0.4945    4.8101    1.2553 H   0  0  0  0  0  0  0  0  0  0  0  0
   -0.0319    4.5457   -0.4379 H   0  0  0  0  0  0  0  0  0  0  0  0
  1  2  1  0  0  0  0
  2  3  1  0  0  0  0
  2  4  1  0  0  0  0
  2  5  1  0  0  0  0
  5  6  2  0  0  0  0
  5  7  1  0  0  0  0
  7  8  1  0  0  0  0
  7  9  1  0  0  0  0
  9 10  1  0  0  0  0
  9 11  1  0  0  0  0
  9 22  1  0  0  0  0
 11 12  1  0  0  0  0
 11 13  1  0  0  0  0
 11 14  1  0  0  0  0
 14 15  1  0  0  0  0
 14 16  1  0  0  0  0
 14 17  1  0  0  0  0
 17 18  1  0  0  0  0
 18 19  1  0  0  0  0
 18 20  1  0  0  0  0
 18 21  1  0  0  0  0
 22 23  2  0  0  0  0
 22 24  1  0  0  0  0
 24 25  1  0  0  0  0
 24 26  1  0  0  0  0
 26 27  1  0  0  0  0
 26 28  1  0  0  0  0
 26 29  1  0  0  0  0
M  END
$$$$

  -OEChem-01062216093D

 29 28  0     1  0  0  0  0  0999 V2000
   -3.5832   -3.1056    0.8906 H   0  0  0  0  0  0  0  0  0  0  0  0
   -3.4833   -2.1394    0.3880 C   0  0  0  0  0  0  0  0  0  0  0  0
   -4.2941   -1.4850    0.7168 H   0  0  0  0  0  0  0  0  0  0  0  0
   -3.5633   -2.2950   -0.6905 H   0  0  0  0  0  0  0  0  0  0  0  0
   -2.1441   -1.5115    0.7249 C   0  0  0  0  0  0  0  0  0  0  0  0
   -1.4326   -2.0258    1.5680 O   0  0  0  0  0  0  0  0  0  0  0  0
   -1.7871   -0.3176    0.1356 N   0  0  0  0  0  0  0  0  0  0  0  0
   -2.4437    0.0495   -0.5510 H   0  0  0  0  0  0  0  0  0  0  0  0
   -0.4505    0.3052    0.1302 C   0  0  1  0  0  0  0  0  0  0  0  0
   -0.0329    0.2676    1.1415 H   0  0  0  0  0  0  0  0  0  0  0  0
    0.5354   -0.3678   -0.8599 C   0  0  0  0  0  0  0  0  0  0  0  0
    0.0813   -0.3597   -1.8564 H   0  0  0  0  0  0  0  0  0  0  0  0
    1.4417    0.2420   -0.9175 H   0  0  0  0  0  0  0  0  0  0  0  0
    0.9520   -1.8106   -0.5469 C   0  0  0  0  0  0  0  0  0  0  0  0
    0.0756   -2.4634   -0.5386 H   0  0  0  0  0  0  0  0  0  0  0  0
    1.6179   -2.1753   -1.3351 H   0  0  0  0  0  0  0  0  0  0  0  0
    1.8191   -1.9280    1.0742 S   0  0  0  0  0  0  0  0  0  0  0  0
    3.4125   -1.0672    0.7673 C   0  0  0  0  0  0  0  0  0  0  0  0
    3.2445   -0.0030    0.5812 H   0  0  0  0  0  0  0  0  0  0  0  0
    4.0644   -1.1685    1.6400 H   0  0  0  0  0  0  0  0  0  0  0  0
    3.9186   -1.5029   -0.0992 H   0  0  0  0  0  0  0  0  0  0  0  0
   -0.5808    1.7808   -0.2957 C   0  0  0  0  0  0  0  0  0  0  0  0
   -1.1358    2.0669   -1.3506 O   0  0  0  0  0  0  0  0  0  0  0  0
   -0.1725    2.7933    0.5526 N   0  0  0  0  0  0  0  0  0  0  0  0
    0.2032    2.5240    1.4578 H   0  0  0  0  0  0  0  0  0  0  0  0
   -0.3573    4.2089    0.2568 C   0  0  0  0  0  0  0  0  0  0  0  0
   -1.4213    4.4406    0.1403 H   0  0  0  0  0  0  0  0  0  0  0  0
    0.0426    4.8215    1.0706 H   0  0  0  0  0  0  0  0  0  0  0  0
    0.1655    4.4784   -0.6669 H   0  0  0  0  0  0  0  0  0  0  0  0
  1  2  1  0  0  0  0
  2  3  1  0  0  0  0
  2  4  1  0  0  0  0
  2  5  1  0  0  0  0
  5  6  2  0  0  0  0
  5  7  1  0  0  0  0
  7  8  1  0  0  0  0
  7  9  1  0  0  0  0
  9 10  1  0  0  0  0
  9 11  1  0  0  0  0
  9 22  1  0  0  0  0
 11 12  1  0  0  0  0
 11 13  1  0  0  0  0
 11 14  1  0  0  0  0
 14 15  1  0  0  0  0
 14 16  1  0  0  0  0
 14 17  1  0  0  0  0
 17 18  1  0  0  0  0
 18 19  1  0  0  0  0
 18 20  1  0  0  0  0
 18 21  1  0  0  0  0
 22 23  2  0  0  0  0
 22 24  1  0  0  0  0
 24 25  1  0  0  0  0
 24 26  1  0  0  0  0
 26 27  1  0  0  0  0
 26 28  1  0  0  0  0
 26 29  1  0  0  0  0
M  END
$$$$

  -OEChem-01062216093D

 29 28  0     1  0  0  0  0  0999 V2000
   -3.6131   -3.0924    0.9044 H   0  0  0  0  0  0  0  0  0  0  0  0
   -3.5040   -2.1277    0.4010 C   0  0  0  0  0  0  0  0  0  0  0  0
   -4.2973   -1.4590    0.7436 H   0  0  0  0  0  0  0  0  0  0  0  0
   -3.6043   -2.2804   -0.6762 H   0  0  0  0  0  0  0  0  0  0  0  0
   -2.1483   -1.5246    0.7161 C   0  0  0  0  0  0  0  0  0  0  0  0
   -1.4272   -2.0601    1.5376 O   0  0  0  0  0  0  0  0  0  0  0  0
   -1.7844   -0.3326    0.1274 N   0  0  0  0  0  0  0  0  0  0  0  0
   -2.4581    0.0687   -0.5234 H   0  0  0  0  0  0  0  0  0  0  0  0
   -0.4515    0.2981    0.1271 C   0  0  1  0  0  0  0  0  0  0  0  0
   -0.0399    0.2649    1.1410 H   0  0  0  0  0  0  0  0  0  0  0  0
    0.5402   -0.3658   -0.8622 C   0  0  0  0  0  0  0  0  0  0  0  0
    0.0866   -0.3566   -1.8591 H   0  0  0  0  0  0  0  0  0  0  0  0
    1.4438    0.2485   -0.9172 H   0  0  0  0  0  0  0  0  0  0  0  0
    0.9642   -1.8068   -0.5522 C   0  0  0  0  0  0  0  0  0  0  0  0
    0.0912   -2.4642   -0.5478 H   0  0  0  0  0  0  0  0  0  0  0  0
    1.6341   -2.1661   -1.3392 H   0  0  0  0  0  0  0  0  0  0  0  0
    1.8278   -1.9228    1.0710 S   0  0  0  0  0  0  0  0  0  0  0  0
    3.4176   -1.0526    0.7731 C   0  0  0  0  0  0  0  0  0  0  0  0
    3.2446    0.0098    0.5819 H   0  0  0  0  0  0  0  0  0  0  0  0
    4.0635   -1.1468    1.6511 H   0  0  0  0  0  0  0  0  0  0  0  0
    3.9328   -1.4886   -0.0879 H   0  0  0  0  0  0  0  0  0  0  0  0
   -0.5821    1.7716   -0.3057 C   0  0  0  0  0  0  0  0  0  0  0  0
   -1.3247    2.0735   -1.2338 O   0  0  0  0  0  0  0  0  0  0  0  0
    0.0855    2.7662    0.3846 N   0  0  0  0  0  0  0  0  0  0  0  0
    0.6359    2.4885    1.1926 H   0  0  0  0  0  0  0  0  0  0  0  0
   -0.0522    4.1845    0.0769 C   0  0  0  0  0  0  0  0  0  0  0  0
   -1.0934    4.5030    0.1942 H   0  0  0  0  0  0  0  0  0  0  0  0
    0.5695    4.7803    0.7520 H   0  0  0  0  0  0  0  0  0  0  0  0
    0.2649    4.3859   -0.9517 H   0  0  0  0  0  0  0  0  0  0  0  0
  1  2  1  0  0  0  0
  2  3  1  0  0  0  0
  2  4  1  0  0  0  0
  2  5  1  0  0  0  0
  5  6  2  0  0  0  0
  5  7  1  0  0  0  0
  7  8  1  0  0  0  0
  7  9  1  0  0  0  0
  9 10  1  0  0  0  0
  9 11  1  0  0  0  0
  9 22  1  0  0  0  0
 11 12  1  0  0  0  0
 11 13  1  0  0  0  0
 11 14  1  0  0  0  0
 14 15  1  0  0  0  0
 14 16  1  0  0  0  0
 14 17  1  0  0  0  0
 17 18  1  0  0  0  0
 18 19  1  0  0  0  0
 18 20  1  0  0  0  0
 18 21  1  0  0  0  0
 22 23  2  0  0  0  0
 22 24  1  0  0  0  0
 24 25  1  0  0  0  0
 24 26  1  0  0  0  0
 26 27  1  0  0  0  0
 26 28  1  0  0  0  0
 26 29  1  0  0  0  0
M  END
$$$$

  -OEChem-01062216093D

 29 28  0     1  0  0  0  0  0999 V2000
   -3.6310   -3.0891    0.9015 H   0  0  0  0  0  0  0  0  0  0  0  0
   -3.5230   -2.1142    0.4179 C   0  0  0  0  0  0  0  0  0  0  0  0
   -4.2929   -1.4416    0.8033 H   0  0  0  0  0  0  0  0  0  0  0  0
   -3.6620   -2.2383   -0.6585 H   0  0  0  0  0  0  0  0  0  0  0  0
   -2.1478   -1.5405    0.7010 C   0  0  0  0  0  0  0  0  0  0  0  0
   -1.4165   -2.0973    1.4989 O   0  0  0  0  0  0  0  0  0  0  0  0
   -1.7796   -0.3485    0.1150 N   0  0  0  0  0  0  0  0  0  0  0  0
   -2.4701    0.0861   -0.4964 H   0  0  0  0  0  0  0  0  0  0  0  0
   -0.4514    0.2925    0.1241 C   0  0  1  0  0  0  0  0  0  0  0  0
   -0.0453    0.2634    1.1403 H   0  0  0  0  0  0  0  0  0  0  0  0
    0.5457   -0.3653   -0.8648 C   0  0  0  0  0  0  0  0  0  0  0  0
    0.0929   -0.3550   -1.8618 H   0  0  0  0  0  0  0  0  0  0  0  0
    1.4474    0.2517   -0.9179 H   0  0  0  0  0  0  0  0  0  0  0  0
    0.9759   -1.8053   -0.5578 C   0  0  0  0  0  0  0  0  0  0  0  0
    0.1067   -2.4680   -0.5574 H   0  0  0  0  0  0  0  0  0  0  0  0
    1.6493   -2.1596   -1.3442 H   0  0  0  0  0  0  0  0  0  0  0  0
    1.8365   -1.9179    1.0673 S   0  0  0  0  0  0  0  0  0  0  0  0
    3.4228   -1.0392    0.7762 C   0  0  0  0  0  0  0  0  0  0  0  0
    3.2448    0.0185    0.5645 H   0  0  0  0  0  0  0  0  0  0  0  0
    4.0578   -1.1134    1.6640 H   0  0  0  0  0  0  0  0  0  0  0  0
    3.9522   -1.4860   -0.0703 H   0  0  0  0  0  0  0  0  0  0  0  0
   -0.5848    1.7657   -0.3138 C   0  0  0  0  0  0  0  0  0  0  0  0
   -1.4754    2.0994   -1.0889 O   0  0  0  0  0  0  0  0  0  0  0  0
    0.2921    2.7209    0.1665 N   0  0  0  0  0  0  0  0  0  0  0  0
    0.9770    2.4247    0.8564 H   0  0  0  0  0  0  0  0  0  0  0  0
    0.1966    4.1358   -0.1717 C   0  0  0  0  0  0  0  0  0  0  0  0
   -0.7716    4.5404    0.1420 H   0  0  0  0  0  0  0  0  0  0  0  0
    0.9869    4.7002    0.3328 H   0  0  0  0  0  0  0  0  0  0  0  0
    0.3054    4.2795   -1.2520 H   0  0  0  0  0  0  0  0  0  0  0  0
  1  2  1  0  0  0  0
  2  3  1  0  0  0  0
  2  4  1  0  0  0  0
  2  5  1  0  0  0  0
  5  6  2  0  0  0  0
  5  7  1  0  0  0  0
  7  8  1  0  0  0  0
  7  9  1  0  0  0  0
  9 10  1  0  0  0  0
  9 11  1  0  0  0  0
  9 22  1  0  0  0  0
 11 12  1  0  0  0  0
 11 13  1  0  0  0  0
 11 14  1  0  0  0  0
 14 15  1  0  0  0  0
 14 16  1  0  0  0  0
 14 17  1  0  0  0  0
 17 18  1  0  0  0  0
 18 19  1  0  0  0  0
 18 20  1  0  0  0  0
 18 21  1  0  0  0  0
 22 23  2  0  0  0  0
 22 24  1  0  0  0  0
 24 25  1  0  0  0  0
 24 26  1  0  0  0  0
 26 27  1  0  0  0  0
 26 28  1  0  0  0  0
 26 29  1  0  0  0  0
M  END
$$$$

  -OEChem-01062216093D

 29 28  0     1  0  0  0  0  0999 V2000
   -3.6534   -3.0743    0.9129 H   0  0  0  0  0  0  0  0  0  0  0  0
   -3.5351   -2.1024    0.4253 C   0  0  0  0  0  0  0  0  0  0  0  0
   -4.2867   -1.4151    0.8211 H   0  0  0  0  0  0  0  0  0  0  0  0
   -3.6933   -2.2263   -0.6486 H   0  0  0  0  0  0  0  0  0  0  0  0
   -2.1454   -1.5528    0.6854 C   0  0  0  0  0  0  0  0  0  0  0  0
   -1.4078   -2.1298    1.4629 O   0  0  0  0  0  0  0  0  0  0  0  0
   -1.7728   -0.3600    0.1039 N   0  0  0  0  0  0  0  0  0  0  0  0
   -2.4828    0.1117   -0.4561 H   0  0  0  0  0  0  0  0  0  0  0  0
   -0.4488    0.2906    0.1221 C   0  0  1  0  0  0  0  0  0  0  0  0
   -0.0466    0.2660    1.1403 H   0  0  0  0  0  0  0  0  0  0  0  0
    0.5525   -0.3678   -0.8652 C   0  0  0  0  0  0  0  0  0  0  0  0
    0.1005   -0.3589   -1.8626 H   0  0  0  0  0  0  0  0  0  0  0  0
    1.4553    0.2470   -0.9192 H   0  0  0  0  0  0  0  0  0  0  0  0
    0.9863   -1.8065   -0.5583 C   0  0  0  0  0  0  0  0  0  0  0  0
    0.1198   -2.4726   -0.5620 H   0  0  0  0  0  0  0  0  0  0  0  0
    1.6630   -2.1571   -1.3435 H   0  0  0  0  0  0  0  0  0  0  0  0
    1.8455   -1.9186    1.0676 S   0  0  0  0  0  0  0  0  0  0  0  0
    3.4300   -1.0360    0.7795 C   0  0  0  0  0  0  0  0  0  0  0  0
    3.2504    0.0222    0.5734 H   0  0  0  0  0  0  0  0  0  0  0  0
    4.0654   -1.1140    1.6667 H   0  0  0  0  0  0  0  0  0  0  0  0
    3.9596   -1.4779   -0.0695 H   0  0  0  0  0  0  0  0  0  0  0  0
   -0.5887    1.7649   -0.3192 C   0  0  0  0  0  0  0  0  0  0  0  0
   -1.5974    2.1420   -0.9076 O   0  0  0  0  0  0  0  0  0  0  0  0
    0.4361    2.6660   -0.0929 N   0  0  0  0  0  0  0  0  0  0  0  0
    1.2359    2.3411    0.4427 H   0  0  0  0  0  0  0  0  0  0  0  0
    0.3633    4.0721   -0.4720 C   0  0  0  0  0  0  0  0  0  0  0  0
   -0.4701    4.5651    0.0394 H   0  0  0  0  0  0  0  0  0  0  0  0
    1.2897    4.5862   -0.1984 H   0  0  0  0  0  0  0  0  0  0  0  0
    0.2209    4.1704   -1.5534 H   0  0  0  0  0  0  0  0  0  0  0  0
  1  2  1  0  0  0  0
  2  3  1  0  0  0  0
  2  4  1  0  0  0  0
  2  5  1  0  0  0  0
  5  6  2  0  0  0  0
  5  7  1  0  0  0  0
  7  8  1  0  0  0  0
  7  9  1  0  0  0  0
  9 10  1  0  0  0  0
  9 11  1  0  0  0  0
  9 22  1  0  0  0  0
 11 12  1  0  0  0  0
 11 13  1  0  0  0  0
 11 14  1  0  0  0  0
 14 15  1  0  0  0  0
 14 16  1  0  0  0  0
 14 17  1  0  0  0  0
 17 18  1  0  0  0  0
 18 19  1  0  0  0  0
 18 20  1  0  0  0  0
 18 21  1  0  0  0  0
 22 23  2  0  0  0  0
 22 24  1  0  0  0  0
 24 25  1  0  0  0  0
 24 26  1  0  0  0  0
 26 27  1  0  0  0  0
 26 28  1  0  0  0  0
 26 29  1  0  0  0  0
M  END
$$$$

  -OEChem-01062216093D

 29 28  0     1  0  0  0  0  0999 V2000
   -3.5963   -3.0589    0.9971 H   0  0  0  0  0  0  0  0  0  0  0  0
   -3.5013   -2.0967    0.4864 C   0  0  0  0  0  0  0  0  0  0  0  0
   -4.1840   -1.3820    0.9522 H   0  0  0  0  0  0  0  0  0  0  0  0
   -3.7785   -2.2265   -0.5623 H   0  0  0  0  0  0  0  0  0  0  0  0
   -2.0745   -1.5912    0.5863 C   0  0  0  0  0  0  0  0  0  0  0  0
   -1.2510   -2.2339    1.2119 O   0  0  0  0  0  0  0  0  0  0  0  0
   -1.7438   -0.3828    0.0104 N   0  0  0  0  0  0  0  0  0  0  0  0
   -2.5200    0.1841   -0.3303 H   0  0  0  0  0  0  0  0  0  0  0  0
   -0.4335    0.2917    0.0610 C   0  0  1  0  0  0  0  0  0  0  0  0
    0.0779    0.0483    0.9984 H   0  0  0  0  0  0  0  0  0  0  0  0
    0.4331   -0.1349   -1.1523 C   0  0  0  0  0  0  0  0  0  0  0  0
   -0.1297    0.0756   -2.0678 H   0  0  0  0  0  0  0  0  0  0  0  0
    1.3383    0.4767   -1.1849 H   0  0  0  0  0  0  0  0  0  0  0  0
    0.8631   -1.6076   -1.1829 C   0  0  0  0  0  0  0  0  0  0  0  0
   -0.0201   -2.2525   -1.2049 H   0  0  0  0  0  0  0  0  0  0  0  0
    1.4312   -1.8031   -2.0973 H   0  0  0  0  0  0  0  0  0  0  0  0
    1.8965   -2.0488    0.2764 S   0  0  0  0  0  0  0  0  0  0  0  0
    3.4626   -1.1343   -0.0115 C   0  0  0  0  0  0  0  0  0  0  0  0
    3.2905   -0.0556    0.0236 H   0  0  0  0  0  0  0  0  0  0  0  0
    4.1922   -1.3950    0.7609 H   0  0  0  0  0  0  0  0  0  0  0  0
    3.8800   -1.3954   -0.9884 H   0  0  0  0  0  0  0  0  0  0  0  0
   -0.6218    1.8264    0.0019 C   0  0  0  0  0  0  0  0  0  0  0  0
   -1.7403    2.3060   -0.1562 O   0  0  0  0  0  0  0  0  0  0  0  0
    0.4691    2.6772    0.0373 N   0  0  0  0  0  0  0  0  0  0  0  0
    1.3794    2.2632    0.2156 H   0  0  0  0  0  0  0  0  0  0  0  0
    0.3556    4.1294   -0.0303 C   0  0  0  0  0  0  0  0  0  0  0  0
   -0.2199    4.5087    0.8206 H   0  0  0  0  0  0  0  0  0  0  0  0
    1.3489    4.5881   -0.0092 H   0  0  0  0  0  0  0  0  0  0  0  0
   -0.1439    4.4326   -0.9566 H   0  0  0  0  0  0  0  0  0  0  0  0
  1  2  1  0  0  0  0
  2  3  1  0  0  0  0
  2  4  1  0  0  0  0
  2  5  1  0  0  0  0
  5  6  2  0  0  0  0
  5  7  1  0  0  0  0
  7  8  1  0  0  0  0
  7  9  1  0  0  0  0
  9 10  1  0  0  0  0
  9 11  1  0  0  0  0
  9 22  1  0  0  0  0
 11 12  1  0  0  0  0
 11 13  1  0  0  0  0
 11 14  1  0  0  0  0
 14 15  1  0  0  0  0
 14 16  1  0  0  0  0
 14 17  1  0  0  0  0
 17 18  1  0  0  0  0
 18 19  1  0  0  0  0
 18 20  1  0  0  0  0
 18 21  1  0  0  0  0
 22 23  2  0  0  0  0
 22 24  1  0  0  0  0
 24 25  1  0  0  0  0
 24 26  1  0  0  0  0
 26 27  1  0  0  0  0
 26 28  1  0  0  0  0
 26 29  1  0  0  0  0
M  END
$$$$

  -OEChem-01062216093D

 29 28  0     1  0  0  0  0  0999 V2000
   -3.6128   -3.0235    1.0183 H   0  0  0  0  0  0  0  0  0  0  0  0
   -3.5083   -2.0654    0.5016 C   0  0  0  0  0  0  0  0  0  0  0  0
   -4.1613   -1.3331    0.9822 H   0  0  0  0  0  0  0  0  0  0  0  0
   -3.8161   -2.1908   -0.5390 H   0  0  0  0  0  0  0  0  0  0  0  0
   -2.0680   -1.5932    0.5613 C   0  0  0  0  0  0  0  0  0  0  0  0
   -1.2411   -2.2613    1.1542 O   0  0  0  0  0  0  0  0  0  0  0  0
   -1.7329   -0.3835   -0.0097 N   0  0  0  0  0  0  0  0  0  0  0  0
   -2.5156    0.2086   -0.2863 H   0  0  0  0  0  0  0  0  0  0  0  0
   -0.4199    0.2873    0.0456 C   0  0  1  0  0  0  0  0  0  0  0  0
    0.0877    0.0461    0.9856 H   0  0  0  0  0  0  0  0  0  0  0  0
    0.4525   -0.1516   -1.1622 C   0  0  0  0  0  0  0  0  0  0  0  0
   -0.1028    0.0599   -2.0821 H   0  0  0  0  0  0  0  0  0  0  0  0
    1.3648    0.4486   -1.1910 H   0  0  0  0  0  0  0  0  0  0  0  0
    0.8787   -1.6257   -1.1859 C   0  0  0  0  0  0  0  0  0  0  0  0
   -0.0057   -2.2686   -1.2114 H   0  0  0  0  0  0  0  0  0  0  0  0
    1.4514   -1.8253   -2.0966 H   0  0  0  0  0  0  0  0  0  0  0  0
    1.9044   -2.0655    0.2796 S   0  0  0  0  0  0  0  0  0  0  0  0
    3.4755   -1.1576   -0.0008 C   0  0  0  0  0  0  0  0  0  0  0  0
    3.3100   -0.0781    0.0461 H   0  0  0  0  0  0  0  0  0  0  0  0
    4.2043   -1.4305    0.7682 H   0  0  0  0  0  0  0  0  0  0  0  0
    3.8898   -1.4121   -0.9807 H   0  0  0  0  0  0  0  0  0  0  0  0
   -0.6218    1.8242   -0.0088 C   0  0  0  0  0  0  0  0  0  0  0  0
   -1.7505    2.2965    0.0847 O   0  0  0  0  0  0  0  0  0  0  0  0
    0.4274    2.6871   -0.2762 N   0  0  0  0  0  0  0  0  0  0  0  0
    1.3605    2.2896   -0.3229 H   0  0  0  0  0  0  0  0  0  0  0  0
    0.2732    4.1344   -0.3703 C   0  0  0  0  0  0  0  0  0  0  0  0
   -0.0815    4.5451    0.5809 H   0  0  0  0  0  0  0  0  0  0  0  0
    1.2320    4.6023   -0.6133 H   0  0  0  0  0  0  0  0  0  0  0  0
   -0.4448    4.3940   -1.1556 H   0  0  0  0  0  0  0  0  0  0  0  0
  1  2  1  0  0  0  0
  2  3  1  0  0  0  0
  2  4  1  0  0  0  0
  2  5  1  0  0  0  0
  5  6  2  0  0  0  0
  5  7  1  0  0  0  0
  7  8  1  0  0  0  0
  7  9  1  0  0  0  0
  9 10  1  0  0  0  0
  9 11  1  0  0  0  0
  9 22  1  0  0  0  0
 11 12  1  0  0  0  0
 11 13  1  0  0  0  0
 11 14  1  0  0  0  0
 14 15  1  0  0  0  0
 14 16  1  0  0  0  0
 14 17  1  0  0  0  0
 17 18  1  0  0  0  0
 18 19  1  0  0  0  0
 18 20  1  0  0  0  0
 18 21  1  0  0  0  0
 22 23  2  0  0  0  0
 22 24  1  0  0  0  0
 24 25  1  0  0  0  0
 24 26  1  0  0  0  0
 26 27  1  0  0  0  0
 26 28  1  0  0  0  0
 26 29  1  0  0  0  0
M  END
$$$$

  -OEChem-01062216093D

 29 28  0     1  0  0  0  0  0999 V2000
   -3.6202   -2.9963    1.0378 H   0  0  0  0  0  0  0  0  0  0  0  0
   -3.5127   -2.0415    0.5154 C   0  0  0  0  0  0  0  0  0  0  0  0
   -4.1442   -1.2980    1.0076 H   0  0  0  0  0  0  0  0  0  0  0  0
   -3.8443   -2.1662   -0.5180 H   0  0  0  0  0  0  0  0  0  0  0  0
   -2.0649   -1.5900    0.5427 C   0  0  0  0  0  0  0  0  0  0  0  0
   -1.2350   -2.2760    1.1101 O   0  0  0  0  0  0  0  0  0  0  0  0
   -1.7290   -0.3799   -0.0279 N   0  0  0  0  0  0  0  0  0  0  0  0
   -2.5157    0.2278   -0.2533 H   0  0  0  0  0  0  0  0  0  0  0  0
   -0.4119    0.2847    0.0232 C   0  0  1  0  0  0  0  0  0  0  0  0
    0.0930    0.0478    0.9658 H   0  0  0  0  0  0  0  0  0  0  0  0
    0.4679   -0.1695   -1.1753 C   0  0  0  0  0  0  0  0  0  0  0  0
   -0.0791    0.0364   -2.1011 H   0  0  0  0  0  0  0  0  0  0  0  0
    1.3846    0.4240   -1.1990 H   0  0  0  0  0  0  0  0  0  0  0  0
    0.8927   -1.6442   -1.1857 C   0  0  0  0  0  0  0  0  0  0  0  0
    0.0078   -2.2863   -1.2127 H   0  0  0  0  0  0  0  0  0  0  0  0
    1.4710   -1.8516   -2.0911 H   0  0  0  0  0  0  0  0  0  0  0  0
    1.9097   -2.0743    0.2891 S   0  0  0  0  0  0  0  0  0  0  0  0
    3.4845   -1.1710    0.0139 C   0  0  0  0  0  0  0  0  0  0  0  0
    3.3212   -0.0909    0.0563 H   0  0  0  0  0  0  0  0  0  0  0  0
    4.2086   -1.4428    0.7878 H   0  0  0  0  0  0  0  0  0  0  0  0
    3.9032   -1.4296   -0.9630 H   0  0  0  0  0  0  0  0  0  0  0  0
   -0.6218    1.8226   -0.0273 C   0  0  0  0  0  0  0  0  0  0  0  0
   -1.6997    2.2958    0.3175 O   0  0  0  0  0  0  0  0  0  0  0  0
    0.3105    2.6830   -0.5837 N   0  0  0  0  0  0  0  0  0  0  0  0
    1.2050    2.2905   -0.8594 H   0  0  0  0  0  0  0  0  0  0  0  0
    0.1155    4.1252   -0.6831 C   0  0  0  0  0  0  0  0  0  0  0  0
    0.0058    4.5669    0.3130 H   0  0  0  0  0  0  0  0  0  0  0  0
    0.9750    4.5905   -1.1750 H   0  0  0  0  0  0  0  0  0  0  0  0
   -0.7811    4.3520   -1.2698 H   0  0  0  0  0  0  0  0  0  0  0  0
  1  2  1  0  0  0  0
  2  3  1  0  0  0  0
  2  4  1  0  0  0  0
  2  5  1  0  0  0  0
  5  6  2  0  0  0  0
  5  7  1  0  0  0  0
  7  8  1  0  0  0  0
  7  9  1  0  0  0  0
  9 10  1  0  0  0  0
  9 11  1  0  0  0  0
  9 22  1  0  0  0  0
 11 12  1  0  0  0  0
 11 13  1  0  0  0  0
 11 14  1  0  0  0  0
 14 15  1  0  0  0  0
 14 16  1  0  0  0  0
 14 17  1  0  0  0  0
 17 18  1  0  0  0  0
 18 19  1  0  0  0  0
 18 20  1  0  0  0  0
 18 21  1  0  0  0  0
 22 23  2  0  0  0  0
 22 24  1  0  0  0  0
 24 25  1  0  0  0  0
 24 26  1  0  0  0  0
 26 27  1  0  0  0  0
 26 28  1  0  0  0  0
 26 29  1  0  0  0  0
M  END
$$$$

  -OEChem-01062216093D

 29 28  0     1  0  0  0  0  0999 V2000
   -3.6279   -2.9804    1.0518 H   0  0  0  0  0  0  0  0  0  0  0  0
   -3.5223   -2.0228    0.5341 C   0  0  0  0  0  0  0  0  0  0  0  0
   -4.1297   -1.2755    1.0501 H   0  0  0  0  0  0  0  0  0  0  0  0
   -3.8851   -2.1342   -0.4903 H   0  0  0  0  0  0  0  0  0  0  0  0
   -2.0679   -1.5910    0.5251 C   0  0  0  0  0  0  0  0  0  0  0  0
   -1.2339   -2.2949    1.0632 O   0  0  0  0  0  0  0  0  0  0  0  0
   -1.7320   -0.3791   -0.0425 N   0  0  0  0  0  0  0  0  0  0  0  0
   -2.5206    0.2352   -0.2380 H   0  0  0  0  0  0  0  0  0  0  0  0
   -0.4107    0.2791    0.0024 C   0  0  1  0  0  0  0  0  0  0  0  0
    0.0911    0.0427    0.9470 H   0  0  0  0  0  0  0  0  0  0  0  0
    0.4801   -0.1796   -1.1862 C   0  0  0  0  0  0  0  0  0  0  0  0
   -0.0586    0.0205   -2.1183 H   0  0  0  0  0  0  0  0  0  0  0  0
    1.3955    0.4172   -1.1996 H   0  0  0  0  0  0  0  0  0  0  0  0
    0.9095   -1.6528   -1.1901 C   0  0  0  0  0  0  0  0  0  0  0  0
    0.0273   -2.2983   -1.2232 H   0  0  0  0  0  0  0  0  0  0  0  0
    1.4964   -1.8605   -2.0898 H   0  0  0  0  0  0  0  0  0  0  0  0
    1.9158   -2.0743    0.2944 S   0  0  0  0  0  0  0  0  0  0  0  0
    3.4895   -1.1656    0.0294 C   0  0  0  0  0  0  0  0  0  0  0  0
    3.3201   -0.0859    0.0597 H   0  0  0  0  0  0  0  0  0  0  0  0
    4.2053   -1.4260    0.8148 H   0  0  0  0  0  0  0  0  0  0  0  0
    3.9222   -1.4311   -0.9394 H   0  0  0  0  0  0  0  0  0  0  0  0
   -0.6200    1.8167   -0.0391 C   0  0  0  0  0  0  0  0  0  0  0  0
   -1.5811    2.3028    0.5455 O   0  0  0  0  0  0  0  0  0  0  0  0
    0.1317    2.6563   -0.8455 N   0  0  0  0  0  0  0  0  0  0  0  0
    0.9083    2.2474   -1.3552 H   0  0  0  0  0  0  0  0  0  0  0  0
   -0.1034    4.0918   -0.9550 C   0  0  0  0  0  0  0  0  0  0  0  0
    0.0184    4.5759    0.0199 H   0  0  0  0  0  0  0  0  0  0  0  0
    0.6091    4.5397   -1.6544 H   0  0  0  0  0  0  0  0  0  0  0  0
   -1.1166    4.2881   -1.3217 H   0  0  0  0  0  0  0  0  0  0  0  0
  1  2  1  0  0  0  0
  2  3  1  0  0  0  0
  2  4  1  0  0  0  0
  2  5  1  0  0  0  0
  5  6  2  0  0  0  0
  5  7  1  0  0  0  0
  7  8  1  0  0  0  0
  7  9  1  0  0  0  0
  9 10  1  0  0  0  0
  9 11  1  0  0  0  0
  9 22  1  0  0  0  0
 11 12  1  0  0  0  0
 11 13  1  0  0  0  0
 11 14  1  0  0  0  0
 14 15  1  0  0  0  0
 14 16  1  0  0  0  0
 14 17  1  0  0  0  0
 17 18  1  0  0  0  0
 18 19  1  0  0  0  0
 18 20  1  0  0  0  0
 18 21  1  0  0  0  0
 22 23  2  0  0  0  0
 22 24  1  0  0  0  0
 24 25  1  0  0  0  0
 24 26  1  0  0  0  0
 26 27  1  0  0  0  0
 26 28  1  0  0  0  0
 26 29  1  0  0  0  0
M  END
$$$$

  -OEChem-01062216093D

 29 28  0     1  0  0  0  0  0999 V2000
   -3.6274   -2.9790    1.0727 H   0  0  0  0  0  0  0  0  0  0  0  0
   -3.5254   -2.0273    0.5435 C   0  0  0  0  0  0  0  0  0  0  0  0
   -4.1333   -1.2757    1.0530 H   0  0  0  0  0  0  0  0  0  0  0  0
   -3.8910   -2.1519   -0.4784 H   0  0  0  0  0  0  0  0  0  0  0  0
   -2.0719   -1.5931    0.5248 C   0  0  0  0  0  0  0  0  0  0  0  0
   -1.2328   -2.2995    1.0510 O   0  0  0  0  0  0  0  0  0  0  0  0
   -1.7432   -0.3809   -0.0470 N   0  0  0  0  0  0  0  0  0  0  0  0
   -2.5361    0.2266   -0.2410 H   0  0  0  0  0  0  0  0  0  0  0  0
   -0.4215    0.2767   -0.0126 C   0  0  1  0  0  0  0  0  0  0  0  0
    0.0807    0.0436    0.9329 H   0  0  0  0  0  0  0  0  0  0  0  0
    0.4769   -0.1832   -1.1940 C   0  0  0  0  0  0  0  0  0  0  0  0
   -0.0597    0.0040   -2.1299 H   0  0  0  0  0  0  0  0  0  0  0  0
    1.3852    0.4258   -1.2054 H   0  0  0  0  0  0  0  0  0  0  0  0
    0.9155   -1.6534   -1.1897 C   0  0  0  0  0  0  0  0  0  0  0  0
    0.0378   -2.3052   -1.2232 H   0  0  0  0  0  0  0  0  0  0  0  0
    1.5080   -1.8616   -2.0857 H   0  0  0  0  0  0  0  0  0  0  0  0
    1.9174   -2.0590    0.3018 S   0  0  0  0  0  0  0  0  0  0  0  0
    3.4842   -1.1391    0.0363 C   0  0  0  0  0  0  0  0  0  0  0  0
    3.3063   -0.0607    0.0679 H   0  0  0  0  0  0  0  0  0  0  0  0
    4.2024   -1.3947    0.8212 H   0  0  0  0  0  0  0  0  0  0  0  0
    3.9174   -1.4003   -0.9335 H   0  0  0  0  0  0  0  0  0  0  0  0
   -0.6249    1.8129   -0.0529 C   0  0  0  0  0  0  0  0  0  0  0  0
   -1.4056    2.3289    0.7361 O   0  0  0  0  0  0  0  0  0  0  0  0
   -0.1067    2.6103   -1.0609 N   0  0  0  0  0  0  0  0  0  0  0  0
    0.5014    2.1682   -1.7429 H   0  0  0  0  0  0  0  0  0  0  0  0
   -0.3529    4.0443   -1.1622 C   0  0  0  0  0  0  0  0  0  0  0  0
    0.0253    4.5612   -0.2740 H   0  0  0  0  0  0  0  0  0  0  0  0
    0.1531    4.4530   -2.0421 H   0  0  0  0  0  0  0  0  0  0  0  0
   -1.4254    4.2448   -1.2568 H   0  0  0  0  0  0  0  0  0  0  0  0
  1  2  1  0  0  0  0
  2  3  1  0  0  0  0
  2  4  1  0  0  0  0
  2  5  1  0  0  0  0
  5  6  2  0  0  0  0
  5  7  1  0  0  0  0
  7  8  1  0  0  0  0
  7  9  1  0  0  0  0
  9 10  1  0  0  0  0
  9 11  1  0  0  0  0
  9 22  1  0  0  0  0
 11 12  1  0  0  0  0
 11 13  1  0  0  0  0
 11 14  1  0  0  0  0
 14 15  1  0  0  0  0
 14 16  1  0  0  0  0
 14 17  1  0  0  0  0
 17 18  1  0  0  0  0
 18 19  1  0  0  0  0
 18 20  1  0  0  0  0
 18 21  1  0  0  0  0
 22 23  2  0  0  0  0
 22 24  1  0  0  0  0
 24 25  1  0  0  0  0
 24 26  1  0  0  0  0
 26 27  1  0  0  0  0
 26 28  1  0  0  0  0
 26 29  1  0  0  0  0
M  END
$$$$

  -OEChem-01062216093D

 29 28  0     1  0  0  0  0  0999 V2000
   -3.6148   -3.0047    1.0591 H   0  0  0  0  0  0  0  0  0  0  0  0
   -3.5232   -2.0426    0.5470 C   0  0  0  0  0  0  0  0  0  0  0  0
   -4.1381   -1.3064    1.0704 H   0  0  0  0  0  0  0  0  0  0  0  0
   -3.8885   -2.1529   -0.4767 H   0  0  0  0  0  0  0  0  0  0  0  0
   -2.0741   -1.5933    0.5363 C   0  0  0  0  0  0  0  0  0  0  0  0
   -1.2318   -2.2881    1.0722 O   0  0  0  0  0  0  0  0  0  0  0  0
   -1.7527   -0.3815   -0.0410 N   0  0  0  0  0  0  0  0  0  0  0  0
   -2.5486    0.2041   -0.2797 H   0  0  0  0  0  0  0  0  0  0  0  0
   -0.4326    0.2802   -0.0158 C   0  0  1  0  0  0  0  0  0  0  0  0
    0.0735    0.0499    0.9286 H   0  0  0  0  0  0  0  0  0  0  0  0
    0.4654   -0.1799   -1.1967 C   0  0  0  0  0  0  0  0  0  0  0  0
   -0.0756   -0.0073   -2.1324 H   0  0  0  0  0  0  0  0  0  0  0  0
    1.3658    0.4412   -1.2158 H   0  0  0  0  0  0  0  0  0  0  0  0
    0.9109   -1.6482   -1.1855 C   0  0  0  0  0  0  0  0  0  0  0  0
    0.0357   -2.3034   -1.2142 H   0  0  0  0  0  0  0  0  0  0  0  0
    1.5029   -1.8582   -2.0814 H   0  0  0  0  0  0  0  0  0  0  0  0
    1.9175   -2.0441    0.3053 S   0  0  0  0  0  0  0  0  0  0  0  0
    3.4806   -1.1197    0.0336 C   0  0  0  0  0  0  0  0  0  0  0  0
    3.2965   -0.0421    0.0435 H   0  0  0  0  0  0  0  0  0  0  0  0
    4.1946   -1.3561    0.8282 H   0  0  0  0  0  0  0  0  0  0  0  0
    3.9224   -1.3963   -0.9281 H   0  0  0  0  0  0  0  0  0  0  0  0
   -0.6294    1.8149   -0.0587 C   0  0  0  0  0  0  0  0  0  0  0  0
   -1.1741    2.3732    0.8831 O   0  0  0  0  0  0  0  0  0  0  0  0
   -0.3863    2.5608   -1.2008 N   0  0  0  0  0  0  0  0  0  0  0  0
    0.0250    2.0822   -1.9959 H   0  0  0  0  0  0  0  0  0  0  0  0
   -0.6470    3.9928   -1.2964 C   0  0  0  0  0  0  0  0  0  0  0  0
   -0.0609    4.5396   -0.5500 H   0  0  0  0  0  0  0  0  0  0  0  0
   -0.3730    4.3626   -2.2892 H   0  0  0  0  0  0  0  0  0  0  0  0
   -1.7093    4.2015   -1.1313 H   0  0  0  0  0  0  0  0  0  0  0  0
  1  2  1  0  0  0  0
  2  3  1  0  0  0  0
  2  4  1  0  0  0  0
  2  5  1  0  0  0  0
  5  6  2  0  0  0  0
  5  7  1  0  0  0  0
  7  8  1  0  0  0  0
  7  9  1  0  0  0  0
  9 10  1  0  0  0  0
  9 11  1  0  0  0  0
  9 22  1  0  0  0  0
 11 12  1  0  0  0  0
 11 13  1  0  0  0  0
 11 14  1  0  0  0  0
 14 15  1  0  0  0  0
 14 16  1  0  0  0  0
 14 17  1  0  0  0  0
 17 18  1  0  0  0  0
 18 19  1  0  0  0  0
 18 20  1  0  0  0  0
 18 21  1  0  0  0  0
 22 23  2  0  0  0  0
 22 24  1  0  0  0  0
 24 25  1  0  0  0  0
 24 26  1  0  0  0  0
 26 27  1  0  0  0  0
 26 28  1  0  0  0  0
 26 29  1  0  0  0  0
M  END
$$$$

  -OEChem-01062216093D

 29 28  0     1  0  0  0  0  0999 V2000
   -3.6027   -3.0378    1.0696 H   0  0  0  0  0  0  0  0  0  0  0  0
   -3.5196   -2.0830    0.5426 C   0  0  0  0  0  0  0  0  0  0  0  0
   -4.1633   -1.3519    1.0376 H   0  0  0  0  0  0  0  0  0  0  0  0
   -3.8564   -2.2195   -0.4877 H   0  0  0  0  0  0  0  0  0  0  0  0
   -2.0808   -1.6018    0.5588 C   0  0  0  0  0  0  0  0  0  0  0  0
   -1.2339   -2.2767    1.1122 O   0  0  0  0  0  0  0  0  0  0  0  0
   -1.7720   -0.3893   -0.0252 N   0  0  0  0  0  0  0  0  0  0  0  0
   -2.5711    0.1703   -0.3090 H   0  0  0  0  0  0  0  0  0  0  0  0
   -0.4562    0.2818   -0.0092 C   0  0  1  0  0  0  0  0  0  0  0  0
    0.0560    0.0540    0.9328 H   0  0  0  0  0  0  0  0  0  0  0  0
    0.4406   -0.1696   -1.1926 C   0  0  0  0  0  0  0  0  0  0  0  0
   -0.1039   -0.0055   -2.1272 H   0  0  0  0  0  0  0  0  0  0  0  0
    1.3326    0.4636   -1.2165 H   0  0  0  0  0  0  0  0  0  0  0  0
    0.8984   -1.6342   -1.1813 C   0  0  0  0  0  0  0  0  0  0  0  0
    0.0282   -2.2963   -1.2034 H   0  0  0  0  0  0  0  0  0  0  0  0
    1.4879   -1.8413   -2.0795 H   0  0  0  0  0  0  0  0  0  0  0  0
    1.9132   -2.0209    0.3057 S   0  0  0  0  0  0  0  0  0  0  0  0
    3.4655   -1.0816    0.0227 C   0  0  0  0  0  0  0  0  0  0  0  0
    3.2720   -0.0056    0.0454 H   0  0  0  0  0  0  0  0  0  0  0  0
    4.1917   -1.3191    0.8057 H   0  0  0  0  0  0  0  0  0  0  0  0
    3.8973   -1.3450   -0.9471 H   0  0  0  0  0  0  0  0  0  0  0  0
   -0.6477    1.8148   -0.0565 C   0  0  0  0  0  0  0  0  0  0  0  0
   -0.8865    2.4285    0.9731 O   0  0  0  0  0  0  0  0  0  0  0  0
   -0.7063    2.5022   -1.2578 N   0  0  0  0  0  0  0  0  0  0  0  0
   -0.5238    1.9780   -2.1077 H   0  0  0  0  0  0  0  0  0  0  0  0
   -0.9295    3.9406   -1.3492 C   0  0  0  0  0  0  0  0  0  0  0  0
   -0.1394    4.4848   -0.8208 H   0  0  0  0  0  0  0  0  0  0  0  0
   -0.9274    4.2586   -2.3963 H   0  0  0  0  0  0  0  0  0  0  0  0
   -1.8961    4.2079   -0.9090 H   0  0  0  0  0  0  0  0  0  0  0  0
  1  2  1  0  0  0  0
  2  3  1  0  0  0  0
  2  4  1  0  0  0  0
  2  5  1  0  0  0  0
  5  6  2  0  0  0  0
  5  7  1  0  0  0  0
  7  8  1  0  0  0  0
  7  9  1  0  0  0  0
  9 10  1  0  0  0  0
  9 11  1  0  0  0  0
  9 22  1  0  0  0  0
 11 12  1  0  0  0  0
 11 13  1  0  0  0  0
 11 14  1  0  0  0  0
 14 15  1  0  0  0  0
 14 16  1  0  0  0  0
 14 17  1  0  0  0  0
 17 18  1  0  0  0  0
 18 19  1  0  0  0  0
 18 20  1  0  0  0  0
 18 21  1  0  0  0  0
 22 23  2  0  0  0  0
 22 24  1  0  0  0  0
 24 25  1  0  0  0  0
 24 26  1  0  0  0  0
 26 27  1  0  0  0  0
 26 28  1  0  0  0  0
 26 29  1  0  0  0  0
M  END
$$$$

  -OEChem-01062216093D

 29 28  0     1  0  0  0  0  0999 V2000
   -3.5904   -3.0711    1.0702 H   0  0  0  0  0  0  0  0  0  0  0  0
   -3.5152   -2.1167    0.5409 C   0  0  0  0  0  0  0  0  0  0  0  0
   -4.1786   -1.3950    1.0235 H   0  0  0  0  0  0  0  0  0  0  0  0
   -3.8343   -2.2622   -0.4937 H   0  0  0  0  0  0  0  0  0  0  0  0
   -2.0851   -1.6114    0.5772 C   0  0  0  0  0  0  0  0  0  0  0  0
   -1.2355   -2.2687    1.1469 O   0  0  0  0  0  0  0  0  0  0  0  0
   -1.7858   -0.3968   -0.0079 N   0  0  0  0  0  0  0  0  0  0  0  0
   -2.5851    0.1399   -0.3315 H   0  0  0  0  0  0  0  0  0  0  0  0
   -0.4734    0.2824    0.0092 C   0  0  1  0  0  0  0  0  0  0  0  0
    0.0438    0.0511    0.9479 H   0  0  0  0  0  0  0  0  0  0  0  0
    0.4204   -0.1479   -1.1821 C   0  0  0  0  0  0  0  0  0  0  0  0
   -0.1252    0.0273   -2.1139 H   0  0  0  0  0  0  0  0  0  0  0  0
    1.3081    0.4918   -1.1992 H   0  0  0  0  0  0  0  0  0  0  0  0
    0.8853   -1.6104   -1.1874 C   0  0  0  0  0  0  0  0  0  0  0  0
    0.0175   -2.2755   -1.2122 H   0  0  0  0  0  0  0  0  0  0  0  0
    1.4717   -1.8048   -2.0905 H   0  0  0  0  0  0  0  0  0  0  0  0
    1.9071   -2.0116    0.2905 S   0  0  0  0  0  0  0  0  0  0  0  0
    3.4553   -1.0638    0.0140 C   0  0  0  0  0  0  0  0  0  0  0  0
    3.2587    0.0114    0.0525 H   0  0  0  0  0  0  0  0  0  0  0  0
    4.1857   -1.3103    0.7903 H   0  0  0  0  0  0  0  0  0  0  0  0
    3.8832   -1.3125   -0.9614 H   0  0  0  0  0  0  0  0  0  0  0  0
   -0.6669    1.8133   -0.0386 C   0  0  0  0  0  0  0  0  0  0  0  0
   -0.5769    2.4804    0.9810 O   0  0  0  0  0  0  0  0  0  0  0  0
   -1.0302    2.4452   -1.2164 N   0  0  0  0  0  0  0  0  0  0  0  0
   -1.0747    1.8786   -2.0575 H   0  0  0  0  0  0  0  0  0  0  0  0
   -1.2312    3.8859   -1.3237 C   0  0  0  0  0  0  0  0  0  0  0  0
   -0.3160    4.4222   -1.0509 H   0  0  0  0  0  0  0  0  0  0  0  0
   -1.4965    4.1556   -2.3505 H   0  0  0  0  0  0  0  0  0  0  0  0
   -2.0403    4.2112   -0.6611 H   0  0  0  0  0  0  0  0  0  0  0  0
  1  2  1  0  0  0  0
  2  3  1  0  0  0  0
  2  4  1  0  0  0  0
  2  5  1  0  0  0  0
  5  6  2  0  0  0  0
  5  7  1  0  0  0  0
  7  8  1  0  0  0  0
  7  9  1  0  0  0  0
  9 10  1  0  0  0  0
  9 11  1  0  0  0  0
  9 22  1  0  0  0  0
 11 12  1  0  0  0  0
 11 13  1  0  0  0  0
 11 14  1  0  0  0  0
 14 15  1  0  0  0  0
 14 16  1  0  0  0  0
 14 17  1  0  0  0  0
 17 18  1  0  0  0  0
 18 19  1  0  0  0  0
 18 20  1  0  0  0  0
 18 21  1  0  0  0  0
 22 23  2  0  0  0  0
 22 24  1  0  0  0  0
 24 25  1  0  0  0  0
 24 26  1  0  0  0  0
 26 27  1  0  0  0  0
 26 28  1  0  0  0  0
 26 29  1  0  0  0  0
M  END
$$$$

  -OEChem-01062216093D

 29 28  0     1  0  0  0  0  0999 V2000
   -3.5825   -3.1020    1.0693 H   0  0  0  0  0  0  0  0  0  0  0  0
   -3.5138   -2.1461    0.5420 C   0  0  0  0  0  0  0  0  0  0  0  0
   -4.1873   -1.4319    1.0215 H   0  0  0  0  0  0  0  0  0  0  0  0
   -3.8249   -2.2938   -0.4947 H   0  0  0  0  0  0  0  0  0  0  0  0
   -2.0890   -1.6267    0.5877 C   0  0  0  0  0  0  0  0  0  0  0  0
   -1.2364   -2.2754    1.1622 O   0  0  0  0  0  0  0  0  0  0  0  0
   -1.7978   -0.4085    0.0058 N   0  0  0  0  0  0  0  0  0  0  0  0
   -2.6005    0.1226   -0.3179 H   0  0  0  0  0  0  0  0  0  0  0  0
   -0.4886    0.2785    0.0305 C   0  0  1  0  0  0  0  0  0  0  0  0
    0.0315    0.0416    0.9662 H   0  0  0  0  0  0  0  0  0  0  0  0
    0.4027   -0.1270   -1.1693 C   0  0  0  0  0  0  0  0  0  0  0  0
   -0.1456    0.0650   -2.0964 H   0  0  0  0  0  0  0  0  0  0  0  0
    1.2880    0.5162   -1.1774 H   0  0  0  0  0  0  0  0  0  0  0  0
    0.8737   -1.5874   -1.1970 C   0  0  0  0  0  0  0  0  0  0  0  0
    0.0082   -2.2554   -1.2279 H   0  0  0  0  0  0  0  0  0  0  0  0
    1.4578   -1.7669   -2.1047 H   0  0  0  0  0  0  0  0  0  0  0  0
    1.9010   -2.0055    0.2724 S   0  0  0  0  0  0  0  0  0  0  0  0
    3.4446   -1.0471    0.0061 C   0  0  0  0  0  0  0  0  0  0  0  0
    3.2431    0.0265    0.0583 H   0  0  0  0  0  0  0  0  0  0  0  0
    4.1770   -1.2997    0.7787 H   0  0  0  0  0  0  0  0  0  0  0  0
    3.8728   -1.2813   -0.9727 H   0  0  0  0  0  0  0  0  0  0  0  0
   -0.6841    1.8074   -0.0141 C   0  0  0  0  0  0  0  0  0  0  0  0
   -0.2922    2.5143    0.9021 O   0  0  0  0  0  0  0  0  0  0  0  0
   -1.3332    2.3956   -1.0869 N   0  0  0  0  0  0  0  0  0  0  0  0
   -1.5633    1.8001   -1.8761 H   0  0  0  0  0  0  0  0  0  0  0  0
   -1.5157    3.8369   -1.2138 C   0  0  0  0  0  0  0  0  0  0  0  0
   -0.5467    4.3471   -1.2203 H   0  0  0  0  0  0  0  0  0  0  0  0
   -2.0369    4.0722   -2.1466 H   0  0  0  0  0  0  0  0  0  0  0  0
   -2.1109    4.2227   -0.3793 H   0  0  0  0  0  0  0  0  0  0  0  0
  1  2  1  0  0  0  0
  2  3  1  0  0  0  0
  2  4  1  0  0  0  0
  2  5  1  0  0  0  0
  5  6  2  0  0  0  0
  5  7  1  0  0  0  0
  7  8  1  0  0  0  0
  7  9  1  0  0  0  0
  9 10  1  0  0  0  0
  9 11  1  0  0  0  0
  9 22  1  0  0  0  0
 11 12  1  0  0  0  0
 11 13  1  0  0  0  0
 11 14  1  0  0  0  0
 14 15  1  0  0  0  0
 14 16  1  0  0  0  0
 14 17  1  0  0  0  0
 17 18  1  0  0  0  0
 18 19  1  0  0  0  0
 18 20  1  0  0  0  0
 18 21  1  0  0  0  0
 22 23  2  0  0  0  0
 22 24  1  0  0  0  0
 24 25  1  0  0  0  0
 24 26  1  0  0  0  0
 26 27  1  0  0  0  0
 26 28  1  0  0  0  0
 26 29  1  0  0  0  0
M  END
$$$$

  -OEChem-01062216093D

 29 28  0     1  0  0  0  0  0999 V2000
   -3.5717   -3.1412    1.0679 H   0  0  0  0  0  0  0  0  0  0  0  0
   -3.5104   -2.1839    0.5423 C   0  0  0  0  0  0  0  0  0  0  0  0
   -4.1951   -1.4781    1.0188 H   0  0  0  0  0  0  0  0  0  0  0  0
   -3.8136   -2.3339   -0.4965 H   0  0  0  0  0  0  0  0  0  0  0  0
   -2.0915   -1.6491    0.5963 C   0  0  0  0  0  0  0  0  0  0  0  0
   -1.2355   -2.2883    1.1761 O   0  0  0  0  0  0  0  0  0  0  0  0
   -1.8107   -0.4267    0.0181 N   0  0  0  0  0  0  0  0  0  0  0  0
   -2.6190    0.0992   -0.2976 H   0  0  0  0  0  0  0  0  0  0  0  0
   -0.5061    0.2713    0.0510 C   0  0  1  0  0  0  0  0  0  0  0  0
    0.0159    0.0298    0.9844 H   0  0  0  0  0  0  0  0  0  0  0  0
    0.3830   -0.1149   -1.1554 C   0  0  0  0  0  0  0  0  0  0  0  0
   -0.1696    0.0877   -2.0779 H   0  0  0  0  0  0  0  0  0  0  0  0
    1.2652    0.5332   -1.1596 H   0  0  0  0  0  0  0  0  0  0  0  0
    0.8620   -1.5722   -1.1999 C   0  0  0  0  0  0  0  0  0  0  0  0
    0.0005   -2.2451   -1.2356 H   0  0  0  0  0  0  0  0  0  0  0  0
    1.4452   -1.7383   -2.1105 H   0  0  0  0  0  0  0  0  0  0  0  0
    1.8961   -1.9996    0.2624 S   0  0  0  0  0  0  0  0  0  0  0  0
    3.4316   -1.0280   -0.0023 C   0  0  0  0  0  0  0  0  0  0  0  0
    3.2213    0.0436    0.0564 H   0  0  0  0  0  0  0  0  0  0  0  0
    4.1681   -1.2786    0.7670 H   0  0  0  0  0  0  0  0  0  0  0  0
    3.8592   -1.2527   -0.9836 H   0  0  0  0  0  0  0  0  0  0  0  0
   -0.6951    1.8010    0.0103 C   0  0  0  0  0  0  0  0  0  0  0  0
   -0.0510    2.5275    0.7523 O   0  0  0  0  0  0  0  0  0  0  0  0
   -1.5884    2.3710   -0.8823 N   0  0  0  0  0  0  0  0  0  0  0  0
   -1.9817    1.7644   -1.5943 H   0  0  0  0  0  0  0  0  0  0  0  0
   -1.7536    3.8136   -1.0222 C   0  0  0  0  0  0  0  0  0  0  0  0
   -0.8057    4.2835   -1.3054 H   0  0  0  0  0  0  0  0  0  0  0  0
   -2.4954    4.0371   -1.7948 H   0  0  0  0  0  0  0  0  0  0  0  0
   -2.0955    4.2528   -0.0790 H   0  0  0  0  0  0  0  0  0  0  0  0
  1  2  1  0  0  0  0
  2  3  1  0  0  0  0
  2  4  1  0  0  0  0
  2  5  1  0  0  0  0
  5  6  2  0  0  0  0
  5  7  1  0  0  0  0
  7  8  1  0  0  0  0
  7  9  1  0  0  0  0
  9 10  1  0  0  0  0
  9 11  1  0  0  0  0
  9 22  1  0  0  0  0
 11 12  1  0  0  0  0
 11 13  1  0  0  0  0
 11 14  1  0  0  0  0
 14 15  1  0  0  0  0
 14 16  1  0  0  0  0
 14 17  1  0  0  0  0
 17 18  1  0  0  0  0
 18 19  1  0  0  0  0
 18 20  1  0  0  0  0
 18 21  1  0  0  0  0
 22 23  2  0  0  0  0
 22 24  1  0  0  0  0
 24 25  1  0  0  0  0
 24 26  1  0  0  0  0
 26 27  1  0  0  0  0
 26 28  1  0  0  0  0
 26 29  1  0  0  0  0
M  END
$$$$

  -OEChem-01062216093D

 29 28  0     1  0  0  0  0  0999 V2000
   -3.3841   -3.2802    0.9808 H   0  0  0  0  0  0  0  0  0  0  0  0
   -3.3660   -2.3373    0.4266 C   0  0  0  0  0  0  0  0  0  0  0  0
   -4.2314   -1.7396    0.7224 H   0  0  0  0  0  0  0  0  0  0  0  0
   -3.4286   -2.5577   -0.6416 H   0  0  0  0  0  0  0  0  0  0  0  0
   -2.0858   -1.5812    0.7285 C   0  0  0  0  0  0  0  0  0  0  0  0
   -1.3045   -2.0290    1.5460 O   0  0  0  0  0  0  0  0  0  0  0  0
   -1.8476   -0.3736    0.1005 N   0  0  0  0  0  0  0  0  0  0  0  0
   -2.5130   -0.1361   -0.6255 H   0  0  0  0  0  0  0  0  0  0  0  0
   -0.5385    0.3194    0.0859 C   0  0  1  0  0  0  0  0  0  0  0  0
    0.0070    0.0962    1.0102 H   0  0  0  0  0  0  0  0  0  0  0  0
    0.3038   -0.1258   -1.1335 C   0  0  0  0  0  0  0  0  0  0  0  0
   -0.2731    0.0568   -2.0455 H   0  0  0  0  0  0  0  0  0  0  0  0
    1.1986    0.5024   -1.1894 H   0  0  0  0  0  0  0  0  0  0  0  0
    0.7553   -1.5932   -1.1317 C   0  0  0  0  0  0  0  0  0  0  0  0
   -0.1170   -2.2522   -1.1171 H   0  0  0  0  0  0  0  0  0  0  0  0
    1.3090   -1.8038   -2.0517 H   0  0  0  0  0  0  0  0  0  0  0  0
    1.8259   -1.9841    0.3126 S   0  0  0  0  0  0  0  0  0  0  0  0
    3.3700   -1.0539   -0.0391 C   0  0  0  0  0  0  0  0  0  0  0  0
    3.1796    0.0232   -0.0251 H   0  0  0  0  0  0  0  0  0  0  0  0
    4.1228   -1.2817    0.7212 H   0  0  0  0  0  0  0  0  0  0  0  0
    3.7668   -1.3318   -1.0197 H   0  0  0  0  0  0  0  0  0  0  0  0
   -0.6732    1.8572    0.0118 C   0  0  0  0  0  0  0  0  0  0  0  0
    0.2473    2.5677    0.3908 O   0  0  0  0  0  0  0  0  0  0  0  0
   -1.7499    2.4562   -0.6220 N   0  0  0  0  0  0  0  0  0  0  0  0
   -2.5382    1.8669   -0.8593 H   0  0  0  0  0  0  0  0  0  0  0  0
   -1.8969    3.9028   -0.7398 C   0  0  0  0  0  0  0  0  0  0  0  0
   -1.0493    4.3316   -1.2850 H   0  0  0  0  0  0  0  0  0  0  0  0
   -2.8143    4.1476   -1.2836 H   0  0  0  0  0  0  0  0  0  0  0  0
   -1.9474    4.3646    0.2519 H   0  0  0  0  0  0  0  0  0  0  0  0
  1  2  1  0  0  0  0
  2  3  1  0  0  0  0
  2  4  1  0  0  0  0
  2  5  1  0  0  0  0
  5  6  2  0  0  0  0
  5  7  1  0  0  0  0
  7  8  1  0  0  0  0
  7  9  1  0  0  0  0
  9 10  1  0  0  0  0
  9 11  1  0  0  0  0
  9 22  1  0  0  0  0
 11 12  1  0  0  0  0
 11 13  1  0  0  0  0
 11 14  1  0  0  0  0
 14 15  1  0  0  0  0
 14 16  1  0  0  0  0
 14 17  1  0  0  0  0
 17 18  1  0  0  0  0
 18 19  1  0  0  0  0
 18 20  1  0  0  0  0
 18 21  1  0  0  0  0
 22 23  2  0  0  0  0
 22 24  1  0  0  0  0
 24 25  1  0  0  0  0
 24 26  1  0  0  0  0
 26 27  1  0  0  0  0
 26 28  1  0  0  0  0
 26 29  1  0  0  0  0
M  END
$$$$

  -OEChem-01062216093D

 29 28  0     1  0  0  0  0  0999 V2000
   -3.3167   -3.3139    0.9160 H   0  0  0  0  0  0  0  0  0  0  0  0
   -3.3259   -2.3550    0.3896 C   0  0  0  0  0  0  0  0  0  0  0  0
   -4.2176   -1.7987    0.6882 H   0  0  0  0  0  0  0  0  0  0  0  0
   -3.3641   -2.5468   -0.6853 H   0  0  0  0  0  0  0  0  0  0  0  0
   -2.0804   -1.5605    0.7349 C   0  0  0  0  0  0  0  0  0  0  0  0
   -1.3270   -1.9705    1.5974 O   0  0  0  0  0  0  0  0  0  0  0  0
   -1.8467   -0.3540    0.1031 N   0  0  0  0  0  0  0  0  0  0  0  0
   -2.4695   -0.1625   -0.6745 H   0  0  0  0  0  0  0  0  0  0  0  0
   -0.5344    0.3333    0.0884 C   0  0  1  0  0  0  0  0  0  0  0  0
    0.0131    0.1133    1.0121 H   0  0  0  0  0  0  0  0  0  0  0  0
    0.2997   -0.1274   -1.1327 C   0  0  0  0  0  0  0  0  0  0  0  0
   -0.2804    0.0547   -2.0429 H   0  0  0  0  0  0  0  0  0  0  0  0
    1.2013    0.4895   -1.2002 H   0  0  0  0  0  0  0  0  0  0  0  0
    0.7372   -1.5991   -1.1213 C   0  0  0  0  0  0  0  0  0  0  0  0
   -0.1405   -2.2508   -1.1005 H   0  0  0  0  0  0  0  0  0  0  0  0
    1.2871   -1.8207   -2.0411 H   0  0  0  0  0  0  0  0  0  0  0  0
    1.8091   -1.9900    0.3221 S   0  0  0  0  0  0  0  0  0  0  0  0
    3.3612   -1.0778   -0.0417 C   0  0  0  0  0  0  0  0  0  0  0  0
    3.1828    0.0013   -0.0305 H   0  0  0  0  0  0  0  0  0  0  0  0
    4.1164   -1.3116    0.7145 H   0  0  0  0  0  0  0  0  0  0  0  0
    3.7490   -1.3634   -1.0237 H   0  0  0  0  0  0  0  0  0  0  0  0
   -0.6743    1.8718    0.0138 C   0  0  0  0  0  0  0  0  0  0  0  0
    0.3134    2.5853    0.1273 O   0  0  0  0  0  0  0  0  0  0  0  0
   -1.8787    2.4596   -0.3360 N   0  0  0  0  0  0  0  0  0  0  0  0
   -2.7035    1.8776   -0.2415 H   0  0  0  0  0  0  0  0  0  0  0  0
   -2.0561    3.9056   -0.4124 C   0  0  0  0  0  0  0  0  0  0  0  0
   -1.3567    4.3409   -1.1341 H   0  0  0  0  0  0  0  0  0  0  0  0
   -3.0739    4.1459   -0.7343 H   0  0  0  0  0  0  0  0  0  0  0  0
   -1.8828    4.3655    0.5662 H   0  0  0  0  0  0  0  0  0  0  0  0
  1  2  1  0  0  0  0
  2  3  1  0  0  0  0
  2  4  1  0  0  0  0
  2  5  1  0  0  0  0
  5  6  2  0  0  0  0
  5  7  1  0  0  0  0
  7  8  1  0  0  0  0
  7  9  1  0  0  0  0
  9 10  1  0  0  0  0
  9 11  1  0  0  0  0
  9 22  1  0  0  0  0
 11 12  1  0  0  0  0
 11 13  1  0  0  0  0
 11 14  1  0  0  0  0
 14 15  1  0  0  0  0
 14 16  1  0  0  0  0
 14 17  1  0  0  0  0
 17 18  1  0  0  0  0
 18 19  1  0  0  0  0
 18 20  1  0  0  0  0
 18 21  1  0  0  0  0
 22 23  2  0  0  0  0
 22 24  1  0  0  0  0
 24 25  1  0  0  0  0
 24 26  1  0  0  0  0
 26 27  1  0  0  0  0
 26 28  1  0  0  0  0
 26 29  1  0  0  0  0
M  END
$$$$

  -OEChem-01062216093D

 29 28  0     1  0  0  0  0  0999 V2000
   -3.3160   -3.3025    0.8874 H   0  0  0  0  0  0  0  0  0  0  0  0
   -3.3245   -2.3376    0.3723 C   0  0  0  0  0  0  0  0  0  0  0  0
   -4.2150   -1.7834    0.6781 H   0  0  0  0  0  0  0  0  0  0  0  0
   -3.3644   -2.5168   -0.7047 H   0  0  0  0  0  0  0  0  0  0  0  0
   -2.0769   -1.5497    0.7243 C   0  0  0  0  0  0  0  0  0  0  0  0
   -1.3298   -1.9614    1.5914 O   0  0  0  0  0  0  0  0  0  0  0  0
   -1.8344   -0.3433    0.0970 N   0  0  0  0  0  0  0  0  0  0  0  0
   -2.4620   -0.1335   -0.6731 H   0  0  0  0  0  0  0  0  0  0  0  0
   -0.5199    0.3395    0.0820 C   0  0  1  0  0  0  0  0  0  0  0  0
    0.0264    0.1214    1.0064 H   0  0  0  0  0  0  0  0  0  0  0  0
    0.3120   -0.1355   -1.1370 C   0  0  0  0  0  0  0  0  0  0  0  0
   -0.2663    0.0453   -2.0484 H   0  0  0  0  0  0  0  0  0  0  0  0
    1.2193    0.4722   -1.2096 H   0  0  0  0  0  0  0  0  0  0  0  0
    0.7415   -1.6097   -1.1151 C   0  0  0  0  0  0  0  0  0  0  0  0
   -0.1393   -2.2566   -1.0893 H   0  0  0  0  0  0  0  0  0  0  0  0
    1.2891   -1.8407   -2.0341 H   0  0  0  0  0  0  0  0  0  0  0  0
    1.8118   -1.9955    0.3308 S   0  0  0  0  0  0  0  0  0  0  0  0
    3.3666   -1.0928   -0.0444 C   0  0  0  0  0  0  0  0  0  0  0  0
    3.1925   -0.0128   -0.0409 H   0  0  0  0  0  0  0  0  0  0  0  0
    4.1231   -1.3238    0.7114 H   0  0  0  0  0  0  0  0  0  0  0  0
    3.7503   -1.3872   -1.0255 H   0  0  0  0  0  0  0  0  0  0  0  0
   -0.6741    1.8785    0.0107 C   0  0  0  0  0  0  0  0  0  0  0  0
    0.3048    2.6023   -0.1149 O   0  0  0  0  0  0  0  0  0  0  0  0
   -1.9324    2.4554   -0.0282 N   0  0  0  0  0  0  0  0  0  0  0  0
   -2.6997    1.8597    0.2662 H   0  0  0  0  0  0  0  0  0  0  0  0
   -2.1398    3.8991   -0.0436 C   0  0  0  0  0  0  0  0  0  0  0  0
   -1.6465    4.3489   -0.9119 H   0  0  0  0  0  0  0  0  0  0  0  0
   -3.2084    4.1277   -0.0999 H   0  0  0  0  0  0  0  0  0  0  0  0
   -1.7342    4.3540    0.8662 H   0  0  0  0  0  0  0  0  0  0  0  0
  1  2  1  0  0  0  0
  2  3  1  0  0  0  0
  2  4  1  0  0  0  0
  2  5  1  0  0  0  0
  5  6  2  0  0  0  0
  5  7  1  0  0  0  0
  7  8  1  0  0  0  0
  7  9  1  0  0  0  0
  9 10  1  0  0  0  0
  9 11  1  0  0  0  0
  9 22  1  0  0  0  0
 11 12  1  0  0  0  0
 11 13  1  0  0  0  0
 11 14  1  0  0  0  0
 14 15  1  0  0  0  0
 14 16  1  0  0  0  0
 14 17  1  0  0  0  0
 17 18  1  0  0  0  0
 18 19  1  0  0  0  0
 18 20  1  0  0  0  0
 18 21  1  0  0  0  0
 22 23  2  0  0  0  0
 22 24  1  0  0  0  0
 24 25  1  0  0  0  0
 24 26  1  0  0  0  0
 26 27  1  0  0  0  0
 26 28  1  0  0  0  0
 26 29  1  0  0  0  0
M  END
$$$$

  -OEChem-01062216093D

 29 28  0     1  0  0  0  0  0999 V2000
   -3.3442   -3.2726    0.8932 H   0  0  0  0  0  0  0  0  0  0  0  0
   -3.3345   -2.3140    0.3664 C   0  0  0  0  0  0  0  0  0  0  0  0
   -4.2159   -1.7405    0.6632 H   0  0  0  0  0  0  0  0  0  0  0  0
   -3.3753   -2.5051   -0.7085 H   0  0  0  0  0  0  0  0  0  0  0  0
   -2.0738   -1.5437    0.7103 C   0  0  0  0  0  0  0  0  0  0  0  0
   -1.3243   -1.9674    1.5695 O   0  0  0  0  0  0  0  0  0  0  0  0
   -1.8229   -0.3352    0.0909 N   0  0  0  0  0  0  0  0  0  0  0  0
   -2.4683   -0.0928   -0.6554 H   0  0  0  0  0  0  0  0  0  0  0  0
   -0.5064    0.3429    0.0746 C   0  0  1  0  0  0  0  0  0  0  0  0
    0.0397    0.1245    0.9990 H   0  0  0  0  0  0  0  0  0  0  0  0
    0.3246   -0.1401   -1.1436 C   0  0  0  0  0  0  0  0  0  0  0  0
   -0.2528    0.0411   -2.0554 H   0  0  0  0  0  0  0  0  0  0  0  0
    1.2354    0.4613   -1.2177 H   0  0  0  0  0  0  0  0  0  0  0  0
    0.7492   -1.6158   -1.1180 C   0  0  0  0  0  0  0  0  0  0  0  0
   -0.1332   -2.2604   -1.0909 H   0  0  0  0  0  0  0  0  0  0  0  0
    1.2964   -1.8507   -2.0362 H   0  0  0  0  0  0  0  0  0  0  0  0
    1.8184   -1.9991    0.3299 S   0  0  0  0  0  0  0  0  0  0  0  0
    3.3773   -1.1031   -0.0447 C   0  0  0  0  0  0  0  0  0  0  0  0
    3.2066   -0.0226   -0.0498 H   0  0  0  0  0  0  0  0  0  0  0  0
    4.1300   -1.3311    0.7158 H   0  0  0  0  0  0  0  0  0  0  0  0
    3.7640   -1.4057   -1.0221 H   0  0  0  0  0  0  0  0  0  0  0  0
   -0.6749    1.8820    0.0121 C   0  0  0  0  0  0  0  0  0  0  0  0
    0.2398    2.6133   -0.3439 O   0  0  0  0  0  0  0  0  0  0  0  0
   -1.9044    2.4533    0.2918 N   0  0  0  0  0  0  0  0  0  0  0  0
   -2.5865    1.8440    0.7344 H   0  0  0  0  0  0  0  0  0  0  0  0
   -2.1248    3.8946    0.3257 C   0  0  0  0  0  0  0  0  0  0  0  0
   -1.8750    4.3440   -0.6413 H   0  0  0  0  0  0  0  0  0  0  0  0
   -3.1747    4.1122    0.5439 H   0  0  0  0  0  0  0  0  0  0  0  0
   -1.5050    4.3590    1.0999 H   0  0  0  0  0  0  0  0  0  0  0  0
  1  2  1  0  0  0  0
  2  3  1  0  0  0  0
  2  4  1  0  0  0  0
  2  5  1  0  0  0  0
  5  6  2  0  0  0  0
  5  7  1  0  0  0  0
  7  8  1  0  0  0  0
  7  9  1  0  0  0  0
  9 10  1  0  0  0  0
  9 11  1  0  0  0  0
  9 22  1  0  0  0  0
 11 12  1  0  0  0  0
 11 13  1  0  0  0  0
 11 14  1  0  0  0  0
 14 15  1  0  0  0  0
 14 16  1  0  0  0  0
 14 17  1  0  0  0  0
 17 18  1  0  0  0  0
 18 19  1  0  0  0  0
 18 20  1  0  0  0  0
 18 21  1  0  0  0  0
 22 23  2  0  0  0  0
 22 24  1  0  0  0  0
 24 25  1  0  0  0  0
 24 26  1  0  0  0  0
 26 27  1  0  0  0  0
 26 28  1  0  0  0  0
 26 29  1  0  0  0  0
M  END
$$$$

  -OEChem-01062216093D

 29 28  0     1  0  0  0  0  0999 V2000
   -3.3693   -3.2444    0.8789 H   0  0  0  0  0  0  0  0  0  0  0  0
   -3.3518   -2.2793    0.3641 C   0  0  0  0  0  0  0  0  0  0  0  0
   -4.2181   -1.6944    0.6825 H   0  0  0  0  0  0  0  0  0  0  0  0
   -3.4138   -2.4558   -0.7125 H   0  0  0  0  0  0  0  0  0  0  0  0
   -2.0723   -1.5350    0.6965 C   0  0  0  0  0  0  0  0  0  0  0  0
   -1.3194   -1.9772    1.5435 O   0  0  0  0  0  0  0  0  0  0  0  0
   -1.8094   -0.3249    0.0863 N   0  0  0  0  0  0  0  0  0  0  0  0
   -2.4702   -0.0506   -0.6353 H   0  0  0  0  0  0  0  0  0  0  0  0
   -0.4904    0.3464    0.0676 C   0  0  1  0  0  0  0  0  0  0  0  0
    0.0555    0.1261    0.9914 H   0  0  0  0  0  0  0  0  0  0  0  0
    0.3416   -0.1419   -1.1479 C   0  0  0  0  0  0  0  0  0  0  0  0
   -0.2340    0.0383   -2.0613 H   0  0  0  0  0  0  0  0  0  0  0  0
    1.2544    0.4568   -1.2219 H   0  0  0  0  0  0  0  0  0  0  0  0
    0.7606   -1.6189   -1.1161 C   0  0  0  0  0  0  0  0  0  0  0  0
   -0.1245   -2.2595   -1.0883 H   0  0  0  0  0  0  0  0  0  0  0  0
    1.3077   -1.8593   -2.0331 H   0  0  0  0  0  0  0  0  0  0  0  0
    1.8258   -2.0031    0.3348 S   0  0  0  0  0  0  0  0  0  0  0  0
    3.3882   -1.1142   -0.0424 C   0  0  0  0  0  0  0  0  0  0  0  0
    3.2228   -0.0330   -0.0497 H   0  0  0  0  0  0  0  0  0  0  0  0
    4.1406   -1.3445    0.7175 H   0  0  0  0  0  0  0  0  0  0  0  0
    3.7725   -1.4205   -1.0196 H   0  0  0  0  0  0  0  0  0  0  0  0
   -0.6719    1.8844    0.0153 C   0  0  0  0  0  0  0  0  0  0  0  0
    0.1130    2.6157   -0.5750 O   0  0  0  0  0  0  0  0  0  0  0  0
   -1.7907    2.4524    0.5981 N   0  0  0  0  0  0  0  0  0  0  0  0
   -2.3593    1.8355    1.1721 H   0  0  0  0  0  0  0  0  0  0  0  0
   -2.0206    3.8908    0.6637 C   0  0  0  0  0  0  0  0  0  0  0  0
   -2.0494    4.3213   -0.3428 H   0  0  0  0  0  0  0  0  0  0  0  0
   -2.9763    4.0991    1.1542 H   0  0  0  0  0  0  0  0  0  0  0  0
   -1.2240    4.3806    1.2335 H   0  0  0  0  0  0  0  0  0  0  0  0
  1  2  1  0  0  0  0
  2  3  1  0  0  0  0
  2  4  1  0  0  0  0
  2  5  1  0  0  0  0
  5  6  2  0  0  0  0
  5  7  1  0  0  0  0
  7  8  1  0  0  0  0
  7  9  1  0  0  0  0
  9 10  1  0  0  0  0
  9 11  1  0  0  0  0
  9 22  1  0  0  0  0
 11 12  1  0  0  0  0
 11 13  1  0  0  0  0
 11 14  1  0  0  0  0
 14 15  1  0  0  0  0
 14 16  1  0  0  0  0
 14 17  1  0  0  0  0
 17 18  1  0  0  0  0
 18 19  1  0  0  0  0
 18 20  1  0  0  0  0
 18 21  1  0  0  0  0
 22 23  2  0  0  0  0
 22 24  1  0  0  0  0
 24 25  1  0  0  0  0
 24 26  1  0  0  0  0
 26 27  1  0  0  0  0
 26 28  1  0  0  0  0
 26 29  1  0  0  0  0
M  END
$$$$

  -OEChem-01062216093D

 29 28  0     1  0  0  0  0  0999 V2000
   -3.3960   -3.2131    0.8819 H   0  0  0  0  0  0  0  0  0  0  0  0
   -3.3658   -2.2489    0.3663 C   0  0  0  0  0  0  0  0  0  0  0  0
   -4.2199   -1.6493    0.6900 H   0  0  0  0  0  0  0  0  0  0  0  0
   -3.4379   -2.4248   -0.7097 H   0  0  0  0  0  0  0  0  0  0  0  0
   -2.0719   -1.5262    0.6895 C   0  0  0  0  0  0  0  0  0  0  0  0
   -1.3161   -1.9839    1.5260 O   0  0  0  0  0  0  0  0  0  0  0  0
   -1.7993   -0.3144    0.0880 N   0  0  0  0  0  0  0  0  0  0  0  0
   -2.4710   -0.0138   -0.6131 H   0  0  0  0  0  0  0  0  0  0  0  0
   -0.4768    0.3462    0.0674 C   0  0  1  0  0  0  0  0  0  0  0  0
    0.0703    0.1186    0.9888 H   0  0  0  0  0  0  0  0  0  0  0  0
    0.3557   -0.1393   -1.1486 C   0  0  0  0  0  0  0  0  0  0  0  0
   -0.2176    0.0463   -2.0624 H   0  0  0  0  0  0  0  0  0  0  0  0
    1.2687    0.4601   -1.2162 H   0  0  0  0  0  0  0  0  0  0  0  0
    0.7692   -1.6176   -1.1236 C   0  0  0  0  0  0  0  0  0  0  0  0
   -0.1190   -2.2545   -1.0995 H   0  0  0  0  0  0  0  0  0  0  0  0
    1.3164   -1.8561   -2.0408 H   0  0  0  0  0  0  0  0  0  0  0  0
    1.8302   -2.0114    0.3281 S   0  0  0  0  0  0  0  0  0  0  0  0
    3.3962   -1.1259   -0.0415 C   0  0  0  0  0  0  0  0  0  0  0  0
    3.2337   -0.0443   -0.0475 H   0  0  0  0  0  0  0  0  0  0  0  0
    4.1447   -1.3594    0.7213 H   0  0  0  0  0  0  0  0  0  0  0  0
    3.7839   -1.4314   -1.0177 H   0  0  0  0  0  0  0  0  0  0  0  0
   -0.6627    1.8827    0.0271 C   0  0  0  0  0  0  0  0  0  0  0  0
   -0.0671    2.5988   -0.7682 O   0  0  0  0  0  0  0  0  0  0  0  0
   -1.5910    2.4622    0.8723 N   0  0  0  0  0  0  0  0  0  0  0  0
   -2.0290    1.8497    1.5556 H   0  0  0  0  0  0  0  0  0  0  0  0
   -1.8324    3.8981    0.9458 C   0  0  0  0  0  0  0  0  0  0  0  0
   -2.1503    4.2841   -0.0285 H   0  0  0  0  0  0  0  0  0  0  0  0
   -2.6198    4.1121    1.6749 H   0  0  0  0  0  0  0  0  0  0  0  0
   -0.9228    4.4244    1.2538 H   0  0  0  0  0  0  0  0  0  0  0  0
  1  2  1  0  0  0  0
  2  3  1  0  0  0  0
  2  4  1  0  0  0  0
  2  5  1  0  0  0  0
  5  6  2  0  0  0  0
  5  7  1  0  0  0  0
  7  8  1  0  0  0  0
  7  9  1  0  0  0  0
  9 10  1  0  0  0  0
  9 11  1  0  0  0  0
  9 22  1  0  0  0  0
 11 12  1  0  0  0  0
 11 13  1  0  0  0  0
 11 14  1  0  0  0  0
 14 15  1  0  0  0  0
 14 16  1  0  0  0  0
 14 17  1  0  0  0  0
 17 18  1  0  0  0  0
 18 19  1  0  0  0  0
 18 20  1  0  0  0  0
 18 21  1  0  0  0  0
 22 23  2  0  0  0  0
 22 24  1  0  0  0  0
 24 25  1  0  0  0  0
 24 26  1  0  0  0  0
 26 27  1  0  0  0  0
 26 28  1  0  0  0  0
 26 29  1  0  0  0  0
M  END
$$$$

  -OEChem-01062216093D

 29 28  0     1  0  0  0  0  0999 V2000
   -3.4127   -3.1949    0.8779 H   0  0  0  0  0  0  0  0  0  0  0  0
   -3.3784   -2.2253    0.3729 C   0  0  0  0  0  0  0  0  0  0  0  0
   -4.2202   -1.6191    0.7158 H   0  0  0  0  0  0  0  0  0  0  0  0
   -3.4680   -2.3874   -0.7038 H   0  0  0  0  0  0  0  0  0  0  0  0
   -2.0713   -1.5220    0.6854 C   0  0  0  0  0  0  0  0  0  0  0  0
   -1.3107   -1.9969    1.5083 O   0  0  0  0  0  0  0  0  0  0  0  0
   -1.7898   -0.3088    0.0913 N   0  0  0  0  0  0  0  0  0  0  0  0
   -2.4665    0.0116   -0.5963 H   0  0  0  0  0  0  0  0  0  0  0  0
   -0.4651    0.3437    0.0742 C   0  0  1  0  0  0  0  0  0  0  0  0
    0.0819    0.1071    0.9933 H   0  0  0  0  0  0  0  0  0  0  0  0
    0.3671   -0.1344   -1.1440 C   0  0  0  0  0  0  0  0  0  0  0  0
   -0.2058    0.0578   -2.0570 H   0  0  0  0  0  0  0  0  0  0  0  0
    1.2788    0.4674   -1.2056 H   0  0  0  0  0  0  0  0  0  0  0  0
    0.7759   -1.6139   -1.1319 C   0  0  0  0  0  0  0  0  0  0  0  0
   -0.1150   -2.2473   -1.1157 H   0  0  0  0  0  0  0  0  0  0  0  0
    1.3239   -1.8458   -2.0503 H   0  0  0  0  0  0  0  0  0  0  0  0
    1.8342   -2.0234    0.3177 S   0  0  0  0  0  0  0  0  0  0  0  0
    3.4035   -1.1393   -0.0419 C   0  0  0  0  0  0  0  0  0  0  0  0
    3.2450   -0.0575   -0.0301 H   0  0  0  0  0  0  0  0  0  0  0  0
    4.1531   -1.3879    0.7151 H   0  0  0  0  0  0  0  0  0  0  0  0
    3.7877   -1.4298   -1.0239 H   0  0  0  0  0  0  0  0  0  0  0  0
   -0.6484    1.8789    0.0426 C   0  0  0  0  0  0  0  0  0  0  0  0
   -0.2819    2.5650   -0.9037 O   0  0  0  0  0  0  0  0  0  0  0  0
   -1.3259    2.4884    1.0821 N   0  0  0  0  0  0  0  0  0  0  0  0
   -1.6206    1.8929    1.8520 H   0  0  0  0  0  0  0  0  0  0  0  0
   -1.5774    3.9225    1.1533 C   0  0  0  0  0  0  0  0  0  0  0  0
   -2.1600    4.2536    0.2872 H   0  0  0  0  0  0  0  0  0  0  0  0
   -2.1406    4.1633    2.0601 H   0  0  0  0  0  0  0  0  0  0  0  0
   -0.6328    4.4762    1.1751 H   0  0  0  0  0  0  0  0  0  0  0  0
  1  2  1  0  0  0  0
  2  3  1  0  0  0  0
  2  4  1  0  0  0  0
  2  5  1  0  0  0  0
  5  6  2  0  0  0  0
  5  7  1  0  0  0  0
  7  8  1  0  0  0  0
  7  9  1  0  0  0  0
  9 10  1  0  0  0  0
  9 11  1  0  0  0  0
  9 22  1  0  0  0  0
 11 12  1  0  0  0  0
 11 13  1  0  0  0  0
 11 14  1  0  0  0  0
 14 15  1  0  0  0  0
 14 16  1  0  0  0  0
 14 17  1  0  0  0  0
 17 18  1  0  0  0  0
 18 19  1  0  0  0  0
 18 20  1  0  0  0  0
 18 21  1  0  0  0  0
 22 23  2  0  0  0  0
 22 24  1  0  0  0  0
 24 25  1  0  0  0  0
 24 26  1  0  0  0  0
 26 27  1  0  0  0  0
 26 28  1  0  0  0  0
 26 29  1  0  0  0  0
M  END
$$$$

  -OEChem-01062216093D

 29 28  0     1  0  0  0  0  0999 V2000
   -3.4309   -3.1775    0.8821 H   0  0  0  0  0  0  0  0  0  0  0  0
   -3.3843   -2.2111    0.3719 C   0  0  0  0  0  0  0  0  0  0  0  0
   -4.2221   -1.5949    0.7070 H   0  0  0  0  0  0  0  0  0  0  0  0
   -3.4703   -2.3786   -0.7043 H   0  0  0  0  0  0  0  0  0  0  0  0
   -2.0721   -1.5182    0.6868 C   0  0  0  0  0  0  0  0  0  0  0  0
   -1.3120   -2.0037    1.5043 O   0  0  0  0  0  0  0  0  0  0  0  0
   -1.7823   -0.3054    0.0967 N   0  0  0  0  0  0  0  0  0  0  0  0
   -2.4597    0.0276   -0.5845 H   0  0  0  0  0  0  0  0  0  0  0  0
   -0.4563    0.3415    0.0837 C   0  0  1  0  0  0  0  0  0  0  0  0
    0.0907    0.0957    1.0004 H   0  0  0  0  0  0  0  0  0  0  0  0
    0.3739   -0.1298   -1.1375 C   0  0  0  0  0  0  0  0  0  0  0  0
   -0.2003    0.0658   -2.0490 H   0  0  0  0  0  0  0  0  0  0  0  0
    1.2841    0.4744   -1.1970 H   0  0  0  0  0  0  0  0  0  0  0  0
    0.7779   -1.6107   -1.1353 C   0  0  0  0  0  0  0  0  0  0  0  0
   -0.1155   -2.2412   -1.1209 H   0  0  0  0  0  0  0  0  0  0  0  0
    1.3238   -1.8393   -2.0558 H   0  0  0  0  0  0  0  0  0  0  0  0
    1.8351   -2.0328    0.3113 S   0  0  0  0  0  0  0  0  0  0  0  0
    3.4057   -1.1501   -0.0468 C   0  0  0  0  0  0  0  0  0  0  0  0
    3.2490   -0.0679   -0.0347 H   0  0  0  0  0  0  0  0  0  0  0  0
    4.1553   -1.4003    0.7097 H   0  0  0  0  0  0  0  0  0  0  0  0
    3.7895   -1.4414   -1.0289 H   0  0  0  0  0  0  0  0  0  0  0  0
   -0.6295    1.8762    0.0548 C   0  0  0  0  0  0  0  0  0  0  0  0
   -0.5177    2.5223   -0.9801 O   0  0  0  0  0  0  0  0  0  0  0  0
   -1.0145    2.5275    1.2115 N   0  0  0  0  0  0  0  0  0  0  0  0
   -1.1518    1.9559    2.0413 H   0  0  0  0  0  0  0  0  0  0  0  0
   -1.2702    3.9608    1.2847 C   0  0  0  0  0  0  0  0  0  0  0  0
   -2.0820    4.2405    0.6051 H   0  0  0  0  0  0  0  0  0  0  0  0
   -1.5587    4.2420    2.3020 H   0  0  0  0  0  0  0  0  0  0  0  0
   -0.3721    4.5250    1.0122 H   0  0  0  0  0  0  0  0  0  0  0  0
  1  2  1  0  0  0  0
  2  3  1  0  0  0  0
  2  4  1  0  0  0  0
  2  5  1  0  0  0  0
  5  6  2  0  0  0  0
  5  7  1  0  0  0  0
  7  8  1  0  0  0  0
  7  9  1  0  0  0  0
  9 10  1  0  0  0  0
  9 11  1  0  0  0  0
  9 22  1  0  0  0  0
 11 12  1  0  0  0  0
 11 13  1  0  0  0  0
 11 14  1  0  0  0  0
 14 15  1  0  0  0  0
 14 16  1  0  0  0  0
 14 17  1  0  0  0  0
 17 18  1  0  0  0  0
 18 19  1  0  0  0  0
 18 20  1  0  0  0  0
 18 21  1  0  0  0  0
 22 23  2  0  0  0  0
 22 24  1  0  0  0  0
 24 25  1  0  0  0  0
 24 26  1  0  0  0  0
 26 27  1  0  0  0  0
 26 28  1  0  0  0  0
 26 29  1  0  0  0  0
M  END
$$$$

  -OEChem-01062216093D

 29 28  0     1  0  0  0  0  0999 V2000
   -3.4578   -3.1573    0.8898 H   0  0  0  0  0  0  0  0  0  0  0  0
   -3.4013   -2.1897    0.3835 C   0  0  0  0  0  0  0  0  0  0  0  0
   -4.2221   -1.5598    0.7345 H   0  0  0  0  0  0  0  0  0  0  0  0
   -3.5064   -2.3503   -0.6921 H   0  0  0  0  0  0  0  0  0  0  0  0
   -2.0725   -1.5219    0.6818 C   0  0  0  0  0  0  0  0  0  0  0  0
   -1.3058   -2.0286    1.4805 O   0  0  0  0  0  0  0  0  0  0  0  0
   -1.7723   -0.3102    0.0951 N   0  0  0  0  0  0  0  0  0  0  0  0
   -2.4571    0.0483   -0.5659 H   0  0  0  0  0  0  0  0  0  0  0  0
   -0.4461    0.3334    0.0882 C   0  0  1  0  0  0  0  0  0  0  0  0
    0.0983    0.0793    1.0036 H   0  0  0  0  0  0  0  0  0  0  0  0
    0.3856   -0.1254   -1.1354 C   0  0  0  0  0  0  0  0  0  0  0  0
   -0.1877    0.0771   -2.0461 H   0  0  0  0  0  0  0  0  0  0  0  0
    1.2952    0.4803   -1.1887 H   0  0  0  0  0  0  0  0  0  0  0  0
    0.7871   -1.6067   -1.1447 C   0  0  0  0  0  0  0  0  0  0  0  0
   -0.1078   -2.2353   -1.1370 H   0  0  0  0  0  0  0  0  0  0  0  0
    1.3341   -1.8294   -2.0658 H   0  0  0  0  0  0  0  0  0  0  0  0
    1.8404   -2.0410    0.3015 S   0  0  0  0  0  0  0  0  0  0  0  0
    3.4129   -1.1578   -0.0454 C   0  0  0  0  0  0  0  0  0  0  0  0
    3.2582   -0.0755   -0.0236 H   0  0  0  0  0  0  0  0  0  0  0  0
    4.1602   -1.4165    0.7106 H   0  0  0  0  0  0  0  0  0  0  0  0
    3.7976   -1.4408   -1.0294 H   0  0  0  0  0  0  0  0  0  0  0  0
   -0.6127    1.8670    0.0586 C   0  0  0  0  0  0  0  0  0  0  0  0
   -0.7761    2.4672   -0.9971 O   0  0  0  0  0  0  0  0  0  0  0  0
   -0.6901    2.5662    1.2484 N   0  0  0  0  0  0  0  0  0  0  0  0
   -0.6348    2.0276    2.1092 H   0  0  0  0  0  0  0  0  0  0  0  0
   -0.9436    3.9997    1.3243 C   0  0  0  0  0  0  0  0  0  0  0  0
   -1.9116    4.2422    0.8734 H   0  0  0  0  0  0  0  0  0  0  0  0
   -0.9567    4.3270    2.3684 H   0  0  0  0  0  0  0  0  0  0  0  0
   -0.1602    4.5554    0.7983 H   0  0  0  0  0  0  0  0  0  0  0  0
  1  2  1  0  0  0  0
  2  3  1  0  0  0  0
  2  4  1  0  0  0  0
  2  5  1  0  0  0  0
  5  6  2  0  0  0  0
  5  7  1  0  0  0  0
  7  8  1  0  0  0  0
  7  9  1  0  0  0  0
  9 10  1  0  0  0  0
  9 11  1  0  0  0  0
  9 22  1  0  0  0  0
 11 12  1  0  0  0  0
 11 13  1  0  0  0  0
 11 14  1  0  0  0  0
 14 15  1  0  0  0  0
 14 16  1  0  0  0  0
 14 17  1  0  0  0  0
 17 18  1  0  0  0  0
 18 19  1  0  0  0  0
 18 20  1  0  0  0  0
 18 21  1  0  0  0  0
 22 23  2  0  0  0  0
 22 24  1  0  0  0  0
 24 25  1  0  0  0  0
 24 26  1  0  0  0  0
 26 27  1  0  0  0  0
 26 28  1  0  0  0  0
 26 29  1  0  0  0  0
M  END
$$$$

  -OEChem-01062216093D

 29 28  0     1  0  0  0  0  0999 V2000
   -3.4888   -3.1378    0.9056 H   0  0  0  0  0  0  0  0  0  0  0  0
   -3.4226   -2.1694    0.4013 C   0  0  0  0  0  0  0  0  0  0  0  0
   -4.2235   -1.5242    0.7699 H   0  0  0  0  0  0  0  0  0  0  0  0
   -3.5522   -2.3232   -0.6726 H   0  0  0  0  0  0  0  0  0  0  0  0
   -2.0747   -1.5295    0.6747 C   0  0  0  0  0  0  0  0  0  0  0  0
   -1.2985   -2.0595    1.4490 O   0  0  0  0  0  0  0  0  0  0  0  0
   -1.7636   -0.3201    0.0893 N   0  0  0  0  0  0  0  0  0  0  0  0
   -2.4598    0.0707   -0.5415 H   0  0  0  0  0  0  0  0  0  0  0  0
   -0.4382    0.3234    0.0894 C   0  0  1  0  0  0  0  0  0  0  0  0
    0.1018    0.0654    1.0062 H   0  0  0  0  0  0  0  0  0  0  0  0
    0.3975   -0.1214   -1.1352 C   0  0  0  0  0  0  0  0  0  0  0  0
   -0.1745    0.0885   -2.0452 H   0  0  0  0  0  0  0  0  0  0  0  0
    1.3061    0.4863   -1.1809 H   0  0  0  0  0  0  0  0  0  0  0  0
    0.8005   -1.6022   -1.1560 C   0  0  0  0  0  0  0  0  0  0  0  0
   -0.0944   -2.2309   -1.1553 H   0  0  0  0  0  0  0  0  0  0  0  0
    1.3496   -1.8172   -2.0779 H   0  0  0  0  0  0  0  0  0  0  0  0
    1.8495   -2.0495    0.2895 S   0  0  0  0  0  0  0  0  0  0  0  0
    3.4239   -1.1637   -0.0413 C   0  0  0  0  0  0  0  0  0  0  0  0
    3.2710   -0.0816   -0.0038 H   0  0  0  0  0  0  0  0  0  0  0  0
    4.1695   -1.4352    0.7118 H   0  0  0  0  0  0  0  0  0  0  0  0
    3.8103   -1.4337   -1.0283 H   0  0  0  0  0  0  0  0  0  0  0  0
   -0.6030    1.8558    0.0543 C   0  0  0  0  0  0  0  0  0  0  0  0
   -1.0242    2.4119   -0.9532 O   0  0  0  0  0  0  0  0  0  0  0  0
   -0.3802    2.6029    1.1957 N   0  0  0  0  0  0  0  0  0  0  0  0
   -0.1226    2.0990    2.0403 H   0  0  0  0  0  0  0  0  0  0  0  0
   -0.6149    4.0397    1.2725 C   0  0  0  0  0  0  0  0  0  0  0  0
   -1.6671    4.2674    1.0720 H   0  0  0  0  0  0  0  0  0  0  0  0
   -0.3647    4.4114    2.2709 H   0  0  0  0  0  0  0  0  0  0  0  0
    0.0060    4.5689    0.5419 H   0  0  0  0  0  0  0  0  0  0  0  0
  1  2  1  0  0  0  0
  2  3  1  0  0  0  0
  2  4  1  0  0  0  0
  2  5  1  0  0  0  0
  5  6  2  0  0  0  0
  5  7  1  0  0  0  0
  7  8  1  0  0  0  0
  7  9  1  0  0  0  0
  9 10  1  0  0  0  0
  9 11  1  0  0  0  0
  9 22  1  0  0  0  0
 11 12  1  0  0  0  0
 11 13  1  0  0  0  0
 11 14  1  0  0  0  0
 14 15  1  0  0  0  0
 14 16  1  0  0  0  0
 14 17  1  0  0  0  0
 17 18  1  0  0  0  0
 18 19  1  0  0  0  0
 18 20  1  0  0  0  0
 18 21  1  0  0  0  0
 22 23  2  0  0  0  0
 22 24  1  0  0  0  0
 24 25  1  0  0  0  0
 24 26  1  0  0  0  0
 26 27  1  0  0  0  0
 26 28  1  0  0  0  0
 26 29  1  0  0  0  0
M  END
$$$$

  -OEChem-01062216093D

 29 28  0     1  0  0  0  0  0999 V2000
   -3.5230   -3.1168    0.9259 H   0  0  0  0  0  0  0  0  0  0  0  0
   -3.4461   -2.1496    0.4212 C   0  0  0  0  0  0  0  0  0  0  0  0
   -4.2230   -1.4865    0.8092 H   0  0  0  0  0  0  0  0  0  0  0  0
   -3.6042   -2.2986   -0.6497 H   0  0  0  0  0  0  0  0  0  0  0  0
   -2.0778   -1.5414    0.6638 C   0  0  0  0  0  0  0  0  0  0  0  0
   -1.2925   -2.0956    1.4117 O   0  0  0  0  0  0  0  0  0  0  0  0
   -1.7571   -0.3350    0.0783 N   0  0  0  0  0  0  0  0  0  0  0  0
   -2.4685    0.0919   -0.5117 H   0  0  0  0  0  0  0  0  0  0  0  0
   -0.4339    0.3118    0.0866 C   0  0  1  0  0  0  0  0  0  0  0  0
    0.0986    0.0533    1.0077 H   0  0  0  0  0  0  0  0  0  0  0  0
    0.4079   -0.1210   -1.1364 C   0  0  0  0  0  0  0  0  0  0  0  0
   -0.1613    0.0944   -2.0469 H   0  0  0  0  0  0  0  0  0  0  0  0
    1.3151    0.4892   -1.1738 H   0  0  0  0  0  0  0  0  0  0  0  0
    0.8156   -1.6001   -1.1647 C   0  0  0  0  0  0  0  0  0  0  0  0
   -0.0777   -2.2312   -1.1711 H   0  0  0  0  0  0  0  0  0  0  0  0
    1.3689   -1.8084   -2.0856 H   0  0  0  0  0  0  0  0  0  0  0  0
    1.8598   -2.0507    0.2834 S   0  0  0  0  0  0  0  0  0  0  0  0
    3.4321   -1.1570   -0.0359 C   0  0  0  0  0  0  0  0  0  0  0  0
    3.2753   -0.0758    0.0083 H   0  0  0  0  0  0  0  0  0  0  0  0
    4.1758   -1.4310    0.7182 H   0  0  0  0  0  0  0  0  0  0  0  0
    3.8227   -1.4185   -1.0238 H   0  0  0  0  0  0  0  0  0  0  0  0
   -0.5983    1.8431    0.0426 C   0  0  0  0  0  0  0  0  0  0  0  0
   -1.2379    2.3648   -0.8637 O   0  0  0  0  0  0  0  0  0  0  0  0
   -0.0989    2.6301    1.0636 N   0  0  0  0  0  0  0  0  0  0  0  0
    0.3510    2.1564    1.8424 H   0  0  0  0  0  0  0  0  0  0  0  0
   -0.3013    4.0720    1.1348 C   0  0  0  0  0  0  0  0  0  0  0  0
   -1.3697    4.3069    1.1879 H   0  0  0  0  0  0  0  0  0  0  0  0
    0.1870    4.4793    2.0254 H   0  0  0  0  0  0  0  0  0  0  0  0
    0.1244    4.5625    0.2531 H   0  0  0  0  0  0  0  0  0  0  0  0
  1  2  1  0  0  0  0
  2  3  1  0  0  0  0
  2  4  1  0  0  0  0
  2  5  1  0  0  0  0
  5  6  2  0  0  0  0
  5  7  1  0  0  0  0
  7  8  1  0  0  0  0
  7  9  1  0  0  0  0
  9 10  1  0  0  0  0
  9 11  1  0  0  0  0
  9 22  1  0  0  0  0
 11 12  1  0  0  0  0
 11 13  1  0  0  0  0
 11 14  1  0  0  0  0
 14 15  1  0  0  0  0
 14 16  1  0  0  0  0
 14 17  1  0  0  0  0
 17 18  1  0  0  0  0
 18 19  1  0  0  0  0
 18 20  1  0  0  0  0
 18 21  1  0  0  0  0
 22 23  2  0  0  0  0
 22 24  1  0  0  0  0
 24 25  1  0  0  0  0
 24 26  1  0  0  0  0
 26 27  1  0  0  0  0
 26 28  1  0  0  0  0
 26 29  1  0  0  0  0
M  END
$$$$

  -OEChem-01062216093D

 29 28  0     1  0  0  0  0  0999 V2000
   -3.5505   -3.1063    0.9416 H   0  0  0  0  0  0  0  0  0  0  0  0
   -3.4701   -2.1352    0.4450 C   0  0  0  0  0  0  0  0  0  0  0  0
   -4.2177   -1.4600    0.8681 H   0  0  0  0  0  0  0  0  0  0  0  0
   -3.6689   -2.2680   -0.6210 H   0  0  0  0  0  0  0  0  0  0  0  0
   -2.0811   -1.5596    0.6458 C   0  0  0  0  0  0  0  0  0  0  0  0
   -1.2839   -2.1386    1.3615 O   0  0  0  0  0  0  0  0  0  0  0  0
   -1.7548   -0.3538    0.0623 N   0  0  0  0  0  0  0  0  0  0  0  0
   -2.4848    0.1129   -0.4733 H   0  0  0  0  0  0  0  0  0  0  0  0
   -0.4356    0.3012    0.0807 C   0  0  1  0  0  0  0  0  0  0  0  0
    0.0901    0.0450    1.0063 H   0  0  0  0  0  0  0  0  0  0  0  0
    0.4144   -0.1202   -1.1402 C   0  0  0  0  0  0  0  0  0  0  0  0
   -0.1538    0.0965   -2.0510 H   0  0  0  0  0  0  0  0  0  0  0  0
    1.3182    0.4951   -1.1726 H   0  0  0  0  0  0  0  0  0  0  0  0
    0.8314   -1.5963   -1.1739 C   0  0  0  0  0  0  0  0  0  0  0  0
   -0.0583   -2.2325   -1.1861 H   0  0  0  0  0  0  0  0  0  0  0  0
    1.3904   -1.7978   -2.0928 H   0  0  0  0  0  0  0  0  0  0  0  0
    1.8718   -2.0453    0.2777 S   0  0  0  0  0  0  0  0  0  0  0  0
    3.4406   -1.1406   -0.0284 C   0  0  0  0  0  0  0  0  0  0  0  0
    3.2736   -0.0606    0.0032 H   0  0  0  0  0  0  0  0  0  0  0  0
    4.1762   -1.4008    0.7385 H   0  0  0  0  0  0  0  0  0  0  0  0
    3.8477   -1.4081   -1.0079 H   0  0  0  0  0  0  0  0  0  0  0  0
   -0.6038    1.8318    0.0305 C   0  0  0  0  0  0  0  0  0  0  0  0
   -1.4199    2.3330   -0.7351 O   0  0  0  0  0  0  0  0  0  0  0  0
    0.1337    2.6454    0.8702 N   0  0  0  0  0  0  0  0  0  0  0  0
    0.7438    2.1920    1.5450 H   0  0  0  0  0  0  0  0  0  0  0  0
   -0.0197    4.0944    0.9168 C   0  0  0  0  0  0  0  0  0  0  0  0
   -1.0454    4.3630    1.1908 H   0  0  0  0  0  0  0  0  0  0  0  0
    0.6603    4.5231    1.6593 H   0  0  0  0  0  0  0  0  0  0  0  0
    0.2114    4.5354   -0.0586 H   0  0  0  0  0  0  0  0  0  0  0  0
  1  2  1  0  0  0  0
  2  3  1  0  0  0  0
  2  4  1  0  0  0  0
  2  5  1  0  0  0  0
  5  6  2  0  0  0  0
  5  7  1  0  0  0  0
  7  8  1  0  0  0  0
  7  9  1  0  0  0  0
  9 10  1  0  0  0  0
  9 11  1  0  0  0  0
  9 22  1  0  0  0  0
 11 12  1  0  0  0  0
 11 13  1  0  0  0  0
 11 14  1  0  0  0  0
 14 15  1  0  0  0  0
 14 16  1  0  0  0  0
 14 17  1  0  0  0  0
 17 18  1  0  0  0  0
 18 19  1  0  0  0  0
 18 20  1  0  0  0  0
 18 21  1  0  0  0  0
 22 23  2  0  0  0  0
 22 24  1  0  0  0  0
 24 25  1  0  0  0  0
 24 26  1  0  0  0  0
 26 27  1  0  0  0  0
 26 28  1  0  0  0  0
 26 29  1  0  0  0  0
M  END
$$$$

  -OEChem-01062216093D

 29 28  0     1  0  0  0  0  0999 V2000
   -3.5693   -3.0952    0.9604 H   0  0  0  0  0  0  0  0  0  0  0  0
   -3.4840   -2.1259    0.4608 C   0  0  0  0  0  0  0  0  0  0  0  0
   -4.2111   -1.4379    0.8990 H   0  0  0  0  0  0  0  0  0  0  0  0
   -3.7082   -2.2558   -0.6006 H   0  0  0  0  0  0  0  0  0  0  0  0
   -2.0817   -1.5730    0.6294 C   0  0  0  0  0  0  0  0  0  0  0  0
   -1.2732   -2.1742    1.3135 O   0  0  0  0  0  0  0  0  0  0  0  0
   -1.7538   -0.3675    0.0466 N   0  0  0  0  0  0  0  0  0  0  0  0
   -2.5023    0.1352   -0.4284 H   0  0  0  0  0  0  0  0  0  0  0  0
   -0.4390    0.2964    0.0739 C   0  0  1  0  0  0  0  0  0  0  0  0
    0.0815    0.0454    1.0041 H   0  0  0  0  0  0  0  0  0  0  0  0
    0.4168   -0.1213   -1.1443 C   0  0  0  0  0  0  0  0  0  0  0  0
   -0.1504    0.0934   -2.0562 H   0  0  0  0  0  0  0  0  0  0  0  0
    1.3185    0.4970   -1.1747 H   0  0  0  0  0  0  0  0  0  0  0  0
    0.8416   -1.5952   -1.1776 C   0  0  0  0  0  0  0  0  0  0  0  0
   -0.0448   -2.2362   -1.1923 H   0  0  0  0  0  0  0  0  0  0  0  0
    1.4036   -1.7937   -2.0954 H   0  0  0  0  0  0  0  0  0  0  0  0
    1.8804   -2.0388    0.2770 S   0  0  0  0  0  0  0  0  0  0  0  0
    3.4468   -1.1277   -0.0206 C   0  0  0  0  0  0  0  0  0  0  0  0
    3.2758   -0.0482    0.0053 H   0  0  0  0  0  0  0  0  0  0  0  0
    4.1772   -1.3823    0.7533 H   0  0  0  0  0  0  0  0  0  0  0  0
    3.8621   -1.3983   -0.9959 H   0  0  0  0  0  0  0  0  0  0  0  0
   -0.6104    1.8275    0.0175 C   0  0  0  0  0  0  0  0  0  0  0  0
   -1.5683    2.3178   -0.5711 O   0  0  0  0  0  0  0  0  0  0  0  0
    0.3159    2.6572    0.6219 N   0  0  0  0  0  0  0  0  0  0  0  0
    1.0613    2.2179    1.1551 H   0  0  0  0  0  0  0  0  0  0  0  0
    0.1969    4.1101    0.6380 C   0  0  0  0  0  0  0  0  0  0  0  0
   -0.7272    4.4138    1.1411 H   0  0  0  0  0  0  0  0  0  0  0  0
    1.0431    4.5532    1.1721 H   0  0  0  0  0  0  0  0  0  0  0  0
    0.1885    4.5051   -0.3833 H   0  0  0  0  0  0  0  0  0  0  0  0
  1  2  1  0  0  0  0
  2  3  1  0  0  0  0
  2  4  1  0  0  0  0
  2  5  1  0  0  0  0
  5  6  2  0  0  0  0
  5  7  1  0  0  0  0
  7  8  1  0  0  0  0
  7  9  1  0  0  0  0
  9 10  1  0  0  0  0
  9 11  1  0  0  0  0
  9 22  1  0  0  0  0
 11 12  1  0  0  0  0
 11 13  1  0  0  0  0
 11 14  1  0  0  0  0
 14 15  1  0  0  0  0
 14 16  1  0  0  0  0
 14 17  1  0  0  0  0
 17 18  1  0  0  0  0
 18 19  1  0  0  0  0
 18 20  1  0  0  0  0
 18 21  1  0  0  0  0
 22 23  2  0  0  0  0
 22 24  1  0  0  0  0
 24 25  1  0  0  0  0
 24 26  1  0  0  0  0
 26 27  1  0  0  0  0
 26 28  1  0  0  0  0
 26 29  1  0  0  0  0
M  END
$$$$

  -OEChem-01062216093D

 29 28  0     1  0  0  0  0  0999 V2000
   -3.5822   -3.0823    0.9778 H   0  0  0  0  0  0  0  0  0  0  0  0
   -3.4933   -2.1160    0.4733 C   0  0  0  0  0  0  0  0  0  0  0  0
   -4.2002   -1.4160    0.9251 H   0  0  0  0  0  0  0  0  0  0  0  0
   -3.7427   -2.2458   -0.5825 H   0  0  0  0  0  0  0  0  0  0  0  0
   -2.0795   -1.5839    0.6093 C   0  0  0  0  0  0  0  0  0  0  0  0
   -1.2623   -2.2045    1.2648 O   0  0  0  0  0  0  0  0  0  0  0  0
   -1.7512   -0.3773    0.0286 N   0  0  0  0  0  0  0  0  0  0  0  0
   -2.5156    0.1581   -0.3816 H   0  0  0  0  0  0  0  0  0  0  0  0
   -0.4399    0.2943    0.0673 C   0  0  1  0  0  0  0  0  0  0  0  0
    0.0757    0.0485    1.0016 H   0  0  0  0  0  0  0  0  0  0  0  0
    0.4216   -0.1261   -1.1483 C   0  0  0  0  0  0  0  0  0  0  0  0
   -0.1438    0.0849   -2.0621 H   0  0  0  0  0  0  0  0  0  0  0  0
    1.3234    0.4917   -1.1797 H   0  0  0  0  0  0  0  0  0  0  0  0
    0.8510   -1.5988   -1.1784 C   0  0  0  0  0  0  0  0  0  0  0  0
   -0.0327   -2.2433   -1.1956 H   0  0  0  0  0  0  0  0  0  0  0  0
    1.4167   -1.7965   -2.0939 H   0  0  0  0  0  0  0  0  0  0  0  0
    1.8876   -2.0371    0.2795 S   0  0  0  0  0  0  0  0  0  0  0  0
    3.4517   -1.1215   -0.0163 C   0  0  0  0  0  0  0  0  0  0  0  0
    3.2777   -0.0426    0.0070 H   0  0  0  0  0  0  0  0  0  0  0  0
    4.1815   -1.3725    0.7592 H   0  0  0  0  0  0  0  0  0  0  0  0
    3.8694   -1.3928   -0.9902 H   0  0  0  0  0  0  0  0  0  0  0  0
   -0.6173    1.8268    0.0073 C   0  0  0  0  0  0  0  0  0  0  0  0
   -1.6775    2.3124   -0.3744 O   0  0  0  0  0  0  0  0  0  0  0  0
    0.4310    2.6662    0.3383 N   0  0  0  0  0  0  0  0  0  0  0  0
    1.2765    2.2374    0.7037 H   0  0  0  0  0  0  0  0  0  0  0  0
    0.3296    4.1206    0.3161 C   0  0  0  0  0  0  0  0  0  0  0  0
   -0.4400    4.4620    1.0163 H   0  0  0  0  0  0  0  0  0  0  0  0
    1.2843    4.5707    0.6045 H   0  0  0  0  0  0  0  0  0  0  0  0
    0.0727    4.4719   -0.6888 H   0  0  0  0  0  0  0  0  0  0  0  0
  1  2  1  0  0  0  0
  2  3  1  0  0  0  0
  2  4  1  0  0  0  0
  2  5  1  0  0  0  0
  5  6  2  0  0  0  0
  5  7  1  0  0  0  0
  7  8  1  0  0  0  0
  7  9  1  0  0  0  0
  9 10  1  0  0  0  0
  9 11  1  0  0  0  0
  9 22  1  0  0  0  0
 11 12  1  0  0  0  0
 11 13  1  0  0  0  0
 11 14  1  0  0  0  0
 14 15  1  0  0  0  0
 14 16  1  0  0  0  0
 14 17  1  0  0  0  0
 17 18  1  0  0  0  0
 18 19  1  0  0  0  0
 18 20  1  0  0  0  0
 18 21  1  0  0  0  0
 22 23  2  0  0  0  0
 22 24  1  0  0  0  0
 24 25  1  0  0  0  0
 24 26  1  0  0  0  0
 26 27  1  0  0  0  0
 26 28  1  0  0  0  0
 26 29  1  0  0  0  0
M  END
$$$$

  -OEChem-01062216093D

 29 28  0     1  0  0  0  0  0999 V2000
   -3.5294   -3.0486    1.0551 H   0  0  0  0  0  0  0  0  0  0  0  0
   -3.4650   -2.0887    0.5349 C   0  0  0  0  0  0  0  0  0  0  0  0
   -4.0925   -1.3626    1.0576 H   0  0  0  0  0  0  0  0  0  0  0  0
   -3.8356   -2.2150   -0.4851 H   0  0  0  0  0  0  0  0  0  0  0  0
   -2.0276   -1.6049    0.5062 C   0  0  0  0  0  0  0  0  0  0  0  0
   -1.1526   -2.2823    1.0164 O   0  0  0  0  0  0  0  0  0  0  0  0
   -1.7362   -0.3849   -0.0675 N   0  0  0  0  0  0  0  0  0  0  0  0
   -2.5367    0.2141   -0.2663 H   0  0  0  0  0  0  0  0  0  0  0  0
   -0.4319    0.2972    0.0077 C   0  0  1  0  0  0  0  0  0  0  0  0
    0.1862   -0.1388    0.7999 H   0  0  0  0  0  0  0  0  0  0  0  0
    0.2776    0.1635   -1.3601 C   0  0  0  0  0  0  0  0  0  0  0  0
   -0.3856    0.5557   -2.1382 H   0  0  0  0  0  0  0  0  0  0  0  0
    1.1807    0.7796   -1.3662 H   0  0  0  0  0  0  0  0  0  0  0  0
    0.6763   -1.2709   -1.7347 C   0  0  0  0  0  0  0  0  0  0  0  0
   -0.2168   -1.9023   -1.7753 H   0  0  0  0  0  0  0  0  0  0  0  0
    1.1285   -1.2775   -2.7312 H   0  0  0  0  0  0  0  0  0  0  0  0
    1.8621   -1.9941   -0.5262 S   0  0  0  0  0  0  0  0  0  0  0  0
    3.3995   -1.0298   -0.8064 C   0  0  0  0  0  0  0  0  0  0  0  0
    3.2525    0.0177   -0.5303 H   0  0  0  0  0  0  0  0  0  0  0  0
    4.2112   -1.4391   -0.1976 H   0  0  0  0  0  0  0  0  0  0  0  0
    3.6921   -1.0814   -1.8592 H   0  0  0  0  0  0  0  0  0  0  0  0
   -0.6193    1.7959    0.3378 C   0  0  0  0  0  0  0  0  0  0  0  0
   -1.7462    2.2758    0.4117 O   0  0  0  0  0  0  0  0  0  0  0  0
    0.4738    2.6351    0.4603 N   0  0  0  0  0  0  0  0  0  0  0  0
    1.3951    2.2074    0.4461 H   0  0  0  0  0  0  0  0  0  0  0  0
    0.3610    4.0577    0.7600 C   0  0  0  0  0  0  0  0  0  0  0  0
   -0.1204    4.2078    1.7321 H   0  0  0  0  0  0  0  0  0  0  0  0
    1.3532    4.5182    0.7902 H   0  0  0  0  0  0  0  0  0  0  0  0
   -0.2313    4.5654   -0.0085 H   0  0  0  0  0  0  0  0  0  0  0  0
  1  2  1  0  0  0  0
  2  3  1  0  0  0  0
  2  4  1  0  0  0  0
  2  5  1  0  0  0  0
  5  6  2  0  0  0  0
  5  7  1  0  0  0  0
  7  8  1  0  0  0  0
  7  9  1  0  0  0  0
  9 10  1  0  0  0  0
  9 11  1  0  0  0  0
  9 22  1  0  0  0  0
 11 12  1  0  0  0  0
 11 13  1  0  0  0  0
 11 14  1  0  0  0  0
 14 15  1  0  0  0  0
 14 16  1  0  0  0  0
 14 17  1  0  0  0  0
 17 18  1  0  0  0  0
 18 19  1  0  0  0  0
 18 20  1  0  0  0  0
 18 21  1  0  0  0  0
 22 23  2  0  0  0  0
 22 24  1  0  0  0  0
 24 25  1  0  0  0  0
 24 26  1  0  0  0  0
 26 27  1  0  0  0  0
 26 28  1  0  0  0  0
 26 29  1  0  0  0  0
M  END
$$$$

  -OEChem-01062216093D

 29 28  0     1  0  0  0  0  0999 V2000
   -3.5244   -3.0268    1.0771 H   0  0  0  0  0  0  0  0  0  0  0  0
   -3.4601   -2.0733    0.5453 C   0  0  0  0  0  0  0  0  0  0  0  0
   -4.0744   -1.3366    1.0686 H   0  0  0  0  0  0  0  0  0  0  0  0
   -3.8466   -2.2077   -0.4676 H   0  0  0  0  0  0  0  0  0  0  0  0
   -2.0196   -1.6016    0.4895 C   0  0  0  0  0  0  0  0  0  0  0  0
   -1.1400   -2.2935    0.9713 O   0  0  0  0  0  0  0  0  0  0  0  0
   -1.7320   -0.3796   -0.0823 N   0  0  0  0  0  0  0  0  0  0  0  0
   -2.5350    0.2306   -0.2287 H   0  0  0  0  0  0  0  0  0  0  0  0
   -0.4262    0.3004   -0.0025 C   0  0  1  0  0  0  0  0  0  0  0  0
    0.1903   -0.1336    0.7920 H   0  0  0  0  0  0  0  0  0  0  0  0
    0.2858    0.1537   -1.3704 C   0  0  0  0  0  0  0  0  0  0  0  0
   -0.3736    0.5455   -2.1521 H   0  0  0  0  0  0  0  0  0  0  0  0
    1.1946    0.7602   -1.3798 H   0  0  0  0  0  0  0  0  0  0  0  0
    0.6808   -1.2838   -1.7377 C   0  0  0  0  0  0  0  0  0  0  0  0
   -0.2143   -1.9124   -1.7765 H   0  0  0  0  0  0  0  0  0  0  0  0
    1.1328   -1.2955   -2.7341 H   0  0  0  0  0  0  0  0  0  0  0  0
    1.8634   -2.0090   -0.5271 S   0  0  0  0  0  0  0  0  0  0  0  0
    3.4083   -1.0561   -0.8047 C   0  0  0  0  0  0  0  0  0  0  0  0
    3.2696   -0.0079   -0.5269 H   0  0  0  0  0  0  0  0  0  0  0  0
    4.2159   -1.4726   -0.1950 H   0  0  0  0  0  0  0  0  0  0  0  0
    3.7020   -1.1092   -1.8571 H   0  0  0  0  0  0  0  0  0  0  0  0
   -0.6243    1.7997    0.3331 C   0  0  0  0  0  0  0  0  0  0  0  0
   -1.7365    2.2177    0.6391 O   0  0  0  0  0  0  0  0  0  0  0  0
    0.3993    2.7170    0.1690 N   0  0  0  0  0  0  0  0  0  0  0  0
    1.3216    2.3535   -0.0508 H   0  0  0  0  0  0  0  0  0  0  0  0
    0.2503    4.1423    0.4393 C   0  0  0  0  0  0  0  0  0  0  0  0
    0.0068    4.3089    1.4939 H   0  0  0  0  0  0  0  0  0  0  0  0
    1.1812    4.6699    0.2109 H   0  0  0  0  0  0  0  0  0  0  0  0
   -0.5473    4.5690   -0.1780 H   0  0  0  0  0  0  0  0  0  0  0  0
  1  2  1  0  0  0  0
  2  3  1  0  0  0  0
  2  4  1  0  0  0  0
  2  5  1  0  0  0  0
  5  6  2  0  0  0  0
  5  7  1  0  0  0  0
  7  8  1  0  0  0  0
  7  9  1  0  0  0  0
  9 10  1  0  0  0  0
  9 11  1  0  0  0  0
  9 22  1  0  0  0  0
 11 12  1  0  0  0  0
 11 13  1  0  0  0  0
 11 14  1  0  0  0  0
 14 15  1  0  0  0  0
 14 16  1  0  0  0  0
 14 17  1  0  0  0  0
 17 18  1  0  0  0  0
 18 19  1  0  0  0  0
 18 20  1  0  0  0  0
 18 21  1  0  0  0  0
 22 23  2  0  0  0  0
 22 24  1  0  0  0  0
 24 25  1  0  0  0  0
 24 26  1  0  0  0  0
 26 27  1  0  0  0  0
 26 28  1  0  0  0  0
 26 29  1  0  0  0  0
M  END
$$$$

  -OEChem-01062216093D

 29 28  0     1  0  0  0  0  0999 V2000
   -3.5212   -3.0041    1.0999 H   0  0  0  0  0  0  0  0  0  0  0  0
   -3.4613   -2.0513    0.5664 C   0  0  0  0  0  0  0  0  0  0  0  0
   -4.0488   -1.3068    1.1093 H   0  0  0  0  0  0  0  0  0  0  0  0
   -3.8816   -2.1799   -0.4337 H   0  0  0  0  0  0  0  0  0  0  0  0
   -2.0168   -1.5986    0.4664 C   0  0  0  0  0  0  0  0  0  0  0  0
   -1.1331   -2.3075    0.9140 O   0  0  0  0  0  0  0  0  0  0  0  0
   -1.7320   -0.3743   -0.1028 N   0  0  0  0  0  0  0  0  0  0  0  0
   -2.5360    0.2418   -0.2103 H   0  0  0  0  0  0  0  0  0  0  0  0
   -0.4227    0.3015   -0.0264 C   0  0  1  0  0  0  0  0  0  0  0  0
    0.1904   -0.1307    0.7719 H   0  0  0  0  0  0  0  0  0  0  0  0
    0.2993    0.1389   -1.3884 C   0  0  0  0  0  0  0  0  0  0  0  0
   -0.3513    0.5266   -2.1792 H   0  0  0  0  0  0  0  0  0  0  0  0
    1.2129    0.7377   -1.3938 H   0  0  0  0  0  0  0  0  0  0  0  0
    0.6947   -1.3021   -1.7420 C   0  0  0  0  0  0  0  0  0  0  0  0
   -0.2010   -1.9295   -1.7814 H   0  0  0  0  0  0  0  0  0  0  0  0
    1.1537   -1.3235   -2.7351 H   0  0  0  0  0  0  0  0  0  0  0  0
    1.8680   -2.0196   -0.5177 S   0  0  0  0  0  0  0  0  0  0  0  0
    3.4155   -1.0707   -0.7925 C   0  0  0  0  0  0  0  0  0  0  0  0
    3.2766   -0.0213   -0.5195 H   0  0  0  0  0  0  0  0  0  0  0  0
    4.2193   -1.4853   -0.1770 H   0  0  0  0  0  0  0  0  0  0  0  0
    3.7137   -1.1287   -1.8433 H   0  0  0  0  0  0  0  0  0  0  0  0
   -0.6276    1.8001    0.3178 C   0  0  0  0  0  0  0  0  0  0  0  0
   -1.6619    2.1581    0.8708 O   0  0  0  0  0  0  0  0  0  0  0  0
    0.2493    2.7820   -0.1120 N   0  0  0  0  0  0  0  0  0  0  0  0
    1.1098    2.4795   -0.5574 H   0  0  0  0  0  0  0  0  0  0  0  0
    0.0569    4.2033    0.1537 C   0  0  0  0  0  0  0  0  0  0  0  0
    0.0565    4.3952    1.2320 H   0  0  0  0  0  0  0  0  0  0  0  0
    0.8634    4.7860   -0.3014 H   0  0  0  0  0  0  0  0  0  0  0  0
   -0.8947    4.5472   -0.2655 H   0  0  0  0  0  0  0  0  0  0  0  0
  1  2  1  0  0  0  0
  2  3  1  0  0  0  0
  2  4  1  0  0  0  0
  2  5  1  0  0  0  0
  5  6  2  0  0  0  0
  5  7  1  0  0  0  0
  7  8  1  0  0  0  0
  7  9  1  0  0  0  0
  9 10  1  0  0  0  0
  9 11  1  0  0  0  0
  9 22  1  0  0  0  0
 11 12  1  0  0  0  0
 11 13  1  0  0  0  0
 11 14  1  0  0  0  0
 14 15  1  0  0  0  0
 14 16  1  0  0  0  0
 14 17  1  0  0  0  0
 17 18  1  0  0  0  0
 18 19  1  0  0  0  0
 18 20  1  0  0  0  0
 18 21  1  0  0  0  0
 22 23  2  0  0  0  0
 22 24  1  0  0  0  0
 24 25  1  0  0  0  0
 24 26  1  0  0  0  0
 26 27  1  0  0  0  0
 26 28  1  0  0  0  0
 26 29  1  0  0  0  0
M  END
$$$$

  -OEChem-01062216093D

 29 28  0     1  0  0  0  0  0999 V2000
   -3.5142   -3.0182    1.0696 H   0  0  0  0  0  0  0  0  0  0  0  0
   -3.4598   -2.0425    0.5787 C   0  0  0  0  0  0  0  0  0  0  0  0
   -4.0269   -1.3194    1.1701 H   0  0  0  0  0  0  0  0  0  0  0  0
   -3.9065   -2.1224   -0.4151 H   0  0  0  0  0  0  0  0  0  0  0  0
   -2.0149   -1.5958    0.4622 C   0  0  0  0  0  0  0  0  0  0  0  0
   -1.1285   -2.3136    0.8892 O   0  0  0  0  0  0  0  0  0  0  0  0
   -1.7347   -0.3701   -0.1065 N   0  0  0  0  0  0  0  0  0  0  0  0
   -2.5409    0.2435   -0.2013 H   0  0  0  0  0  0  0  0  0  0  0  0
   -0.4236    0.3032   -0.0375 C   0  0  1  0  0  0  0  0  0  0  0  0
    0.1889   -0.1272    0.7623 H   0  0  0  0  0  0  0  0  0  0  0  0
    0.3037    0.1324   -1.3958 C   0  0  0  0  0  0  0  0  0  0  0  0
   -0.3433    0.5156   -2.1917 H   0  0  0  0  0  0  0  0  0  0  0  0
    1.2180    0.7309   -1.3962 H   0  0  0  0  0  0  0  0  0  0  0  0
    0.7014   -1.3095   -1.7423 C   0  0  0  0  0  0  0  0  0  0  0  0
   -0.1935   -1.9381   -1.7821 H   0  0  0  0  0  0  0  0  0  0  0  0
    1.1645   -1.3349   -2.7333 H   0  0  0  0  0  0  0  0  0  0  0  0
    1.8709   -2.0202   -0.5104 S   0  0  0  0  0  0  0  0  0  0  0  0
    3.4192   -1.0715   -0.7820 C   0  0  0  0  0  0  0  0  0  0  0  0
    3.2744   -0.0183   -0.5270 H   0  0  0  0  0  0  0  0  0  0  0  0
    4.2166   -1.4744   -0.1506 H   0  0  0  0  0  0  0  0  0  0  0  0
    3.7301   -1.1449   -1.8281 H   0  0  0  0  0  0  0  0  0  0  0  0
   -0.6281    1.8001    0.3124 C   0  0  0  0  0  0  0  0  0  0  0  0
   -1.5262    2.1187    1.0825 O   0  0  0  0  0  0  0  0  0  0  0  0
    0.0435    2.8157   -0.3485 N   0  0  0  0  0  0  0  0  0  0  0  0
    0.7681    2.5490   -1.0072 H   0  0  0  0  0  0  0  0  0  0  0  0
   -0.1912    4.2329   -0.0968 C   0  0  0  0  0  0  0  0  0  0  0  0
    0.0178    4.4761    0.9504 H   0  0  0  0  0  0  0  0  0  0  0  0
    0.4606    4.8421   -0.7301 H   0  0  0  0  0  0  0  0  0  0  0  0
   -1.2311    4.4952   -0.3184 H   0  0  0  0  0  0  0  0  0  0  0  0
  1  2  1  0  0  0  0
  2  3  1  0  0  0  0
  2  4  1  0  0  0  0
  2  5  1  0  0  0  0
  5  6  2  0  0  0  0
  5  7  1  0  0  0  0
  7  8  1  0  0  0  0
  7  9  1  0  0  0  0
  9 10  1  0  0  0  0
  9 11  1  0  0  0  0
  9 22  1  0  0  0  0
 11 12  1  0  0  0  0
 11 13  1  0  0  0  0
 11 14  1  0  0  0  0
 14 15  1  0  0  0  0
 14 16  1  0  0  0  0
 14 17  1  0  0  0  0
 17 18  1  0  0  0  0
 18 19  1  0  0  0  0
 18 20  1  0  0  0  0
 18 21  1  0  0  0  0
 22 23  2  0  0  0  0
 22 24  1  0  0  0  0
 24 25  1  0  0  0  0
 24 26  1  0  0  0  0
 26 27  1  0  0  0  0
 26 28  1  0  0  0  0
 26 29  1  0  0  0  0
M  END
$$$$

  -OEChem-01062216093D

 29 28  0     1  0  0  0  0  0999 V2000
   -3.5134   -3.0188    1.0800 H   0  0  0  0  0  0  0  0  0  0  0  0
   -3.4614   -2.0464    0.5822 C   0  0  0  0  0  0  0  0  0  0  0  0
   -4.0320   -1.3212    1.1673 H   0  0  0  0  0  0  0  0  0  0  0  0
   -3.9059   -2.1353   -0.4117 H   0  0  0  0  0  0  0  0  0  0  0  0
   -2.0180   -1.5952    0.4661 C   0  0  0  0  0  0  0  0  0  0  0  0
   -1.1301   -2.3129    0.8891 O   0  0  0  0  0  0  0  0  0  0  0  0
   -1.7419   -0.3691   -0.1045 N   0  0  0  0  0  0  0  0  0  0  0  0
   -2.5523    0.2334   -0.2233 H   0  0  0  0  0  0  0  0  0  0  0  0
   -0.4307    0.3055   -0.0464 C   0  0  1  0  0  0  0  0  0  0  0  0
    0.1828   -0.1226    0.7542 H   0  0  0  0  0  0  0  0  0  0  0  0
    0.3016    0.1301   -1.4009 C   0  0  0  0  0  0  0  0  0  0  0  0
   -0.3437    0.5030   -2.2029 H   0  0  0  0  0  0  0  0  0  0  0  0
    1.2108    0.7376   -1.3974 H   0  0  0  0  0  0  0  0  0  0  0  0
    0.7061   -1.3121   -1.7389 C   0  0  0  0  0  0  0  0  0  0  0  0
   -0.1866   -1.9439   -1.7788 H   0  0  0  0  0  0  0  0  0  0  0  0
    1.1731   -1.3414   -2.7279 H   0  0  0  0  0  0  0  0  0  0  0  0
    1.8742   -2.0112   -0.4994 S   0  0  0  0  0  0  0  0  0  0  0  0
    3.4185   -1.0560   -0.7729 C   0  0  0  0  0  0  0  0  0  0  0  0
    3.2675   -0.0018   -0.5259 H   0  0  0  0  0  0  0  0  0  0  0  0
    4.2163   -1.4502   -0.1364 H   0  0  0  0  0  0  0  0  0  0  0  0
    3.7333   -1.1350   -1.8175 H   0  0  0  0  0  0  0  0  0  0  0  0
   -0.6303    1.8010    0.3045 C   0  0  0  0  0  0  0  0  0  0  0  0
   -1.3256    2.1019    1.2656 O   0  0  0  0  0  0  0  0  0  0  0  0
   -0.2154    2.8214   -0.5360 N   0  0  0  0  0  0  0  0  0  0  0  0
    0.3273    2.5646   -1.3544 H   0  0  0  0  0  0  0  0  0  0  0  0
   -0.4770    4.2331   -0.2783 C   0  0  0  0  0  0  0  0  0  0  0  0
   -0.0258    4.5390    0.6715 H   0  0  0  0  0  0  0  0  0  0  0  0
   -0.0523    4.8490   -1.0767 H   0  0  0  0  0  0  0  0  0  0  0  0
   -1.5548    4.4218   -0.2333 H   0  0  0  0  0  0  0  0  0  0  0  0
  1  2  1  0  0  0  0
  2  3  1  0  0  0  0
  2  4  1  0  0  0  0
  2  5  1  0  0  0  0
  5  6  2  0  0  0  0
  5  7  1  0  0  0  0
  7  8  1  0  0  0  0
  7  9  1  0  0  0  0
  9 10  1  0  0  0  0
  9 11  1  0  0  0  0
  9 22  1  0  0  0  0
 11 12  1  0  0  0  0
 11 13  1  0  0  0  0
 11 14  1  0  0  0  0
 14 15  1  0  0  0  0
 14 16  1  0  0  0  0
 14 17  1  0  0  0  0
 17 18  1  0  0  0  0
 18 19  1  0  0  0  0
 18 20  1  0  0  0  0
 18 21  1  0  0  0  0
 22 23  2  0  0  0  0
 22 24  1  0  0  0  0
 24 25  1  0  0  0  0
 24 26  1  0  0  0  0
 26 27  1  0  0  0  0
 26 28  1  0  0  0  0
 26 29  1  0  0  0  0
M  END
$$$$

  -OEChem-01062216093D

 29 28  0     1  0  0  0  0  0999 V2000
   -3.5062   -3.0413    1.0750 H   0  0  0  0  0  0  0  0  0  0  0  0
   -3.4612   -2.0673    0.5795 C   0  0  0  0  0  0  0  0  0  0  0  0
   -4.0459   -1.3504    1.1612 H   0  0  0  0  0  0  0  0  0  0  0  0
   -3.8956   -2.1593   -0.4187 H   0  0  0  0  0  0  0  0  0  0  0  0
   -2.0219   -1.5990    0.4781 C   0  0  0  0  0  0  0  0  0  0  0  0
   -1.1307   -2.3043    0.9141 O   0  0  0  0  0  0  0  0  0  0  0  0
   -1.7528   -0.3729   -0.0973 N   0  0  0  0  0  0  0  0  0  0  0  0
   -2.5680    0.2112   -0.2607 H   0  0  0  0  0  0  0  0  0  0  0  0
   -0.4445    0.3084   -0.0473 C   0  0  1  0  0  0  0  0  0  0  0  0
    0.1725   -0.1154    0.7533 H   0  0  0  0  0  0  0  0  0  0  0  0
    0.2893    0.1338   -1.4000 C   0  0  0  0  0  0  0  0  0  0  0  0
   -0.3589    0.4944   -2.2048 H   0  0  0  0  0  0  0  0  0  0  0  0
    1.1908    0.7534   -1.3974 H   0  0  0  0  0  0  0  0  0  0  0  0
    0.7034   -1.3069   -1.7329 C   0  0  0  0  0  0  0  0  0  0  0  0
   -0.1850   -1.9448   -1.7713 H   0  0  0  0  0  0  0  0  0  0  0  0
    1.1716   -1.3355   -2.7215 H   0  0  0  0  0  0  0  0  0  0  0  0
    1.8749   -1.9957   -0.4913 S   0  0  0  0  0  0  0  0  0  0  0  0
    3.4133   -1.0316   -0.7670 C   0  0  0  0  0  0  0  0  0  0  0  0
    3.2549    0.0230   -0.5251 H   0  0  0  0  0  0  0  0  0  0  0  0
    4.2130   -1.4172   -0.1276 H   0  0  0  0  0  0  0  0  0  0  0  0
    3.7301   -1.1134   -1.8107 H   0  0  0  0  0  0  0  0  0  0  0  0
   -0.6398    1.8037    0.2989 C   0  0  0  0  0  0  0  0  0  0  0  0
   -1.0777    2.1144    1.3974 O   0  0  0  0  0  0  0  0  0  0  0  0
   -0.5154    2.8003   -0.6555 N   0  0  0  0  0  0  0  0  0  0  0  0
   -0.1827    2.5303   -1.5757 H   0  0  0  0  0  0  0  0  0  0  0  0
   -0.7791    4.2094   -0.3854 C   0  0  0  0  0  0  0  0  0  0  0  0
   -0.1128    4.5801    0.4008 H   0  0  0  0  0  0  0  0  0  0  0  0
   -0.6139    4.8057   -1.2879 H   0  0  0  0  0  0  0  0  0  0  0  0
   -1.8163    4.3513   -0.0633 H   0  0  0  0  0  0  0  0  0  0  0  0
  1  2  1  0  0  0  0
  2  3  1  0  0  0  0
  2  4  1  0  0  0  0
  2  5  1  0  0  0  0
  5  6  2  0  0  0  0
  5  7  1  0  0  0  0
  7  8  1  0  0  0  0
  7  9  1  0  0  0  0
  9 10  1  0  0  0  0
  9 11  1  0  0  0  0
  9 22  1  0  0  0  0
 11 12  1  0  0  0  0
 11 13  1  0  0  0  0
 11 14  1  0  0  0  0
 14 15  1  0  0  0  0
 14 16  1  0  0  0  0
 14 17  1  0  0  0  0
 17 18  1  0  0  0  0
 18 19  1  0  0  0  0
 18 20  1  0  0  0  0
 18 21  1  0  0  0  0
 22 23  2  0  0  0  0
 22 24  1  0  0  0  0
 24 25  1  0  0  0  0
 24 26  1  0  0  0  0
 26 27  1  0  0  0  0
 26 28  1  0  0  0  0
 26 29  1  0  0  0  0
M  END
$$$$

  -OEChem-01062216093D

 29 28  0     1  0  0  0  0  0999 V2000
   -3.5021   -3.0666    1.0944 H   0  0  0  0  0  0  0  0  0  0  0  0
   -3.4626   -2.1090    0.5675 C   0  0  0  0  0  0  0  0  0  0  0  0
   -4.0815   -1.3870    1.1057 H   0  0  0  0  0  0  0  0  0  0  0  0
   -3.8622   -2.2452   -0.4401 H   0  0  0  0  0  0  0  0  0  0  0  0
   -2.0308   -1.6124    0.4959 C   0  0  0  0  0  0  0  0  0  0  0  0
   -1.1366   -2.2993    0.9539 O   0  0  0  0  0  0  0  0  0  0  0  0
   -1.7707   -0.3854   -0.0823 N   0  0  0  0  0  0  0  0  0  0  0  0
   -2.5897    0.1747   -0.2988 H   0  0  0  0  0  0  0  0  0  0  0  0
   -0.4678    0.3072   -0.0384 C   0  0  1  0  0  0  0  0  0  0  0  0
    0.1545   -0.1138    0.7597 H   0  0  0  0  0  0  0  0  0  0  0  0
    0.2659    0.1423   -1.3910 C   0  0  0  0  0  0  0  0  0  0  0  0
   -0.3864    0.4944   -2.1960 H   0  0  0  0  0  0  0  0  0  0  0  0
    1.1582    0.7758   -1.3888 H   0  0  0  0  0  0  0  0  0  0  0  0
    0.6937   -1.2940   -1.7254 C   0  0  0  0  0  0  0  0  0  0  0  0
   -0.1882   -1.9411   -1.7622 H   0  0  0  0  0  0  0  0  0  0  0  0
    1.1610   -1.3172   -2.7146 H   0  0  0  0  0  0  0  0  0  0  0  0
    1.8722   -1.9712   -0.4847 S   0  0  0  0  0  0  0  0  0  0  0  0
    3.3977   -0.9883   -0.7648 C   0  0  0  0  0  0  0  0  0  0  0  0
    3.2294    0.0617   -0.5100 H   0  0  0  0  0  0  0  0  0  0  0  0
    4.2075   -1.3717   -0.1369 H   0  0  0  0  0  0  0  0  0  0  0  0
    3.7055   -1.0548   -1.8123 H   0  0  0  0  0  0  0  0  0  0  0  0
   -0.6588    1.8019    0.3035 C   0  0  0  0  0  0  0  0  0  0  0  0
   -0.7774    2.1515    1.4685 O   0  0  0  0  0  0  0  0  0  0  0  0
   -0.8423    2.7510   -0.6889 N   0  0  0  0  0  0  0  0  0  0  0  0
   -0.7436    2.4476   -1.6525 H   0  0  0  0  0  0  0  0  0  0  0  0
   -1.0632    4.1663   -0.4135 C   0  0  0  0  0  0  0  0  0  0  0  0
   -0.2124    4.5873    0.1328 H   0  0  0  0  0  0  0  0  0  0  0  0
   -1.1816    4.7204   -1.3496 H   0  0  0  0  0  0  0  0  0  0  0  0
   -1.9694    4.3040    0.1859 H   0  0  0  0  0  0  0  0  0  0  0  0
  1  2  1  0  0  0  0
  2  3  1  0  0  0  0
  2  4  1  0  0  0  0
  2  5  1  0  0  0  0
  5  6  2  0  0  0  0
  5  7  1  0  0  0  0
  7  8  1  0  0  0  0
  7  9  1  0  0  0  0
  9 10  1  0  0  0  0
  9 11  1  0  0  0  0
  9 22  1  0  0  0  0
 11 12  1  0  0  0  0
 11 13  1  0  0  0  0
 11 14  1  0  0  0  0
 14 15  1  0  0  0  0
 14 16  1  0  0  0  0
 14 17  1  0  0  0  0
 17 18  1  0  0  0  0
 18 19  1  0  0  0  0
 18 20  1  0  0  0  0
 18 21  1  0  0  0  0
 22 23  2  0  0  0  0
 22 24  1  0  0  0  0
 24 25  1  0  0  0  0
 24 26  1  0  0  0  0
 26 27  1  0  0  0  0
 26 28  1  0  0  0  0
 26 29  1  0  0  0  0
M  END
$$$$

  -OEChem-01062216093D

 29 28  0     1  0  0  0  0  0999 V2000
   -3.4964   -3.1052    1.0760 H   0  0  0  0  0  0  0  0  0  0  0  0
   -3.4608   -2.1458    0.5520 C   0  0  0  0  0  0  0  0  0  0  0  0
   -4.1098   -1.4377    1.0730 H   0  0  0  0  0  0  0  0  0  0  0  0
   -3.8281   -2.2881   -0.4669 H   0  0  0  0  0  0  0  0  0  0  0  0
   -2.0373   -1.6210    0.5223 C   0  0  0  0  0  0  0  0  0  0  0  0
   -1.1447   -2.2867    1.0129 O   0  0  0  0  0  0  0  0  0  0  0  0
   -1.7814   -0.3935   -0.0576 N   0  0  0  0  0  0  0  0  0  0  0  0
   -2.5999    0.1469   -0.3204 H   0  0  0  0  0  0  0  0  0  0  0  0
   -0.4806    0.3046   -0.0169 C   0  0  1  0  0  0  0  0  0  0  0  0
    0.1485   -0.1182    0.7754 H   0  0  0  0  0  0  0  0  0  0  0  0
    0.2471    0.1597   -1.3738 C   0  0  0  0  0  0  0  0  0  0  0  0
   -0.4079    0.5193   -2.1731 H   0  0  0  0  0  0  0  0  0  0  0  0
    1.1359    0.7982   -1.3669 H   0  0  0  0  0  0  0  0  0  0  0  0
    0.6791   -1.2714   -1.7237 C   0  0  0  0  0  0  0  0  0  0  0  0
   -0.2009   -1.9208   -1.7633 H   0  0  0  0  0  0  0  0  0  0  0  0
    1.1424   -1.2831   -2.7148 H   0  0  0  0  0  0  0  0  0  0  0  0
    1.8652   -1.9577   -0.4954 S   0  0  0  0  0  0  0  0  0  0  0  0
    3.3873   -0.9678   -0.7696 C   0  0  0  0  0  0  0  0  0  0  0  0
    3.2165    0.0793   -0.5043 H   0  0  0  0  0  0  0  0  0  0  0  0
    4.1991   -1.3540   -0.1460 H   0  0  0  0  0  0  0  0  0  0  0  0
    3.6933   -1.0234   -1.8182 H   0  0  0  0  0  0  0  0  0  0  0  0
   -0.6704    1.7980    0.3227 C   0  0  0  0  0  0  0  0  0  0  0  0
   -0.4623    2.2086    1.4545 O   0  0  0  0  0  0  0  0  0  0  0  0
   -1.1577    2.6817   -0.6260 N   0  0  0  0  0  0  0  0  0  0  0  0
   -1.2871    2.3319   -1.5699 H   0  0  0  0  0  0  0  0  0  0  0  0
   -1.3598    4.1021   -0.3643 C   0  0  0  0  0  0  0  0  0  0  0  0
   -0.4144    4.5789   -0.0847 H   0  0  0  0  0  0  0  0  0  0  0  0
   -1.7478    4.6004   -1.2578 H   0  0  0  0  0  0  0  0  0  0  0  0
   -2.0791    4.2433    0.4494 H   0  0  0  0  0  0  0  0  0  0  0  0
  1  2  1  0  0  0  0
  2  3  1  0  0  0  0
  2  4  1  0  0  0  0
  2  5  1  0  0  0  0
  5  6  2  0  0  0  0
  5  7  1  0  0  0  0
  7  8  1  0  0  0  0
  7  9  1  0  0  0  0
  9 10  1  0  0  0  0
  9 11  1  0  0  0  0
  9 22  1  0  0  0  0
 11 12  1  0  0  0  0
 11 13  1  0  0  0  0
 11 14  1  0  0  0  0
 14 15  1  0  0  0  0
 14 16  1  0  0  0  0
 14 17  1  0  0  0  0
 17 18  1  0  0  0  0
 18 19  1  0  0  0  0
 18 20  1  0  0  0  0
 18 21  1  0  0  0  0
 22 23  2  0  0  0  0
 22 24  1  0  0  0  0
 24 25  1  0  0  0  0
 24 26  1  0  0  0  0
 26 27  1  0  0  0  0
 26 28  1  0  0  0  0
 26 29  1  0  0  0  0
M  END
$$$$

  -OEChem-01062216093D

 29 28  0     1  0  0  0  0  0999 V2000
   -3.4947   -3.1394    1.0715 H   0  0  0  0  0  0  0  0  0  0  0  0
   -3.4617   -2.1809    0.5454 C   0  0  0  0  0  0  0  0  0  0  0  0
   -4.1230   -1.4776    1.0571 H   0  0  0  0  0  0  0  0  0  0  0  0
   -3.8161   -2.3291   -0.4774 H   0  0  0  0  0  0  0  0  0  0  0  0
   -2.0431   -1.6434    0.5304 C   0  0  0  0  0  0  0  0  0  0  0  0
   -1.1498   -2.2998    1.0316 O   0  0  0  0  0  0  0  0  0  0  0  0
   -1.7937   -0.4116   -0.0436 N   0  0  0  0  0  0  0  0  0  0  0  0
   -2.6147    0.1205   -0.3132 H   0  0  0  0  0  0  0  0  0  0  0  0
   -0.4961    0.2939    0.0052 C   0  0  1  0  0  0  0  0  0  0  0  0
    0.1361   -0.1337    0.7926 H   0  0  0  0  0  0  0  0  0  0  0  0
    0.2298    0.1774   -1.3532 C   0  0  0  0  0  0  0  0  0  0  0  0
   -0.4266    0.5513   -2.1445 H   0  0  0  0  0  0  0  0  0  0  0  0
    1.1157    0.8197   -1.3346 H   0  0  0  0  0  0  0  0  0  0  0  0
    0.6691   -1.2457   -1.7265 C   0  0  0  0  0  0  0  0  0  0  0  0
   -0.2073   -1.8991   -1.7772 H   0  0  0  0  0  0  0  0  0  0  0  0
    1.1325   -1.2378   -2.7178 H   0  0  0  0  0  0  0  0  0  0  0  0
    1.8594   -1.9474   -0.5113 S   0  0  0  0  0  0  0  0  0  0  0  0
    3.3760   -0.9451   -0.7709 C   0  0  0  0  0  0  0  0  0  0  0  0
    3.2010    0.0953   -0.4830 H   0  0  0  0  0  0  0  0  0  0  0  0
    4.1922   -1.3406   -0.1591 H   0  0  0  0  0  0  0  0  0  0  0  0
    3.6779   -0.9773   -1.8216 H   0  0  0  0  0  0  0  0  0  0  0  0
   -0.6876    1.7848    0.3501 C   0  0  0  0  0  0  0  0  0  0  0  0
   -0.1776    2.2662    1.3505 O   0  0  0  0  0  0  0  0  0  0  0  0
   -1.4498    2.5985   -0.4722 N   0  0  0  0  0  0  0  0  0  0  0  0
   -1.7717    2.2041   -1.3500 H   0  0  0  0  0  0  0  0  0  0  0  0
   -1.6224    4.0276   -0.2369 C   0  0  0  0  0  0  0  0  0  0  0  0
   -0.6533    4.5375   -0.2469 H   0  0  0  0  0  0  0  0  0  0  0  0
   -2.2528    4.4667   -1.0161 H   0  0  0  0  0  0  0  0  0  0  0  0
   -2.1014    4.2016    0.7324 H   0  0  0  0  0  0  0  0  0  0  0  0
  1  2  1  0  0  0  0
  2  3  1  0  0  0  0
  2  4  1  0  0  0  0
  2  5  1  0  0  0  0
  5  6  2  0  0  0  0
  5  7  1  0  0  0  0
  7  8  1  0  0  0  0
  7  9  1  0  0  0  0
  9 10  1  0  0  0  0
  9 11  1  0  0  0  0
  9 22  1  0  0  0  0
 11 12  1  0  0  0  0
 11 13  1  0  0  0  0
 11 14  1  0  0  0  0
 14 15  1  0  0  0  0
 14 16  1  0  0  0  0
 14 17  1  0  0  0  0
 17 18  1  0  0  0  0
 18 19  1  0  0  0  0
 18 20  1  0  0  0  0
 18 21  1  0  0  0  0
 22 23  2  0  0  0  0
 22 24  1  0  0  0  0
 24 25  1  0  0  0  0
 24 26  1  0  0  0  0
 26 27  1  0  0  0  0
 26 28  1  0  0  0  0
 26 29  1  0  0  0  0
M  END
$$$$

  -OEChem-01062216093D

 29 28  0     1  0  0  0  0  0999 V2000
   -3.4728   -3.2062    1.0233 H   0  0  0  0  0  0  0  0  0  0  0  0
   -3.4482   -2.2403    0.5107 C   0  0  0  0  0  0  0  0  0  0  0  0
   -4.1529   -1.5649    1.0017 H   0  0  0  0  0  0  0  0  0  0  0  0
   -3.7537   -2.3866   -0.5279 H   0  0  0  0  0  0  0  0  0  0  0  0
   -2.0480   -1.6583    0.5635 C   0  0  0  0  0  0  0  0  0  0  0  0
   -1.1637   -2.2777    1.1244 O   0  0  0  0  0  0  0  0  0  0  0  0
   -1.8053   -0.4256   -0.0118 N   0  0  0  0  0  0  0  0  0  0  0  0
   -2.6183    0.0657   -0.3658 H   0  0  0  0  0  0  0  0  0  0  0  0
   -0.5116    0.2896    0.0375 C   0  0  1  0  0  0  0  0  0  0  0  0
    0.1273   -0.1386    0.8188 H   0  0  0  0  0  0  0  0  0  0  0  0
    0.2022    0.1845   -1.3271 C   0  0  0  0  0  0  0  0  0  0  0  0
   -0.4627    0.5633   -2.1091 H   0  0  0  0  0  0  0  0  0  0  0  0
    1.0859    0.8301   -1.3130 H   0  0  0  0  0  0  0  0  0  0  0  0
    0.6447   -1.2349   -1.7109 C   0  0  0  0  0  0  0  0  0  0  0  0
   -0.2290   -1.8920   -1.7579 H   0  0  0  0  0  0  0  0  0  0  0  0
    1.0998   -1.2192   -2.7060 H   0  0  0  0  0  0  0  0  0  0  0  0
    1.8485   -1.9379   -0.5102 S   0  0  0  0  0  0  0  0  0  0  0  0
    3.3564   -0.9254   -0.7814 C   0  0  0  0  0  0  0  0  0  0  0  0
    3.1760    0.1146   -0.4946 H   0  0  0  0  0  0  0  0  0  0  0  0
    4.1798   -1.3140   -0.1750 H   0  0  0  0  0  0  0  0  0  0  0  0
    3.6517   -0.9573   -1.8340 H   0  0  0  0  0  0  0  0  0  0  0  0
   -0.6887    1.7834    0.3789 C   0  0  0  0  0  0  0  0  0  0  0  0
    0.0670    2.3334    1.1662 O   0  0  0  0  0  0  0  0  0  0  0  0
   -1.6730    2.5359   -0.2415 N   0  0  0  0  0  0  0  0  0  0  0  0
   -2.1814    2.1017   -1.0034 H   0  0  0  0  0  0  0  0  0  0  0  0
   -1.8235    3.9707   -0.0267 C   0  0  0  0  0  0  0  0  0  0  0  0
   -0.9156    4.5018   -0.3318 H   0  0  0  0  0  0  0  0  0  0  0  0
   -2.6639    4.3559   -0.6120 H   0  0  0  0  0  0  0  0  0  0  0  0
   -2.0152    4.1814    1.0309 H   0  0  0  0  0  0  0  0  0  0  0  0
  1  2  1  0  0  0  0
  2  3  1  0  0  0  0
  2  4  1  0  0  0  0
  2  5  1  0  0  0  0
  5  6  2  0  0  0  0
  5  7  1  0  0  0  0
  7  8  1  0  0  0  0
  7  9  1  0  0  0  0
  9 10  1  0  0  0  0
  9 11  1  0  0  0  0
  9 22  1  0  0  0  0
 11 12  1  0  0  0  0
 11 13  1  0  0  0  0
 11 14  1  0  0  0  0
 14 15  1  0  0  0  0
 14 16  1  0  0  0  0
 14 17  1  0  0  0  0
 17 18  1  0  0  0  0
 18 19  1  0  0  0  0
 18 20  1  0  0  0  0
 18 21  1  0  0  0  0
 22 23  2  0  0  0  0
 22 24  1  0  0  0  0
 24 25  1  0  0  0  0
 24 26  1  0  0  0  0
 26 27  1  0  0  0  0
 26 28  1  0  0  0  0
 26 29  1  0  0  0  0
M  END
$$$$

  -OEChem-01062216093D

 29 28  0     1  0  0  0  0  0999 V2000
   -3.2987   -3.3239    0.8857 H   0  0  0  0  0  0  0  0  0  0  0  0
   -3.3134   -2.3615    0.3658 C   0  0  0  0  0  0  0  0  0  0  0  0
   -4.1931   -1.8006    0.6902 H   0  0  0  0  0  0  0  0  0  0  0  0
   -3.3803   -2.5462   -0.7089 H   0  0  0  0  0  0  0  0  0  0  0  0
   -2.0529   -1.5794    0.6840 C   0  0  0  0  0  0  0  0  0  0  0  0
   -1.2625   -2.0231    1.4962 O   0  0  0  0  0  0  0  0  0  0  0  0
   -1.8342   -0.3616    0.0671 N   0  0  0  0  0  0  0  0  0  0  0  0
   -2.4839   -0.1349   -0.6776 H   0  0  0  0  0  0  0  0  0  0  0  0
   -0.5302    0.3377    0.0735 C   0  0  1  0  0  0  0  0  0  0  0  0
    0.1247   -0.0795    0.8469 H   0  0  0  0  0  0  0  0  0  0  0  0
    0.1446    0.1848   -1.3061 C   0  0  0  0  0  0  0  0  0  0  0  0
   -0.5328    0.5593   -2.0799 H   0  0  0  0  0  0  0  0  0  0  0  0
    1.0415    0.8121   -1.3326 H   0  0  0  0  0  0  0  0  0  0  0  0
    0.5507   -1.2538   -1.6580 C   0  0  0  0  0  0  0  0  0  0  0  0
   -0.3350   -1.8956   -1.6694 H   0  0  0  0  0  0  0  0  0  0  0  0
    0.9833   -1.2735   -2.6630 H   0  0  0  0  0  0  0  0  0  0  0  0
    1.7703   -1.9461   -0.4682 S   0  0  0  0  0  0  0  0  0  0  0  0
    3.2915   -0.9734   -0.8041 C   0  0  0  0  0  0  0  0  0  0  0  0
    3.1387    0.0773   -0.5409 H   0  0  0  0  0  0  0  0  0  0  0  0
    4.1214   -1.3625   -0.2069 H   0  0  0  0  0  0  0  0  0  0  0  0
    3.5606   -1.0391   -1.8622 H   0  0  0  0  0  0  0  0  0  0  0  0
   -0.6599    1.8445    0.3860 C   0  0  0  0  0  0  0  0  0  0  0  0
    0.3121    2.4708    0.7850 O   0  0  0  0  0  0  0  0  0  0  0  0
   -1.8009    2.5462    0.0345 N   0  0  0  0  0  0  0  0  0  0  0  0
   -2.6251    1.9972   -0.1802 H   0  0  0  0  0  0  0  0  0  0  0  0
   -1.9567    3.9760    0.2771 C   0  0  0  0  0  0  0  0  0  0  0  0
   -1.1669    4.5397   -0.2308 H   0  0  0  0  0  0  0  0  0  0  0  0
   -2.9229    4.3220   -0.1023 H   0  0  0  0  0  0  0  0  0  0  0  0
   -1.9073    4.1901    1.3499 H   0  0  0  0  0  0  0  0  0  0  0  0
  1  2  1  0  0  0  0
  2  3  1  0  0  0  0
  2  4  1  0  0  0  0
  2  5  1  0  0  0  0
  5  6  2  0  0  0  0
  5  7  1  0  0  0  0
  7  8  1  0  0  0  0
  7  9  1  0  0  0  0
  9 10  1  0  0  0  0
  9 11  1  0  0  0  0
  9 22  1  0  0  0  0
 11 12  1  0  0  0  0
 11 13  1  0  0  0  0
 11 14  1  0  0  0  0
 14 15  1  0  0  0  0
 14 16  1  0  0  0  0
 14 17  1  0  0  0  0
 17 18  1  0  0  0  0
 18 19  1  0  0  0  0
 18 20  1  0  0  0  0
 18 21  1  0  0  0  0
 22 23  2  0  0  0  0
 22 24  1  0  0  0  0
 24 25  1  0  0  0  0
 24 26  1  0  0  0  0
 26 27  1  0  0  0  0
 26 28  1  0  0  0  0
 26 29  1  0  0  0  0
M  END
$$$$

  -OEChem-01062216093D

 29 28  0     1  0  0  0  0  0999 V2000
   -3.2799   -3.3320    0.8487 H   0  0  0  0  0  0  0  0  0  0  0  0
   -3.3008   -2.3632    0.3412 C   0  0  0  0  0  0  0  0  0  0  0  0
   -4.1885   -1.8151    0.6656 H   0  0  0  0  0  0  0  0  0  0  0  0
   -3.3568   -2.5345   -0.7364 H   0  0  0  0  0  0  0  0  0  0  0  0
   -2.0512   -1.5722    0.6791 C   0  0  0  0  0  0  0  0  0  0  0  0
   -1.2765   -2.0013    1.5140 O   0  0  0  0  0  0  0  0  0  0  0  0
   -1.8306   -0.3542    0.0641 N   0  0  0  0  0  0  0  0  0  0  0  0
   -2.4679   -0.1330   -0.6942 H   0  0  0  0  0  0  0  0  0  0  0  0
   -0.5249    0.3427    0.0728 C   0  0  1  0  0  0  0  0  0  0  0  0
    0.1292   -0.0745    0.8468 H   0  0  0  0  0  0  0  0  0  0  0  0
    0.1469    0.1801   -1.3088 C   0  0  0  0  0  0  0  0  0  0  0  0
   -0.5312    0.5539   -2.0822 H   0  0  0  0  0  0  0  0  0  0  0  0
    1.0471    0.8019   -1.3446 H   0  0  0  0  0  0  0  0  0  0  0  0
    0.5464   -1.2620   -1.6533 C   0  0  0  0  0  0  0  0  0  0  0  0
   -0.3407   -1.9015   -1.6611 H   0  0  0  0  0  0  0  0  0  0  0  0
    0.9784   -1.2877   -2.6585 H   0  0  0  0  0  0  0  0  0  0  0  0
    1.7656   -1.9501   -0.4605 S   0  0  0  0  0  0  0  0  0  0  0  0
    3.2870   -0.9819   -0.8085 C   0  0  0  0  0  0  0  0  0  0  0  0
    3.1376    0.0711   -0.5520 H   0  0  0  0  0  0  0  0  0  0  0  0
    4.1187   -1.3686   -0.2123 H   0  0  0  0  0  0  0  0  0  0  0  0
    3.5514   -1.0552   -1.8672 H   0  0  0  0  0  0  0  0  0  0  0  0
   -0.6572    1.8493    0.3884 C   0  0  0  0  0  0  0  0  0  0  0  0
    0.3437    2.5351    0.5465 O   0  0  0  0  0  0  0  0  0  0  0  0
   -1.8894    2.4770    0.3247 N   0  0  0  0  0  0  0  0  0  0  0  0
   -2.7001    1.8680    0.3552 H   0  0  0  0  0  0  0  0  0  0  0  0
   -2.0701    3.8942    0.6177 C   0  0  0  0  0  0  0  0  0  0  0  0
   -1.4551    4.5060   -0.0508 H   0  0  0  0  0  0  0  0  0  0  0  0
   -3.1170    4.1796    0.4769 H   0  0  0  0  0  0  0  0  0  0  0  0
   -1.7863    4.1103    1.6530 H   0  0  0  0  0  0  0  0  0  0  0  0
  1  2  1  0  0  0  0
  2  3  1  0  0  0  0
  2  4  1  0  0  0  0
  2  5  1  0  0  0  0
  5  6  2  0  0  0  0
  5  7  1  0  0  0  0
  7  8  1  0  0  0  0
  7  9  1  0  0  0  0
  9 10  1  0  0  0  0
  9 11  1  0  0  0  0
  9 22  1  0  0  0  0
 11 12  1  0  0  0  0
 11 13  1  0  0  0  0
 11 14  1  0  0  0  0
 14 15  1  0  0  0  0
 14 16  1  0  0  0  0
 14 17  1  0  0  0  0
 17 18  1  0  0  0  0
 18 19  1  0  0  0  0
 18 20  1  0  0  0  0
 18 21  1  0  0  0  0
 22 23  2  0  0  0  0
 22 24  1  0  0  0  0
 24 25  1  0  0  0  0
 24 26  1  0  0  0  0
 26 27  1  0  0  0  0
 26 28  1  0  0  0  0
 26 29  1  0  0  0  0
M  END
$$$$

  -OEChem-01062216093D

 29 28  0     1  0  0  0  0  0999 V2000
   -3.2909   -3.3141    0.8385 H   0  0  0  0  0  0  0  0  0  0  0  0
   -3.3043   -2.3445    0.3322 C   0  0  0  0  0  0  0  0  0  0  0  0
   -4.1862   -1.7890    0.6598 H   0  0  0  0  0  0  0  0  0  0  0  0
   -3.3654   -2.5137   -0.7454 H   0  0  0  0  0  0  0  0  0  0  0  0
   -2.0460   -1.5657    0.6661 C   0  0  0  0  0  0  0  0  0  0  0  0
   -1.2706   -2.0019    1.4967 O   0  0  0  0  0  0  0  0  0  0  0  0
   -1.8182   -0.3466    0.0566 N   0  0  0  0  0  0  0  0  0  0  0  0
   -2.4688   -0.0996   -0.6829 H   0  0  0  0  0  0  0  0  0  0  0  0
   -0.5121    0.3497    0.0665 C   0  0  1  0  0  0  0  0  0  0  0  0
    0.1406   -0.0650    0.8424 H   0  0  0  0  0  0  0  0  0  0  0  0
    0.1569    0.1757   -1.3165 C   0  0  0  0  0  0  0  0  0  0  0  0
   -0.5214    0.5473   -2.0907 H   0  0  0  0  0  0  0  0  0  0  0  0
    1.0603    0.7917   -1.3600 H   0  0  0  0  0  0  0  0  0  0  0  0
    0.5512   -1.2705   -1.6505 C   0  0  0  0  0  0  0  0  0  0  0  0
   -0.3380   -1.9071   -1.6522 H   0  0  0  0  0  0  0  0  0  0  0  0
    0.9811   -1.3051   -2.6561 H   0  0  0  0  0  0  0  0  0  0  0  0
    1.7710   -1.9545   -0.4558 S   0  0  0  0  0  0  0  0  0  0  0  0
    3.2954   -0.9950   -0.8146 C   0  0  0  0  0  0  0  0  0  0  0  0
    3.1507    0.0611   -0.5689 H   0  0  0  0  0  0  0  0  0  0  0  0
    4.1267   -1.3787   -0.2159 H   0  0  0  0  0  0  0  0  0  0  0  0
    3.5574   -1.0801   -1.8730 H   0  0  0  0  0  0  0  0  0  0  0  0
   -0.6567    1.8560    0.3873 C   0  0  0  0  0  0  0  0  0  0  0  0
    0.3105    2.6039    0.3290 O   0  0  0  0  0  0  0  0  0  0  0  0
   -1.9056    2.4027    0.6262 N   0  0  0  0  0  0  0  0  0  0  0  0
   -2.6483    1.7389    0.8230 H   0  0  0  0  0  0  0  0  0  0  0  0
   -2.1047    3.8027    0.9826 C   0  0  0  0  0  0  0  0  0  0  0  0
   -1.7107    4.4583    0.1988 H   0  0  0  0  0  0  0  0  0  0  0  0
   -3.1714    4.0147    1.1029 H   0  0  0  0  0  0  0  0  0  0  0  0
   -1.5956    4.0341    1.9241 H   0  0  0  0  0  0  0  0  0  0  0  0
  1  2  1  0  0  0  0
  2  3  1  0  0  0  0
  2  4  1  0  0  0  0
  2  5  1  0  0  0  0
  5  6  2  0  0  0  0
  5  7  1  0  0  0  0
  7  8  1  0  0  0  0
  7  9  1  0  0  0  0
  9 10  1  0  0  0  0
  9 11  1  0  0  0  0
  9 22  1  0  0  0  0
 11 12  1  0  0  0  0
 11 13  1  0  0  0  0
 11 14  1  0  0  0  0
 14 15  1  0  0  0  0
 14 16  1  0  0  0  0
 14 17  1  0  0  0  0
 17 18  1  0  0  0  0
 18 19  1  0  0  0  0
 18 20  1  0  0  0  0
 18 21  1  0  0  0  0
 22 23  2  0  0  0  0
 22 24  1  0  0  0  0
 24 25  1  0  0  0  0
 24 26  1  0  0  0  0
 26 27  1  0  0  0  0
 26 28  1  0  0  0  0
 26 29  1  0  0  0  0
M  END
$$$$

  -OEChem-01062216093D

 29 28  0     1  0  0  0  0  0999 V2000
   -3.3051   -3.2894    0.8385 H   0  0  0  0  0  0  0  0  0  0  0  0
   -3.3086   -2.3229    0.3262 C   0  0  0  0  0  0  0  0  0  0  0  0
   -4.1846   -1.7559    0.6498 H   0  0  0  0  0  0  0  0  0  0  0  0
   -3.3712   -2.4978   -0.7504 H   0  0  0  0  0  0  0  0  0  0  0  0
   -2.0424   -1.5553    0.6553 C   0  0  0  0  0  0  0  0  0  0  0  0
   -1.2668   -1.9976    1.4825 O   0  0  0  0  0  0  0  0  0  0  0  0
   -1.8089   -0.3346    0.0525 N   0  0  0  0  0  0  0  0  0  0  0  0
   -2.4747   -0.0616   -0.6644 H   0  0  0  0  0  0  0  0  0  0  0  0
   -0.5012    0.3575    0.0597 C   0  0  1  0  0  0  0  0  0  0  0  0
    0.1510   -0.0578    0.8353 H   0  0  0  0  0  0  0  0  0  0  0  0
    0.1666    0.1725   -1.3242 C   0  0  0  0  0  0  0  0  0  0  0  0
   -0.5111    0.5421   -2.1000 H   0  0  0  0  0  0  0  0  0  0  0  0
    1.0731    0.7832   -1.3733 H   0  0  0  0  0  0  0  0  0  0  0  0
    0.5558   -1.2770   -1.6508 C   0  0  0  0  0  0  0  0  0  0  0  0
   -0.3362   -1.9098   -1.6477 H   0  0  0  0  0  0  0  0  0  0  0  0
    0.9838   -1.3189   -2.6571 H   0  0  0  0  0  0  0  0  0  0  0  0
    1.7748   -1.9591   -0.4537 S   0  0  0  0  0  0  0  0  0  0  0  0
    3.3024   -1.0069   -0.8195 C   0  0  0  0  0  0  0  0  0  0  0  0
    3.1603    0.0517   -0.5835 H   0  0  0  0  0  0  0  0  0  0  0  0
    4.1321   -1.3875   -0.2166 H   0  0  0  0  0  0  0  0  0  0  0  0
    3.5656   -1.1020   -1.8770 H   0  0  0  0  0  0  0  0  0  0  0  0
   -0.6565    1.8621    0.3900 C   0  0  0  0  0  0  0  0  0  0  0  0
    0.2224    2.6692    0.1163 O   0  0  0  0  0  0  0  0  0  0  0  0
   -1.8404    2.3300    0.9323 N   0  0  0  0  0  0  0  0  0  0  0  0
   -2.4850    1.6211    1.2704 H   0  0  0  0  0  0  0  0  0  0  0  0
   -2.0421    3.7161    1.3368 C   0  0  0  0  0  0  0  0  0  0  0  0
   -1.8997    4.3889    0.4845 H   0  0  0  0  0  0  0  0  0  0  0  0
   -3.0582    3.8551    1.7180 H   0  0  0  0  0  0  0  0  0  0  0  0
   -1.3342    3.9915    2.1256 H   0  0  0  0  0  0  0  0  0  0  0  0
  1  2  1  0  0  0  0
  2  3  1  0  0  0  0
  2  4  1  0  0  0  0
  2  5  1  0  0  0  0
  5  6  2  0  0  0  0
  5  7  1  0  0  0  0
  7  8  1  0  0  0  0
  7  9  1  0  0  0  0
  9 10  1  0  0  0  0
  9 11  1  0  0  0  0
  9 22  1  0  0  0  0
 11 12  1  0  0  0  0
 11 13  1  0  0  0  0
 11 14  1  0  0  0  0
 14 15  1  0  0  0  0
 14 16  1  0  0  0  0
 14 17  1  0  0  0  0
 17 18  1  0  0  0  0
 18 19  1  0  0  0  0
 18 20  1  0  0  0  0
 18 21  1  0  0  0  0
 22 23  2  0  0  0  0
 22 24  1  0  0  0  0
 24 25  1  0  0  0  0
 24 26  1  0  0  0  0
 26 27  1  0  0  0  0
 26 28  1  0  0  0  0
 26 29  1  0  0  0  0
M  END
$$$$

  -OEChem-01062216093D

 29 28  0     1  0  0  0  0  0999 V2000
   -3.3235   -3.2638    0.8344 H   0  0  0  0  0  0  0  0  0  0  0  0
   -3.3200   -2.2939    0.3283 C   0  0  0  0  0  0  0  0  0  0  0  0
   -4.1839   -1.7167    0.6664 H   0  0  0  0  0  0  0  0  0  0  0  0
   -3.3986   -2.4606   -0.7486 H   0  0  0  0  0  0  0  0  0  0  0  0
   -2.0393   -1.5456    0.6458 C   0  0  0  0  0  0  0  0  0  0  0  0
   -1.2610   -1.9989    1.4649 O   0  0  0  0  0  0  0  0  0  0  0  0
   -1.7978   -0.3232    0.0508 N   0  0  0  0  0  0  0  0  0  0  0  0
   -2.4777   -0.0238   -0.6422 H   0  0  0  0  0  0  0  0  0  0  0  0
   -0.4876    0.3623    0.0545 C   0  0  1  0  0  0  0  0  0  0  0  0
    0.1643   -0.0557    0.8290 H   0  0  0  0  0  0  0  0  0  0  0  0
    0.1797    0.1718   -1.3289 C   0  0  0  0  0  0  0  0  0  0  0  0
   -0.4960    0.5440   -2.1052 H   0  0  0  0  0  0  0  0  0  0  0  0
    1.0896    0.7775   -1.3783 H   0  0  0  0  0  0  0  0  0  0  0  0
    0.5625   -1.2800   -1.6518 C   0  0  0  0  0  0  0  0  0  0  0  0
   -0.3317   -1.9096   -1.6479 H   0  0  0  0  0  0  0  0  0  0  0  0
    0.9909   -1.3259   -2.6578 H   0  0  0  0  0  0  0  0  0  0  0  0
    1.7783   -1.9629   -0.4518 S   0  0  0  0  0  0  0  0  0  0  0  0
    3.3078   -1.0160   -0.8224 C   0  0  0  0  0  0  0  0  0  0  0  0
    3.1704    0.0429   -0.5854 H   0  0  0  0  0  0  0  0  0  0  0  0
    4.1382   -1.4002   -0.2228 H   0  0  0  0  0  0  0  0  0  0  0  0
    3.5660   -1.1117   -1.8810 H   0  0  0  0  0  0  0  0  0  0  0  0
   -0.6514    1.8635    0.3959 C   0  0  0  0  0  0  0  0  0  0  0  0
    0.0771    2.7219   -0.0857 O   0  0  0  0  0  0  0  0  0  0  0  0
   -1.6905    2.2616    1.2173 N   0  0  0  0  0  0  0  0  0  0  0  0
   -2.2089    1.5177    1.6773 H   0  0  0  0  0  0  0  0  0  0  0  0
   -1.8930    3.6394    1.6486 C   0  0  0  0  0  0  0  0  0  0  0  0
   -2.0303    4.2961    0.7832 H   0  0  0  0  0  0  0  0  0  0  0  0
   -2.7843    3.7107    2.2793 H   0  0  0  0  0  0  0  0  0  0  0  0
   -1.0306    3.9910    2.2246 H   0  0  0  0  0  0  0  0  0  0  0  0
  1  2  1  0  0  0  0
  2  3  1  0  0  0  0
  2  4  1  0  0  0  0
  2  5  1  0  0  0  0
  5  6  2  0  0  0  0
  5  7  1  0  0  0  0
  7  8  1  0  0  0  0
  7  9  1  0  0  0  0
  9 10  1  0  0  0  0
  9 11  1  0  0  0  0
  9 22  1  0  0  0  0
 11 12  1  0  0  0  0
 11 13  1  0  0  0  0
 11 14  1  0  0  0  0
 14 15  1  0  0  0  0
 14 16  1  0  0  0  0
 14 17  1  0  0  0  0
 17 18  1  0  0  0  0
 18 19  1  0  0  0  0
 18 20  1  0  0  0  0
 18 21  1  0  0  0  0
 22 23  2  0  0  0  0
 22 24  1  0  0  0  0
 24 25  1  0  0  0  0
 24 26  1  0  0  0  0
 26 27  1  0  0  0  0
 26 28  1  0  0  0  0
 26 29  1  0  0  0  0
M  END
$$$$

  -OEChem-01062216093D

 29 28  0     1  0  0  0  0  0999 V2000
   -3.3455   -3.2345    0.8355 H   0  0  0  0  0  0  0  0  0  0  0  0
   -3.3369   -2.2579    0.3431 C   0  0  0  0  0  0  0  0  0  0  0  0
   -4.1833   -1.6713    0.7084 H   0  0  0  0  0  0  0  0  0  0  0  0
   -3.4423   -2.4082   -0.7340 H   0  0  0  0  0  0  0  0  0  0  0  0
   -2.0375   -1.5352    0.6426 C   0  0  0  0  0  0  0  0  0  0  0  0
   -1.2553   -2.0038    1.4495 O   0  0  0  0  0  0  0  0  0  0  0  0
   -1.7845   -0.3128    0.0537 N   0  0  0  0  0  0  0  0  0  0  0  0
   -2.4761    0.0137   -0.6156 H   0  0  0  0  0  0  0  0  0  0  0  0
   -0.4703    0.3619    0.0554 C   0  0  1  0  0  0  0  0  0  0  0  0
    0.1811   -0.0620    0.8270 H   0  0  0  0  0  0  0  0  0  0  0  0
    0.1979    0.1740   -1.3279 C   0  0  0  0  0  0  0  0  0  0  0  0
   -0.4748    0.5526   -2.1039 H   0  0  0  0  0  0  0  0  0  0  0  0
    1.1096    0.7777   -1.3706 H   0  0  0  0  0  0  0  0  0  0  0  0
    0.5743   -1.2773   -1.6599 C   0  0  0  0  0  0  0  0  0  0  0  0
   -0.3234   -1.9022   -1.6599 H   0  0  0  0  0  0  0  0  0  0  0  0
    1.0025   -1.3192   -2.6662 H   0  0  0  0  0  0  0  0  0  0  0  0
    1.7860   -1.9742   -0.4636 S   0  0  0  0  0  0  0  0  0  0  0  0
    3.3190   -1.0306   -0.8291 C   0  0  0  0  0  0  0  0  0  0  0  0
    3.1890    0.0253   -0.5753 H   0  0  0  0  0  0  0  0  0  0  0  0
    4.1512   -1.4287   -0.2410 H   0  0  0  0  0  0  0  0  0  0  0  0
    3.5704   -1.1110   -1.8907 H   0  0  0  0  0  0  0  0  0  0  0  0
   -0.6401    1.8591    0.4057 C   0  0  0  0  0  0  0  0  0  0  0  0
   -0.1174    2.7491   -0.2538 O   0  0  0  0  0  0  0  0  0  0  0  0
   -1.4653    2.2085    1.4585 N   0  0  0  0  0  0  0  0  0  0  0  0
   -1.8406    1.4444    2.0148 H   0  0  0  0  0  0  0  0  0  0  0  0
   -1.6798    3.5821    1.8964 C   0  0  0  0  0  0  0  0  0  0  0  0
   -2.0992    4.1829    1.0825 H   0  0  0  0  0  0  0  0  0  0  0  0
   -2.3787    3.6056    2.7379 H   0  0  0  0  0  0  0  0  0  0  0  0
   -0.7353    4.0338    2.2174 H   0  0  0  0  0  0  0  0  0  0  0  0
  1  2  1  0  0  0  0
  2  3  1  0  0  0  0
  2  4  1  0  0  0  0
  2  5  1  0  0  0  0
  5  6  2  0  0  0  0
  5  7  1  0  0  0  0
  7  8  1  0  0  0  0
  7  9  1  0  0  0  0
  9 10  1  0  0  0  0
  9 11  1  0  0  0  0
  9 22  1  0  0  0  0
 11 12  1  0  0  0  0
 11 13  1  0  0  0  0
 11 14  1  0  0  0  0
 14 15  1  0  0  0  0
 14 16  1  0  0  0  0
 14 17  1  0  0  0  0
 17 18  1  0  0  0  0
 18 19  1  0  0  0  0
 18 20  1  0  0  0  0
 18 21  1  0  0  0  0
 22 23  2  0  0  0  0
 22 24  1  0  0  0  0
 24 25  1  0  0  0  0
 24 26  1  0  0  0  0
 26 27  1  0  0  0  0
 26 28  1  0  0  0  0
 26 29  1  0  0  0  0
M  END
$$$$

  -OEChem-01062216093D

 29 28  0     1  0  0  0  0  0999 V2000
   -3.3621   -3.2093    0.8472 H   0  0  0  0  0  0  0  0  0  0  0  0
   -3.3454   -2.2315    0.3575 C   0  0  0  0  0  0  0  0  0  0  0  0
   -4.1786   -1.6339    0.7350 H   0  0  0  0  0  0  0  0  0  0  0  0
   -3.4661   -2.3763   -0.7186 H   0  0  0  0  0  0  0  0  0  0  0  0
   -2.0321   -1.5281    0.6424 C   0  0  0  0  0  0  0  0  0  0  0  0
   -1.2449   -2.0106    1.4368 O   0  0  0  0  0  0  0  0  0  0  0  0
   -1.7713   -0.3058    0.0572 N   0  0  0  0  0  0  0  0  0  0  0  0
   -2.4696    0.0406   -0.5948 H   0  0  0  0  0  0  0  0  0  0  0  0
   -0.4549    0.3607    0.0586 C   0  0  1  0  0  0  0  0  0  0  0  0
    0.1985   -0.0688    0.8252 H   0  0  0  0  0  0  0  0  0  0  0  0
    0.2104    0.1796   -1.3262 C   0  0  0  0  0  0  0  0  0  0  0  0
   -0.4633    0.5633   -2.0991 H   0  0  0  0  0  0  0  0  0  0  0  0
    1.1216    0.7846   -1.3648 H   0  0  0  0  0  0  0  0  0  0  0  0
    0.5787   -1.2715   -1.6672 C   0  0  0  0  0  0  0  0  0  0  0  0
   -0.3227   -1.8910   -1.6693 H   0  0  0  0  0  0  0  0  0  0  0  0
    1.0048   -1.3095   -2.6744 H   0  0  0  0  0  0  0  0  0  0  0  0
    1.7880   -1.9832   -0.4770 S   0  0  0  0  0  0  0  0  0  0  0  0
    3.3270   -1.0476   -0.8365 C   0  0  0  0  0  0  0  0  0  0  0  0
    3.2046    0.0069   -0.5737 H   0  0  0  0  0  0  0  0  0  0  0  0
    4.1570   -1.4565   -0.2526 H   0  0  0  0  0  0  0  0  0  0  0  0
    3.5766   -1.1212   -1.8990 H   0  0  0  0  0  0  0  0  0  0  0  0
   -0.6244    1.8549    0.4138 C   0  0  0  0  0  0  0  0  0  0  0  0
   -0.3411    2.7505   -0.3727 O   0  0  0  0  0  0  0  0  0  0  0  0
   -1.1809    2.1873    1.6344 N   0  0  0  0  0  0  0  0  0  0  0  0
   -1.4083    1.4184    2.2605 H   0  0  0  0  0  0  0  0  0  0  0  0
   -1.4066    3.5580    2.0753 C   0  0  0  0  0  0  0  0  0  0  0  0
   -2.0750    4.0787    1.3816 H   0  0  0  0  0  0  0  0  0  0  0  0
   -1.8662    3.5650    3.0683 H   0  0  0  0  0  0  0  0  0  0  0  0
   -0.4586    4.1037    2.1283 H   0  0  0  0  0  0  0  0  0  0  0  0
  1  2  1  0  0  0  0
  2  3  1  0  0  0  0
  2  4  1  0  0  0  0
  2  5  1  0  0  0  0
  5  6  2  0  0  0  0
  5  7  1  0  0  0  0
  7  8  1  0  0  0  0
  7  9  1  0  0  0  0
  9 10  1  0  0  0  0
  9 11  1  0  0  0  0
  9 22  1  0  0  0  0
 11 12  1  0  0  0  0
 11 13  1  0  0  0  0
 11 14  1  0  0  0  0
 14 15  1  0  0  0  0
 14 16  1  0  0  0  0
 14 17  1  0  0  0  0
 17 18  1  0  0  0  0
 18 19  1  0  0  0  0
 18 20  1  0  0  0  0
 18 21  1  0  0  0  0
 22 23  2  0  0  0  0
 22 24  1  0  0  0  0
 24 25  1  0  0  0  0
 24 26  1  0  0  0  0
 26 27  1  0  0  0  0
 26 28  1  0  0  0  0
 26 29  1  0  0  0  0
M  END
$$$$

  -OEChem-01062216093D

 29 28  0     1  0  0  0  0  0999 V2000
   -3.3950   -3.1811    0.8711 H   0  0  0  0  0  0  0  0  0  0  0  0
   -3.3663   -2.2039    0.3809 C   0  0  0  0  0  0  0  0  0  0  0  0
   -4.1763   -1.5869    0.7772 H   0  0  0  0  0  0  0  0  0  0  0  0
   -3.5153   -2.3455   -0.6920 H   0  0  0  0  0  0  0  0  0  0  0  0
   -2.0310   -1.5309    0.6359 C   0  0  0  0  0  0  0  0  0  0  0  0
   -1.2330   -2.0375    1.4047 O   0  0  0  0  0  0  0  0  0  0  0  0
   -1.7608   -0.3090    0.0544 N   0  0  0  0  0  0  0  0  0  0  0  0
   -2.4708    0.0651   -0.5693 H   0  0  0  0  0  0  0  0  0  0  0  0
   -0.4434    0.3524    0.0575 C   0  0  1  0  0  0  0  0  0  0  0  0
    0.2092   -0.0843    0.8205 H   0  0  0  0  0  0  0  0  0  0  0  0
    0.2241    0.1813   -1.3267 C   0  0  0  0  0  0  0  0  0  0  0  0
   -0.4496    0.5677   -2.0984 H   0  0  0  0  0  0  0  0  0  0  0  0
    1.1329    0.7901   -1.3599 H   0  0  0  0  0  0  0  0  0  0  0  0
    0.5911   -1.2674   -1.6781 C   0  0  0  0  0  0  0  0  0  0  0  0
   -0.3117   -1.8853   -1.6857 H   0  0  0  0  0  0  0  0  0  0  0  0
    1.0188   -1.2986   -2.6850 H   0  0  0  0  0  0  0  0  0  0  0  0
    1.7975   -1.9880   -0.4900 S   0  0  0  0  0  0  0  0  0  0  0  0
    3.3377   -1.0508   -0.8403 C   0  0  0  0  0  0  0  0  0  0  0  0
    3.2123    0.0040   -0.5804 H   0  0  0  0  0  0  0  0  0  0  0  0
    4.1645   -1.4574   -0.2504 H   0  0  0  0  0  0  0  0  0  0  0  0
    3.5948   -1.1259   -1.9009 H   0  0  0  0  0  0  0  0  0  0  0  0
   -0.6079    1.8449    0.4146 C   0  0  0  0  0  0  0  0  0  0  0  0
   -0.5877    2.7217   -0.4410 O   0  0  0  0  0  0  0  0  0  0  0  0
   -0.8616    2.1916    1.7278 N   0  0  0  0  0  0  0  0  0  0  0  0
   -0.9246    1.4324    2.4020 H   0  0  0  0  0  0  0  0  0  0  0  0
   -1.0909    3.5602    2.1728 C   0  0  0  0  0  0  0  0  0  0  0  0
   -1.9553    3.9915    1.6570 H   0  0  0  0  0  0  0  0  0  0  0  0
   -1.2856    3.5797    3.2494 H   0  0  0  0  0  0  0  0  0  0  0  0
   -0.2124    4.1814    1.9689 H   0  0  0  0  0  0  0  0  0  0  0  0
  1  2  1  0  0  0  0
  2  3  1  0  0  0  0
  2  4  1  0  0  0  0
  2  5  1  0  0  0  0
  5  6  2  0  0  0  0
  5  7  1  0  0  0  0
  7  8  1  0  0  0  0
  7  9  1  0  0  0  0
  9 10  1  0  0  0  0
  9 11  1  0  0  0  0
  9 22  1  0  0  0  0
 11 12  1  0  0  0  0
 11 13  1  0  0  0  0
 11 14  1  0  0  0  0
 14 15  1  0  0  0  0
 14 16  1  0  0  0  0
 14 17  1  0  0  0  0
 17 18  1  0  0  0  0
 18 19  1  0  0  0  0
 18 20  1  0  0  0  0
 18 21  1  0  0  0  0
 22 23  2  0  0  0  0
 22 24  1  0  0  0  0
 24 25  1  0  0  0  0
 24 26  1  0  0  0  0
 26 27  1  0  0  0  0
 26 28  1  0  0  0  0
 26 29  1  0  0  0  0
M  END
$$$$

  -OEChem-01062216093D

 29 28  0     1  0  0  0  0  0999 V2000
   -3.4208   -3.1614    0.8915 H   0  0  0  0  0  0  0  0  0  0  0  0
   -3.3831   -2.1860    0.3984 C   0  0  0  0  0  0  0  0  0  0  0  0
   -4.1757   -1.5539    0.8060 H   0  0  0  0  0  0  0  0  0  0  0  0
   -3.5514   -2.3272   -0.6718 H   0  0  0  0  0  0  0  0  0  0  0  0
   -2.0319   -1.5364    0.6306 C   0  0  0  0  0  0  0  0  0  0  0  0
   -1.2230   -2.0658    1.3725 O   0  0  0  0  0  0  0  0  0  0  0  0
   -1.7525   -0.3159    0.0509 N   0  0  0  0  0  0  0  0  0  0  0  0
   -2.4743    0.0884   -0.5401 H   0  0  0  0  0  0  0  0  0  0  0  0
   -0.4347    0.3422    0.0591 C   0  0  1  0  0  0  0  0  0  0  0  0
    0.2153   -0.1020    0.8199 H   0  0  0  0  0  0  0  0  0  0  0  0
    0.2349    0.1825   -1.3249 C   0  0  0  0  0  0  0  0  0  0  0  0
   -0.4381    0.5740   -2.0948 H   0  0  0  0  0  0  0  0  0  0  0  0
    1.1428    0.7925   -1.3525 H   0  0  0  0  0  0  0  0  0  0  0  0
    0.6008   -1.2633   -1.6885 C   0  0  0  0  0  0  0  0  0  0  0  0
   -0.3025   -1.8800   -1.7020 H   0  0  0  0  0  0  0  0  0  0  0  0
    1.0296   -1.2872   -2.6951 H   0  0  0  0  0  0  0  0  0  0  0  0
    1.8045   -1.9942   -0.5040 S   0  0  0  0  0  0  0  0  0  0  0  0
    3.3458   -1.0551   -0.8436 C   0  0  0  0  0  0  0  0  0  0  0  0
    3.2206   -0.0024   -0.5759 H   0  0  0  0  0  0  0  0  0  0  0  0
    4.1705   -1.4671   -0.2543 H   0  0  0  0  0  0  0  0  0  0  0  0
    3.6051   -1.1222   -1.9042 H   0  0  0  0  0  0  0  0  0  0  0  0
   -0.5928    1.8349    0.4135 C   0  0  0  0  0  0  0  0  0  0  0  0
   -0.8387    2.6700   -0.4488 O   0  0  0  0  0  0  0  0  0  0  0  0
   -0.5371    2.2266    1.7377 N   0  0  0  0  0  0  0  0  0  0  0  0
   -0.4151    1.4943    2.4331 H   0  0  0  0  0  0  0  0  0  0  0  0
   -0.7588    3.5969    2.1819 C   0  0  0  0  0  0  0  0  0  0  0  0
   -1.7586    3.9373    1.8925 H   0  0  0  0  0  0  0  0  0  0  0  0
   -0.6740    3.6595    3.2710 H   0  0  0  0  0  0  0  0  0  0  0  0
   -0.0157    4.2677    1.7382 H   0  0  0  0  0  0  0  0  0  0  0  0
  1  2  1  0  0  0  0
  2  3  1  0  0  0  0
  2  4  1  0  0  0  0
  2  5  1  0  0  0  0
  5  6  2  0  0  0  0
  5  7  1  0  0  0  0
  7  8  1  0  0  0  0
  7  9  1  0  0  0  0
  9 10  1  0  0  0  0
  9 11  1  0  0  0  0
  9 22  1  0  0  0  0
 11 12  1  0  0  0  0
 11 13  1  0  0  0  0
 11 14  1  0  0  0  0
 14 15  1  0  0  0  0
 14 16  1  0  0  0  0
 14 17  1  0  0  0  0
 17 18  1  0  0  0  0
 18 19  1  0  0  0  0
 18 20  1  0  0  0  0
 18 21  1  0  0  0  0
 22 23  2  0  0  0  0
 22 24  1  0  0  0  0
 24 25  1  0  0  0  0
 24 26  1  0  0  0  0
 26 27  1  0  0  0  0
 26 28  1  0  0  0  0
 26 29  1  0  0  0  0
M  END
$$$$

  -OEChem-01062216093D

 29 28  0     1  0  0  0  0  0999 V2000
   -3.4544   -3.1384    0.9186 H   0  0  0  0  0  0  0  0  0  0  0  0
   -3.4049   -2.1645    0.4231 C   0  0  0  0  0  0  0  0  0  0  0  0
   -4.1710   -1.5126    0.8498 H   0  0  0  0  0  0  0  0  0  0  0  0
   -3.6040   -2.3020   -0.6424 H   0  0  0  0  0  0  0  0  0  0  0  0
   -2.0327   -1.5484    0.6188 C   0  0  0  0  0  0  0  0  0  0  0  0
   -1.2110   -2.1084    1.3234 O   0  0  0  0  0  0  0  0  0  0  0  0
   -1.7440   -0.3298    0.0403 N   0  0  0  0  0  0  0  0  0  0  0  0
   -2.4825    0.1142   -0.5001 H   0  0  0  0  0  0  0  0  0  0  0  0
   -0.4275    0.3291    0.0561 C   0  0  1  0  0  0  0  0  0  0  0  0
    0.2182   -0.1187    0.8183 H   0  0  0  0  0  0  0  0  0  0  0  0
    0.2466    0.1826   -1.3257 C   0  0  0  0  0  0  0  0  0  0  0  0
   -0.4256    0.5786   -2.0942 H   0  0  0  0  0  0  0  0  0  0  0  0
    1.1531    0.7949   -1.3454 H   0  0  0  0  0  0  0  0  0  0  0  0
    0.6158   -1.2598   -1.6995 C   0  0  0  0  0  0  0  0  0  0  0  0
   -0.2872   -1.8772   -1.7198 H   0  0  0  0  0  0  0  0  0  0  0  0
    1.0472   -1.2756   -2.7050 H   0  0  0  0  0  0  0  0  0  0  0  0
    1.8167   -1.9987   -0.5166 S   0  0  0  0  0  0  0  0  0  0  0  0
    3.3579   -1.0550   -0.8435 C   0  0  0  0  0  0  0  0  0  0  0  0
    3.2310   -0.0049   -0.5662 H   0  0  0  0  0  0  0  0  0  0  0  0
    4.1817   -1.4719   -0.2566 H   0  0  0  0  0  0  0  0  0  0  0  0
    3.6195   -1.1124   -1.9041 H   0  0  0  0  0  0  0  0  0  0  0  0
   -0.5842    1.8221    0.4048 C   0  0  0  0  0  0  0  0  0  0  0  0
   -1.0810    2.6005   -0.4009 O   0  0  0  0  0  0  0  0  0  0  0  0
   -0.2349    2.2780    1.6620 N   0  0  0  0  0  0  0  0  0  0  0  0
    0.0807    1.5855    2.3365 H   0  0  0  0  0  0  0  0  0  0  0  0
   -0.4370    3.6530    2.1014 C   0  0  0  0  0  0  0  0  0  0  0  0
   -1.4986    3.9178    2.0573 H   0  0  0  0  0  0  0  0  0  0  0  0
   -0.0926    3.7748    3.1329 H   0  0  0  0  0  0  0  0  0  0  0  0
    0.1256    4.3449    1.4658 H   0  0  0  0  0  0  0  0  0  0  0  0
  1  2  1  0  0  0  0
  2  3  1  0  0  0  0
  2  4  1  0  0  0  0
  2  5  1  0  0  0  0
  5  6  2  0  0  0  0
  5  7  1  0  0  0  0
  7  8  1  0  0  0  0
  7  9  1  0  0  0  0
  9 10  1  0  0  0  0
  9 11  1  0  0  0  0
  9 22  1  0  0  0  0
 11 12  1  0  0  0  0
 11 13  1  0  0  0  0
 11 14  1  0  0  0  0
 14 15  1  0  0  0  0
 14 16  1  0  0  0  0
 14 17  1  0  0  0  0
 17 18  1  0  0  0  0
 18 19  1  0  0  0  0
 18 20  1  0  0  0  0
 18 21  1  0  0  0  0
 22 23  2  0  0  0  0
 22 24  1  0  0  0  0
 24 25  1  0  0  0  0
 24 26  1  0  0  0  0
 26 27  1  0  0  0  0
 26 28  1  0  0  0  0
 26 29  1  0  0  0  0
M  END
$$$$

  -OEChem-01062216093D

 29 28  0     1  0  0  0  0  0999 V2000
   -3.4865   -3.1171    0.9501 H   0  0  0  0  0  0  0  0  0  0  0  0
   -3.4274   -2.1460    0.4506 C   0  0  0  0  0  0  0  0  0  0  0  0
   -4.1636   -1.4741    0.8981 H   0  0  0  0  0  0  0  0  0  0  0  0
   -3.6619   -2.2806   -0.6080 H   0  0  0  0  0  0  0  0  0  0  0  0
   -2.0348   -1.5640    0.6030 C   0  0  0  0  0  0  0  0  0  0  0  0
   -1.2008   -2.1540    1.2678 O   0  0  0  0  0  0  0  0  0  0  0  0
   -1.7388   -0.3469    0.0253 N   0  0  0  0  0  0  0  0  0  0  0  0
   -2.4952    0.1402   -0.4503 H   0  0  0  0  0  0  0  0  0  0  0  0
   -0.4242    0.3147    0.0502 C   0  0  1  0  0  0  0  0  0  0  0  0
    0.2156   -0.1351    0.8162 H   0  0  0  0  0  0  0  0  0  0  0  0
    0.2565    0.1833   -1.3287 C   0  0  0  0  0  0  0  0  0  0  0  0
   -0.4143    0.5849   -2.0954 H   0  0  0  0  0  0  0  0  0  0  0  0
    1.1617    0.7975   -1.3398 H   0  0  0  0  0  0  0  0  0  0  0  0
    0.6312   -1.2546   -1.7129 C   0  0  0  0  0  0  0  0  0  0  0  0
   -0.2703   -1.8742   -1.7413 H   0  0  0  0  0  0  0  0  0  0  0  0
    1.0669   -1.2619   -2.7169 H   0  0  0  0  0  0  0  0  0  0  0  0
    1.8288   -1.9985   -0.5294 S   0  0  0  0  0  0  0  0  0  0  0  0
    3.3708   -1.0498   -0.8379 C   0  0  0  0  0  0  0  0  0  0  0  0
    3.2395   -0.0016   -0.5561 H   0  0  0  0  0  0  0  0  0  0  0  0
    4.1903   -1.4683   -0.2462 H   0  0  0  0  0  0  0  0  0  0  0  0
    3.6425   -1.1009   -1.8963 H   0  0  0  0  0  0  0  0  0  0  0  0
   -0.5848    1.8079    0.3925 C   0  0  0  0  0  0  0  0  0  0  0  0
   -1.2956    2.5237   -0.3039 O   0  0  0  0  0  0  0  0  0  0  0  0
    0.0255    2.3384    1.5136 N   0  0  0  0  0  0  0  0  0  0  0  0
    0.5314    1.6963    2.1181 H   0  0  0  0  0  0  0  0  0  0  0  0
   -0.1431    3.7234    1.9359 C   0  0  0  0  0  0  0  0  0  0  0  0
   -1.1981    3.9368    2.1378 H   0  0  0  0  0  0  0  0  0  0  0  0
    0.4294    3.9131    2.8489 H   0  0  0  0  0  0  0  0  0  0  0  0
    0.2122    4.4072    1.1577 H   0  0  0  0  0  0  0  0  0  0  0  0
  1  2  1  0  0  0  0
  2  3  1  0  0  0  0
  2  4  1  0  0  0  0
  2  5  1  0  0  0  0
  5  6  2  0  0  0  0
  5  7  1  0  0  0  0
  7  8  1  0  0  0  0
  7  9  1  0  0  0  0
  9 10  1  0  0  0  0
  9 11  1  0  0  0  0
  9 22  1  0  0  0  0
 11 12  1  0  0  0  0
 11 13  1  0  0  0  0
 11 14  1  0  0  0  0
 14 15  1  0  0  0  0
 14 16  1  0  0  0  0
 14 17  1  0  0  0  0
 17 18  1  0  0  0  0
 18 19  1  0  0  0  0
 18 20  1  0  0  0  0
 18 21  1  0  0  0  0
 22 23  2  0  0  0  0
 22 24  1  0  0  0  0
 24 25  1  0  0  0  0
 24 26  1  0  0  0  0
 26 27  1  0  0  0  0
 26 28  1  0  0  0  0
 26 29  1  0  0  0  0
M  END
$$$$

  -OEChem-01062216093D

 29 28  0     1  0  0  0  0  0999 V2000
   -3.5123   -3.0953    0.9819 H   0  0  0  0  0  0  0  0  0  0  0  0
   -3.4461   -2.1282    0.4753 C   0  0  0  0  0  0  0  0  0  0  0  0
   -4.1520   -1.4370    0.9419 H   0  0  0  0  0  0  0  0  0  0  0  0
   -3.7166   -2.2621   -0.5748 H   0  0  0  0  0  0  0  0  0  0  0  0
   -2.0362   -1.5784    0.5810 C   0  0  0  0  0  0  0  0  0  0  0  0
   -1.1902   -2.1956    1.2045 O   0  0  0  0  0  0  0  0  0  0  0  0
   -1.7363   -0.3624    0.0036 N   0  0  0  0  0  0  0  0  0  0  0  0
   -2.5085    0.1635   -0.4014 H   0  0  0  0  0  0  0  0  0  0  0  0
   -0.4249    0.3051    0.0404 C   0  0  1  0  0  0  0  0  0  0  0  0
    0.2077   -0.1422    0.8139 H   0  0  0  0  0  0  0  0  0  0  0  0
    0.2640    0.1793   -1.3342 C   0  0  0  0  0  0  0  0  0  0  0  0
   -0.4056    0.5794   -2.1030 H   0  0  0  0  0  0  0  0  0  0  0  0
    1.1665    0.7976   -1.3396 H   0  0  0  0  0  0  0  0  0  0  0  0
    0.6473   -1.2561   -1.7193 C   0  0  0  0  0  0  0  0  0  0  0  0
   -0.2514   -1.8797   -1.7524 H   0  0  0  0  0  0  0  0  0  0  0  0
    1.0878   -1.2603   -2.7210 H   0  0  0  0  0  0  0  0  0  0  0  0
    1.8417   -1.9955   -0.5297 S   0  0  0  0  0  0  0  0  0  0  0  0
    3.3797   -1.0377   -0.8297 C   0  0  0  0  0  0  0  0  0  0  0  0
    3.2411    0.0095   -0.5477 H   0  0  0  0  0  0  0  0  0  0  0  0
    4.1988   -1.4521   -0.2346 H   0  0  0  0  0  0  0  0  0  0  0  0
    3.6562   -1.0866   -1.8870 H   0  0  0  0  0  0  0  0  0  0  0  0
   -0.5896    1.7998    0.3753 C   0  0  0  0  0  0  0  0  0  0  0  0
   -1.4715    2.4547   -0.1696 O   0  0  0  0  0  0  0  0  0  0  0  0
    0.2377    2.4064    1.3020 N   0  0  0  0  0  0  0  0  0  0  0  0
    0.9049    1.8158    1.7915 H   0  0  0  0  0  0  0  0  0  0  0  0
    0.1014    3.8014    1.7029 C   0  0  0  0  0  0  0  0  0  0  0  0
   -0.8834    3.9779    2.1479 H   0  0  0  0  0  0  0  0  0  0  0  0
    0.8665    4.0594    2.4414 H   0  0  0  0  0  0  0  0  0  0  0  0
    0.2206    4.4623    0.8379 H   0  0  0  0  0  0  0  0  0  0  0  0
  1  2  1  0  0  0  0
  2  3  1  0  0  0  0
  2  4  1  0  0  0  0
  2  5  1  0  0  0  0
  5  6  2  0  0  0  0
  5  7  1  0  0  0  0
  7  8  1  0  0  0  0
  7  9  1  0  0  0  0
  9 10  1  0  0  0  0
  9 11  1  0  0  0  0
  9 22  1  0  0  0  0
 11 12  1  0  0  0  0
 11 13  1  0  0  0  0
 11 14  1  0  0  0  0
 14 15  1  0  0  0  0
 14 16  1  0  0  0  0
 14 17  1  0  0  0  0
 17 18  1  0  0  0  0
 18 19  1  0  0  0  0
 18 20  1  0  0  0  0
 18 21  1  0  0  0  0
 22 23  2  0  0  0  0
 22 24  1  0  0  0  0
 24 25  1  0  0  0  0
 24 26  1  0  0  0  0
 26 27  1  0  0  0  0
 26 28  1  0  0  0  0
 26 29  1  0  0  0  0
M  END
$$$$

  -OEChem-01062216093D

 29 28  0     1  0  0  0  0  0999 V2000
   -3.5255   -3.0813    1.0096 H   0  0  0  0  0  0  0  0  0  0  0  0
   -3.4582   -2.1175    0.4970 C   0  0  0  0  0  0  0  0  0  0  0  0
   -4.1386   -1.4127    0.9810 H   0  0  0  0  0  0  0  0  0  0  0  0
   -3.7615   -2.2503   -0.5441 H   0  0  0  0  0  0  0  0  0  0  0  0
   -2.0368   -1.5910    0.5587 C   0  0  0  0  0  0  0  0  0  0  0  0
   -1.1796   -2.2288    1.1451 O   0  0  0  0  0  0  0  0  0  0  0  0
   -1.7383   -0.3749   -0.0190 N   0  0  0  0  0  0  0  0  0  0  0  0
   -2.5234    0.1811   -0.3541 H   0  0  0  0  0  0  0  0  0  0  0  0
   -0.4305    0.2997    0.0302 C   0  0  1  0  0  0  0  0  0  0  0  0
    0.1965   -0.1431    0.8111 H   0  0  0  0  0  0  0  0  0  0  0  0
    0.2666    0.1773   -1.3407 C   0  0  0  0  0  0  0  0  0  0  0  0
   -0.4015    0.5751   -2.1118 H   0  0  0  0  0  0  0  0  0  0  0  0
    1.1669    0.7986   -1.3426 H   0  0  0  0  0  0  0  0  0  0  0  0
    0.6588   -1.2557   -1.7249 C   0  0  0  0  0  0  0  0  0  0  0  0
   -0.2367   -1.8836   -1.7620 H   0  0  0  0  0  0  0  0  0  0  0  0
    1.1038   -1.2580   -2.7247 H   0  0  0  0  0  0  0  0  0  0  0  0
    1.8508   -1.9893   -0.5290 S   0  0  0  0  0  0  0  0  0  0  0  0
    3.3867   -1.0250   -0.8185 C   0  0  0  0  0  0  0  0  0  0  0  0
    3.2411    0.0225   -0.5415 H   0  0  0  0  0  0  0  0  0  0  0  0
    4.2021   -1.4336   -0.2144 H   0  0  0  0  0  0  0  0  0  0  0  0
    3.6728   -1.0766   -1.8730 H   0  0  0  0  0  0  0  0  0  0  0  0
   -0.5999    1.7957    0.3591 C   0  0  0  0  0  0  0  0  0  0  0  0
   -1.6085    2.3937   -0.0007 O   0  0  0  0  0  0  0  0  0  0  0  0
    0.3894    2.4770    1.0434 N   0  0  0  0  0  0  0  0  0  0  0  0
    1.1802    1.9370    1.3838 H   0  0  0  0  0  0  0  0  0  0  0  0
    0.2817    3.8830    1.4131 C   0  0  0  0  0  0  0  0  0  0  0  0
   -0.5768    4.0406    2.0744 H   0  0  0  0  0  0  0  0  0  0  0  0
    1.1865    4.2070    1.9364 H   0  0  0  0  0  0  0  0  0  0  0  0
    0.1581    4.5058    0.5207 H   0  0  0  0  0  0  0  0  0  0  0  0
  1  2  1  0  0  0  0
  2  3  1  0  0  0  0
  2  4  1  0  0  0  0
  2  5  1  0  0  0  0
  5  6  2  0  0  0  0
  5  7  1  0  0  0  0
  7  8  1  0  0  0  0
  7  9  1  0  0  0  0
  9 10  1  0  0  0  0
  9 11  1  0  0  0  0
  9 22  1  0  0  0  0
 11 12  1  0  0  0  0
 11 13  1  0  0  0  0
 11 14  1  0  0  0  0
 14 15  1  0  0  0  0
 14 16  1  0  0  0  0
 14 17  1  0  0  0  0
 17 18  1  0  0  0  0
 18 19  1  0  0  0  0
 18 20  1  0  0  0  0
 18 21  1  0  0  0  0
 22 23  2  0  0  0  0
 22 24  1  0  0  0  0
 24 25  1  0  0  0  0
 24 26  1  0  0  0  0
 26 27  1  0  0  0  0
 26 28  1  0  0  0  0
 26 29  1  0  0  0  0
M  END
$$$$

  -OEChem-01062216093D

 29 28  0     1  0  0  0  0  0999 V2000
   -3.5310   -3.0663    1.0342 H   0  0  0  0  0  0  0  0  0  0  0  0
   -3.4646   -2.1042    0.5183 C   0  0  0  0  0  0  0  0  0  0  0  0
   -4.1177   -1.3881    1.0229 H   0  0  0  0  0  0  0  0  0  0  0  0
   -3.8034   -2.2330   -0.5124 H   0  0  0  0  0  0  0  0  0  0  0  0
   -2.0340   -1.6001    0.5331 C   0  0  0  0  0  0  0  0  0  0  0  0
   -1.1672   -2.2571    1.0824 O   0  0  0  0  0  0  0  0  0  0  0  0
   -1.7391   -0.3831   -0.0447 N   0  0  0  0  0  0  0  0  0  0  0  0
   -2.5337    0.1966   -0.3112 H   0  0  0  0  0  0  0  0  0  0  0  0
   -0.4342    0.2971    0.0183 C   0  0  1  0  0  0  0  0  0  0  0  0
    0.1875   -0.1408    0.8063 H   0  0  0  0  0  0  0  0  0  0  0  0
    0.2706    0.1711   -1.3503 C   0  0  0  0  0  0  0  0  0  0  0  0
   -0.3959    0.5647   -2.1249 H   0  0  0  0  0  0  0  0  0  0  0  0
    1.1702    0.7931   -1.3534 H   0  0  0  0  0  0  0  0  0  0  0  0
    0.6692   -1.2615   -1.7302 C   0  0  0  0  0  0  0  0  0  0  0  0
   -0.2235   -1.8934   -1.7699 H   0  0  0  0  0  0  0  0  0  0  0  0
    1.1189   -1.2648   -2.7277 H   0  0  0  0  0  0  0  0  0  0  0  0
    1.8582   -1.9868   -0.5264 S   0  0  0  0  0  0  0  0  0  0  0  0
    3.3925   -1.0183   -0.8100 C   0  0  0  0  0  0  0  0  0  0  0  0
    3.2423    0.0290   -0.5350 H   0  0  0  0  0  0  0  0  0  0  0  0
    4.2064   -1.4239   -0.2017 H   0  0  0  0  0  0  0  0  0  0  0  0
    3.6839   -1.0703   -1.8632 H   0  0  0  0  0  0  0  0  0  0  0  0
   -0.6107    1.7952    0.3436 C   0  0  0  0  0  0  0  0  0  0  0  0
   -1.7013    2.3362    0.1921 O   0  0  0  0  0  0  0  0  0  0  0  0
    0.4707    2.5534    0.7538 N   0  0  0  0  0  0  0  0  0  0  0  0
    1.3449    2.0654    0.9268 H   0  0  0  0  0  0  0  0  0  0  0  0
    0.3727    3.9680    1.0929 C   0  0  0  0  0  0  0  0  0  0  0  0
   -0.3132    4.1143    1.9339 H   0  0  0  0  0  0  0  0  0  0  0  0
    1.3551    4.3582    1.3758 H   0  0  0  0  0  0  0  0  0  0  0  0
    0.0073    4.5434    0.2357 H   0  0  0  0  0  0  0  0  0  0  0  0
  1  2  1  0  0  0  0
  2  3  1  0  0  0  0
  2  4  1  0  0  0  0
  2  5  1  0  0  0  0
  5  6  2  0  0  0  0
  5  7  1  0  0  0  0
  7  8  1  0  0  0  0
  7  9  1  0  0  0  0
  9 10  1  0  0  0  0
  9 11  1  0  0  0  0
  9 22  1  0  0  0  0
 11 12  1  0  0  0  0
 11 13  1  0  0  0  0
 11 14  1  0  0  0  0
 14 15  1  0  0  0  0
 14 16  1  0  0  0  0
 14 17  1  0  0  0  0
 17 18  1  0  0  0  0
 18 19  1  0  0  0  0
 18 20  1  0  0  0  0
 18 21  1  0  0  0  0
 22 23  2  0  0  0  0
 22 24  1  0  0  0  0
 24 25  1  0  0  0  0
 24 26  1  0  0  0  0
 26 27  1  0  0  0  0
 26 28  1  0  0  0  0
 26 29  1  0  0  0  0
M  END
$$$$

  -OEChem-01062216093D

 29 28  0     1  0  0  0  0  0999 V2000
   -3.4781   -3.0419    1.0910 H   0  0  0  0  0  0  0  0  0  0  0  0
   -3.4385   -2.0819    0.5688 C   0  0  0  0  0  0  0  0  0  0  0  0
   -4.0328   -1.3537    1.1262 H   0  0  0  0  0  0  0  0  0  0  0  0
   -3.8661   -2.2051   -0.4290 H   0  0  0  0  0  0  0  0  0  0  0  0
   -2.0026   -1.6053    0.4600 C   0  0  0  0  0  0  0  0  0  0  0  0
   -1.1011   -2.3015    0.8957 O   0  0  0  0  0  0  0  0  0  0  0  0
   -1.7391   -0.3779   -0.1127 N   0  0  0  0  0  0  0  0  0  0  0  0
   -2.5485    0.2312   -0.2179 H   0  0  0  0  0  0  0  0  0  0  0  0
   -0.4362    0.3055   -0.0247 C   0  0  1  0  0  0  0  0  0  0  0  0
    0.2775   -0.2802    0.5636 H   0  0  0  0  0  0  0  0  0  0  0  0
    0.0971    0.4957   -1.4617 C   0  0  0  0  0  0  0  0  0  0  0  0
   -0.6540    1.0319   -2.0510 H   0  0  0  0  0  0  0  0  0  0  0  0
    0.9957    1.1183   -1.4412 H   0  0  0  0  0  0  0  0  0  0  0  0
    0.4369   -0.8216   -2.1743 C   0  0  0  0  0  0  0  0  0  0  0  0
   -0.4599   -1.4464   -2.2370 H   0  0  0  0  0  0  0  0  0  0  0  0
    0.7629   -0.6113   -3.1974 H   0  0  0  0  0  0  0  0  0  0  0  0
    1.7547   -1.7634   -1.3001 S   0  0  0  0  0  0  0  0  0  0  0  0
    3.2525   -0.7322   -1.5573 C   0  0  0  0  0  0  0  0  0  0  0  0
    3.1469    0.2316   -1.0527 H   0  0  0  0  0  0  0  0  0  0  0  0
    4.1304   -1.2427   -1.1504 H   0  0  0  0  0  0  0  0  0  0  0  0
    3.4136   -0.5578   -2.6252 H   0  0  0  0  0  0  0  0  0  0  0  0
   -0.5753    1.6798    0.6691 C   0  0  0  0  0  0  0  0  0  0  0  0
   -1.6843    2.1147    0.9626 O   0  0  0  0  0  0  0  0  0  0  0  0
    0.5316    2.4883    0.8577 N   0  0  0  0  0  0  0  0  0  0  0  0
    1.4428    2.0837    0.6629 H   0  0  0  0  0  0  0  0  0  0  0  0
    0.4644    3.7982    1.4948 C   0  0  0  0  0  0  0  0  0  0  0  0
    0.0970    3.7067    2.5223 H   0  0  0  0  0  0  0  0  0  0  0  0
    1.4570    4.2576    1.5217 H   0  0  0  0  0  0  0  0  0  0  0  0
   -0.2066    4.4611    0.9384 H   0  0  0  0  0  0  0  0  0  0  0  0
  1  2  1  0  0  0  0
  2  3  1  0  0  0  0
  2  4  1  0  0  0  0
  2  5  1  0  0  0  0
  5  6  2  0  0  0  0
  5  7  1  0  0  0  0
  7  8  1  0  0  0  0
  7  9  1  0  0  0  0
  9 10  1  0  0  0  0
  9 11  1  0  0  0  0
  9 22  1  0  0  0  0
 11 12  1  0  0  0  0
 11 13  1  0  0  0  0
 11 14  1  0  0  0  0
 14 15  1  0  0  0  0
 14 16  1  0  0  0  0
 14 17  1  0  0  0  0
 17 18  1  0  0  0  0
 18 19  1  0  0  0  0
 18 20  1  0  0  0  0
 18 21  1  0  0  0  0
 22 23  2  0  0  0  0
 22 24  1  0  0  0  0
 24 25  1  0  0  0  0
 24 26  1  0  0  0  0
 26 27  1  0  0  0  0
 26 28  1  0  0  0  0
 26 29  1  0  0  0  0
M  END
$$$$

  -OEChem-01062216093D

 29 28  0     1  0  0  0  0  0999 V2000
   -3.4665   -3.0293    1.1025 H   0  0  0  0  0  0  0  0  0  0  0  0
   -3.4333   -2.0627    0.5918 C   0  0  0  0  0  0  0  0  0  0  0  0
   -3.9939   -1.3339    1.1823 H   0  0  0  0  0  0  0  0  0  0  0  0
   -3.9024   -2.1661   -0.3895 H   0  0  0  0  0  0  0  0  0  0  0  0
   -1.9960   -1.6038    0.4337 C   0  0  0  0  0  0  0  0  0  0  0  0
   -1.0887   -2.3178    0.8261 O   0  0  0  0  0  0  0  0  0  0  0  0
   -1.7395   -0.3730   -0.1357 N   0  0  0  0  0  0  0  0  0  0  0  0
   -2.5498    0.2407   -0.1934 H   0  0  0  0  0  0  0  0  0  0  0  0
   -0.4360    0.3102   -0.0417 C   0  0  1  0  0  0  0  0  0  0  0  0
    0.2756   -0.2734    0.5516 H   0  0  0  0  0  0  0  0  0  0  0  0
    0.1036    0.4868   -1.4801 C   0  0  0  0  0  0  0  0  0  0  0  0
   -0.6445    1.0199   -2.0762 H   0  0  0  0  0  0  0  0  0  0  0  0
    1.0054    1.1037   -1.4656 H   0  0  0  0  0  0  0  0  0  0  0  0
    0.4449   -0.8364   -2.1812 C   0  0  0  0  0  0  0  0  0  0  0  0
   -0.4521   -1.4608   -2.2418 H   0  0  0  0  0  0  0  0  0  0  0  0
    0.7745   -0.6337   -3.2048 H   0  0  0  0  0  0  0  0  0  0  0  0
    1.7588   -1.7746   -1.2973 S   0  0  0  0  0  0  0  0  0  0  0  0
    3.2619   -0.7514   -1.5544 C   0  0  0  0  0  0  0  0  0  0  0  0
    3.1585    0.2162   -1.0564 H   0  0  0  0  0  0  0  0  0  0  0  0
    4.1357   -1.2632   -1.1402 H   0  0  0  0  0  0  0  0  0  0  0  0
    3.4283   -0.5855   -2.6229 H   0  0  0  0  0  0  0  0  0  0  0  0
   -0.5850    1.6824    0.6604 C   0  0  0  0  0  0  0  0  0  0  0  0
   -1.6548    1.9993    1.1701 O   0  0  0  0  0  0  0  0  0  0  0  0
    0.4200    2.6324    0.5985 N   0  0  0  0  0  0  0  0  0  0  0  0
    1.3125    2.3420    0.2109 H   0  0  0  0  0  0  0  0  0  0  0  0
    0.3182    3.9479    1.2199 C   0  0  0  0  0  0  0  0  0  0  0  0
    0.1832    3.8508    2.3023 H   0  0  0  0  0  0  0  0  0  0  0  0
    1.2291    4.5254    1.0349 H   0  0  0  0  0  0  0  0  0  0  0  0
   -0.5311    4.5028    0.8072 H   0  0  0  0  0  0  0  0  0  0  0  0
  1  2  1  0  0  0  0
  2  3  1  0  0  0  0
  2  4  1  0  0  0  0
  2  5  1  0  0  0  0
  5  6  2  0  0  0  0
  5  7  1  0  0  0  0
  7  8  1  0  0  0  0
  7  9  1  0  0  0  0
  9 10  1  0  0  0  0
  9 11  1  0  0  0  0
  9 22  1  0  0  0  0
 11 12  1  0  0  0  0
 11 13  1  0  0  0  0
 11 14  1  0  0  0  0
 14 15  1  0  0  0  0
 14 16  1  0  0  0  0
 14 17  1  0  0  0  0
 17 18  1  0  0  0  0
 18 19  1  0  0  0  0
 18 20  1  0  0  0  0
 18 21  1  0  0  0  0
 22 23  2  0  0  0  0
 22 24  1  0  0  0  0
 24 25  1  0  0  0  0
 24 26  1  0  0  0  0
 26 27  1  0  0  0  0
 26 28  1  0  0  0  0
 26 29  1  0  0  0  0
M  END
$$$$

  -OEChem-01062216093D

 29 28  0     1  0  0  0  0  0999 V2000
   -3.4562   -3.0074    1.1294 H   0  0  0  0  0  0  0  0  0  0  0  0
   -3.4275   -2.0492    0.6031 C   0  0  0  0  0  0  0  0  0  0  0  0
   -3.9788   -1.3100    1.1896 H   0  0  0  0  0  0  0  0  0  0  0  0
   -3.9091   -2.1662   -0.3705 H   0  0  0  0  0  0  0  0  0  0  0  0
   -1.9910   -1.5977    0.4191 C   0  0  0  0  0  0  0  0  0  0  0  0
   -1.0807   -2.3241    0.7802 O   0  0  0  0  0  0  0  0  0  0  0  0
   -1.7404   -0.3637   -0.1466 N   0  0  0  0  0  0  0  0  0  0  0  0
   -2.5524    0.2483   -0.1846 H   0  0  0  0  0  0  0  0  0  0  0  0
   -0.4345    0.3165   -0.0561 C   0  0  1  0  0  0  0  0  0  0  0  0
    0.2757   -0.2667    0.5395 H   0  0  0  0  0  0  0  0  0  0  0  0
    0.1102    0.4785   -1.4956 C   0  0  0  0  0  0  0  0  0  0  0  0
   -0.6322    1.0113   -2.0990 H   0  0  0  0  0  0  0  0  0  0  0  0
    1.0181    1.0860   -1.4824 H   0  0  0  0  0  0  0  0  0  0  0  0
    0.4496   -0.8513   -2.1855 C   0  0  0  0  0  0  0  0  0  0  0  0
   -0.4490   -1.4735   -2.2438 H   0  0  0  0  0  0  0  0  0  0  0  0
    0.7830   -0.6586   -3.2098 H   0  0  0  0  0  0  0  0  0  0  0  0
    1.7584   -1.7854   -1.2895 S   0  0  0  0  0  0  0  0  0  0  0  0
    3.2659   -0.7694   -1.5487 C   0  0  0  0  0  0  0  0  0  0  0  0
    3.1642    0.2012   -1.0560 H   0  0  0  0  0  0  0  0  0  0  0  0
    4.1363   -1.2818   -1.1280 H   0  0  0  0  0  0  0  0  0  0  0  0
    3.4368   -0.6099   -2.6174 H   0  0  0  0  0  0  0  0  0  0  0  0
   -0.5870    1.6850    0.6569 C   0  0  0  0  0  0  0  0  0  0  0  0
   -1.5527    1.8886    1.3843 O   0  0  0  0  0  0  0  0  0  0  0  0
    0.2438    2.7550    0.3691 N   0  0  0  0  0  0  0  0  0  0  0  0
    1.0502    2.5762   -0.2209 H   0  0  0  0  0  0  0  0  0  0  0  0
    0.0964    4.0724    0.9774 C   0  0  0  0  0  0  0  0  0  0  0  0
    0.2179    4.0088    2.0640 H   0  0  0  0  0  0  0  0  0  0  0  0
    0.8532    4.7577    0.5839 H   0  0  0  0  0  0  0  0  0  0  0  0
   -0.8924    4.4888    0.7572 H   0  0  0  0  0  0  0  0  0  0  0  0
  1  2  1  0  0  0  0
  2  3  1  0  0  0  0
  2  4  1  0  0  0  0
  2  5  1  0  0  0  0
  5  6  2  0  0  0  0
  5  7  1  0  0  0  0
  7  8  1  0  0  0  0
  7  9  1  0  0  0  0
  9 10  1  0  0  0  0
  9 11  1  0  0  0  0
  9 22  1  0  0  0  0
 11 12  1  0  0  0  0
 11 13  1  0  0  0  0
 11 14  1  0  0  0  0
 14 15  1  0  0  0  0
 14 16  1  0  0  0  0
 14 17  1  0  0  0  0
 17 18  1  0  0  0  0
 18 19  1  0  0  0  0
 18 20  1  0  0  0  0
 18 21  1  0  0  0  0
 22 23  2  0  0  0  0
 22 24  1  0  0  0  0
 24 25  1  0  0  0  0
 24 26  1  0  0  0  0
 26 27  1  0  0  0  0
 26 28  1  0  0  0  0
 26 29  1  0  0  0  0
M  END
$$$$

  -OEChem-01062216093D

 29 28  0     1  0  0  0  0  0999 V2000
   -3.4419   -3.0382    1.0712 H   0  0  0  0  0  0  0  0  0  0  0  0
   -3.4220   -2.0438    0.6164 C   0  0  0  0  0  0  0  0  0  0  0  0
   -3.9452   -1.3457    1.2746 H   0  0  0  0  0  0  0  0  0  0  0  0
   -3.9378   -2.0862   -0.3457 H   0  0  0  0  0  0  0  0  0  0  0  0
   -1.9880   -1.5907    0.4174 C   0  0  0  0  0  0  0  0  0  0  0  0
   -1.0746   -2.3215    0.7602 O   0  0  0  0  0  0  0  0  0  0  0  0
   -1.7427   -0.3555   -0.1491 N   0  0  0  0  0  0  0  0  0  0  0  0
   -2.5568    0.2522   -0.1876 H   0  0  0  0  0  0  0  0  0  0  0  0
   -0.4352    0.3235   -0.0666 C   0  0  1  0  0  0  0  0  0  0  0  0
    0.2744   -0.2578    0.5319 H   0  0  0  0  0  0  0  0  0  0  0  0
    0.1158    0.4751   -1.5046 C   0  0  0  0  0  0  0  0  0  0  0  0
   -0.6218    1.0055   -2.1158 H   0  0  0  0  0  0  0  0  0  0  0  0
    1.0265    1.0791   -1.4862 H   0  0  0  0  0  0  0  0  0  0  0  0
    0.4567   -0.8592   -2.1854 C   0  0  0  0  0  0  0  0  0  0  0  0
   -0.4429   -1.4800   -2.2443 H   0  0  0  0  0  0  0  0  0  0  0  0
    0.7938   -0.6716   -3.2094 H   0  0  0  0  0  0  0  0  0  0  0  0
    1.7604   -1.7939   -1.2827 S   0  0  0  0  0  0  0  0  0  0  0  0
    3.2732   -0.7852   -1.5400 C   0  0  0  0  0  0  0  0  0  0  0  0
    3.1722    0.1895   -1.0555 H   0  0  0  0  0  0  0  0  0  0  0  0
    4.1391   -1.2978   -1.1103 H   0  0  0  0  0  0  0  0  0  0  0  0
    3.4514   -0.6345   -2.6088 H   0  0  0  0  0  0  0  0  0  0  0  0
   -0.5894    1.6898    0.6502 C   0  0  0  0  0  0  0  0  0  0  0  0
   -1.3936    1.8031    1.5672 O   0  0  0  0  0  0  0  0  0  0  0  0
    0.0078    2.8451    0.1726 N   0  0  0  0  0  0  0  0  0  0  0  0
    0.6594    2.7526   -0.6000 H   0  0  0  0  0  0  0  0  0  0  0  0
   -0.1887    4.1599    0.7733 C   0  0  0  0  0  0  0  0  0  0  0  0
    0.1353    4.1561    1.8195 H   0  0  0  0  0  0  0  0  0  0  0  0
    0.3936    4.9134    0.2342 H   0  0  0  0  0  0  0  0  0  0  0  0
   -1.2450    4.4460    0.7326 H   0  0  0  0  0  0  0  0  0  0  0  0
  1  2  1  0  0  0  0
  2  3  1  0  0  0  0
  2  4  1  0  0  0  0
  2  5  1  0  0  0  0
  5  6  2  0  0  0  0
  5  7  1  0  0  0  0
  7  8  1  0  0  0  0
  7  9  1  0  0  0  0
  9 10  1  0  0  0  0
  9 11  1  0  0  0  0
  9 22  1  0  0  0  0
 11 12  1  0  0  0  0
 11 13  1  0  0  0  0
 11 14  1  0  0  0  0
 14 15  1  0  0  0  0
 14 16  1  0  0  0  0
 14 17  1  0  0  0  0
 17 18  1  0  0  0  0
 18 19  1  0  0  0  0
 18 20  1  0  0  0  0
 18 21  1  0  0  0  0
 22 23  2  0  0  0  0
 22 24  1  0  0  0  0
 24 25  1  0  0  0  0
 24 26  1  0  0  0  0
 26 27  1  0  0  0  0
 26 28  1  0  0  0  0
 26 29  1  0  0  0  0
M  END
$$$$

  -OEChem-01062216093D

 29 28  0     1  0  0  0  0  0999 V2000
   -3.4423   -3.0331    1.0912 H   0  0  0  0  0  0  0  0  0  0  0  0
   -3.4226   -2.0475    0.6175 C   0  0  0  0  0  0  0  0  0  0  0  0
   -3.9555   -1.3400    1.2573 H   0  0  0  0  0  0  0  0  0  0  0  0
   -3.9287   -2.1105   -0.3485 H   0  0  0  0  0  0  0  0  0  0  0  0
   -1.9894   -1.5902    0.4233 C   0  0  0  0  0  0  0  0  0  0  0  0
   -1.0748   -2.3197    0.7648 O   0  0  0  0  0  0  0  0  0  0  0  0
   -1.7486   -0.3547   -0.1450 N   0  0  0  0  0  0  0  0  0  0  0  0
   -2.5679    0.2421   -0.2130 H   0  0  0  0  0  0  0  0  0  0  0  0
   -0.4424    0.3273   -0.0731 C   0  0  1  0  0  0  0  0  0  0  0  0
    0.2693   -0.2505    0.5265 H   0  0  0  0  0  0  0  0  0  0  0  0
    0.1135    0.4761   -1.5088 C   0  0  0  0  0  0  0  0  0  0  0  0
   -0.6237    0.9998   -2.1261 H   0  0  0  0  0  0  0  0  0  0  0  0
    1.0204    1.0866   -1.4839 H   0  0  0  0  0  0  0  0  0  0  0  0
    0.4611   -0.8586   -2.1847 C   0  0  0  0  0  0  0  0  0  0  0  0
   -0.4365   -1.4825   -2.2441 H   0  0  0  0  0  0  0  0  0  0  0  0
    0.8018   -0.6736   -3.2079 H   0  0  0  0  0  0  0  0  0  0  0  0
    1.7636   -1.7868   -1.2743 S   0  0  0  0  0  0  0  0  0  0  0  0
    3.2759   -0.7762   -1.5258 C   0  0  0  0  0  0  0  0  0  0  0  0
    3.1703    0.1994   -1.0439 H   0  0  0  0  0  0  0  0  0  0  0  0
    4.1397   -1.2861   -1.0890 H   0  0  0  0  0  0  0  0  0  0  0  0
    3.4600   -0.6275   -2.5937 H   0  0  0  0  0  0  0  0  0  0  0  0
   -0.5945    1.6921    0.6435 C   0  0  0  0  0  0  0  0  0  0  0  0
   -1.1707    1.7459    1.7218 O   0  0  0  0  0  0  0  0  0  0  0  0
   -0.2755    2.8888    0.0224 N   0  0  0  0  0  0  0  0  0  0  0  0
    0.1676    2.8418   -0.8895 H   0  0  0  0  0  0  0  0  0  0  0  0
   -0.4958    4.1953    0.6326 C   0  0  0  0  0  0  0  0  0  0  0  0
    0.0649    4.2797    1.5695 H   0  0  0  0  0  0  0  0  0  0  0  0
   -0.1632    4.9898   -0.0423 H   0  0  0  0  0  0  0  0  0  0  0  0
   -1.5598    4.3454    0.8444 H   0  0  0  0  0  0  0  0  0  0  0  0
  1  2  1  0  0  0  0
  2  3  1  0  0  0  0
  2  4  1  0  0  0  0
  2  5  1  0  0  0  0
  5  6  2  0  0  0  0
  5  7  1  0  0  0  0
  7  8  1  0  0  0  0
  7  9  1  0  0  0  0
  9 10  1  0  0  0  0
  9 11  1  0  0  0  0
  9 22  1  0  0  0  0
 11 12  1  0  0  0  0
 11 13  1  0  0  0  0
 11 14  1  0  0  0  0
 14 15  1  0  0  0  0
 14 16  1  0  0  0  0
 14 17  1  0  0  0  0
 17 18  1  0  0  0  0
 18 19  1  0  0  0  0
 18 20  1  0  0  0  0
 18 21  1  0  0  0  0
 22 23  2  0  0  0  0
 22 24  1  0  0  0  0
 24 25  1  0  0  0  0
 24 26  1  0  0  0  0
 26 27  1  0  0  0  0
 26 28  1  0  0  0  0
 26 29  1  0  0  0  0
M  END
$$$$

  -OEChem-01062216093D

 29 28  0     1  0  0  0  0  0999 V2000
   -3.4421   -3.0574    1.0734 H   0  0  0  0  0  0  0  0  0  0  0  0
   -3.4256   -2.0717    0.5999 C   0  0  0  0  0  0  0  0  0  0  0  0
   -3.9861   -1.3728    1.2254 H   0  0  0  0  0  0  0  0  0  0  0  0
   -3.9057   -2.1433   -0.3787 H   0  0  0  0  0  0  0  0  0  0  0  0
   -1.9948   -1.5925    0.4423 C   0  0  0  0  0  0  0  0  0  0  0  0
   -1.0793   -2.3095    0.8060 O   0  0  0  0  0  0  0  0  0  0  0  0
   -1.7561   -0.3575   -0.1289 N   0  0  0  0  0  0  0  0  0  0  0  0
   -2.5804    0.2234   -0.2477 H   0  0  0  0  0  0  0  0  0  0  0  0
   -0.4531    0.3317   -0.0654 C   0  0  1  0  0  0  0  0  0  0  0  0
    0.2623   -0.2424    0.5339 H   0  0  0  0  0  0  0  0  0  0  0  0
    0.1013    0.4793   -1.5011 C   0  0  0  0  0  0  0  0  0  0  0  0
   -0.6404    0.9915   -2.1221 H   0  0  0  0  0  0  0  0  0  0  0  0
    1.0007    1.1016   -1.4761 H   0  0  0  0  0  0  0  0  0  0  0  0
    0.4568   -0.8556   -2.1731 C   0  0  0  0  0  0  0  0  0  0  0  0
   -0.4370   -1.4850   -2.2308 H   0  0  0  0  0  0  0  0  0  0  0  0
    0.7969   -0.6713   -3.1967 H   0  0  0  0  0  0  0  0  0  0  0  0
    1.7647   -1.7737   -1.2607 S   0  0  0  0  0  0  0  0  0  0  0  0
    3.2690   -0.7525   -1.5177 C   0  0  0  0  0  0  0  0  0  0  0  0
    3.1552    0.2251   -1.0416 H   0  0  0  0  0  0  0  0  0  0  0  0
    4.1368   -1.2529   -1.0778 H   0  0  0  0  0  0  0  0  0  0  0  0
    3.4523   -0.6085   -2.5864 H   0  0  0  0  0  0  0  0  0  0  0  0
   -0.5999    1.6978    0.6453 C   0  0  0  0  0  0  0  0  0  0  0  0
   -0.8989    1.7369    1.8302 O   0  0  0  0  0  0  0  0  0  0  0  0
   -0.5838    2.8900   -0.0604 N   0  0  0  0  0  0  0  0  0  0  0  0
   -0.3600    2.8476   -1.0494 H   0  0  0  0  0  0  0  0  0  0  0  0
   -0.8075    4.1922    0.5575 C   0  0  0  0  0  0  0  0  0  0  0  0
   -0.0492    4.3884    1.3230 H   0  0  0  0  0  0  0  0  0  0  0  0
   -0.7514    4.9837   -0.1959 H   0  0  0  0  0  0  0  0  0  0  0  0
   -1.7973    4.2301    1.0247 H   0  0  0  0  0  0  0  0  0  0  0  0
  1  2  1  0  0  0  0
  2  3  1  0  0  0  0
  2  4  1  0  0  0  0
  2  5  1  0  0  0  0
  5  6  2  0  0  0  0
  5  7  1  0  0  0  0
  7  8  1  0  0  0  0
  7  9  1  0  0  0  0
  9 10  1  0  0  0  0
  9 11  1  0  0  0  0
  9 22  1  0  0  0  0
 11 12  1  0  0  0  0
 11 13  1  0  0  0  0
 11 14  1  0  0  0  0
 14 15  1  0  0  0  0
 14 16  1  0  0  0  0
 14 17  1  0  0  0  0
 17 18  1  0  0  0  0
 18 19  1  0  0  0  0
 18 20  1  0  0  0  0
 18 21  1  0  0  0  0
 22 23  2  0  0  0  0
 22 24  1  0  0  0  0
 24 25  1  0  0  0  0
 24 26  1  0  0  0  0
 26 27  1  0  0  0  0
 26 28  1  0  0  0  0
 26 29  1  0  0  0  0
M  END
$$$$

  -OEChem-01062216093D

 29 28  0     1  0  0  0  0  0999 V2000
   -3.4433   -3.0882    1.0586 H   0  0  0  0  0  0  0  0  0  0  0  0
   -3.4293   -2.1053    0.5788 C   0  0  0  0  0  0  0  0  0  0  0  0
   -4.0214   -1.4125    1.1817 H   0  0  0  0  0  0  0  0  0  0  0  0
   -3.8773   -2.1923   -0.4139 H   0  0  0  0  0  0  0  0  0  0  0  0
   -2.0026   -1.6024    0.4621 C   0  0  0  0  0  0  0  0  0  0  0  0
   -1.0874   -2.3006    0.8602 O   0  0  0  0  0  0  0  0  0  0  0  0
   -1.7672   -0.3673   -0.1111 N   0  0  0  0  0  0  0  0  0  0  0  0
   -2.5950    0.1944   -0.2839 H   0  0  0  0  0  0  0  0  0  0  0  0
   -0.4686    0.3311   -0.0538 C   0  0  1  0  0  0  0  0  0  0  0  0
    0.2517   -0.2403    0.5426 H   0  0  0  0  0  0  0  0  0  0  0  0
    0.0842    0.4866   -1.4882 C   0  0  0  0  0  0  0  0  0  0  0  0
   -0.6603    0.9924   -2.1105 H   0  0  0  0  0  0  0  0  0  0  0  0
    0.9765    1.1192   -1.4603 H   0  0  0  0  0  0  0  0  0  0  0  0
    0.4491   -0.8445   -2.1627 C   0  0  0  0  0  0  0  0  0  0  0  0
   -0.4402   -1.4800   -2.2220 H   0  0  0  0  0  0  0  0  0  0  0  0
    0.7878   -0.6560   -3.1860 H   0  0  0  0  0  0  0  0  0  0  0  0
    1.7632   -1.7560   -1.2528 S   0  0  0  0  0  0  0  0  0  0  0  0
    3.2597   -0.7231   -1.5086 C   0  0  0  0  0  0  0  0  0  0  0  0
    3.1396    0.2522   -1.0288 H   0  0  0  0  0  0  0  0  0  0  0  0
    4.1319   -1.2188   -1.0720 H   0  0  0  0  0  0  0  0  0  0  0  0
    3.4406   -0.5740   -2.5770 H   0  0  0  0  0  0  0  0  0  0  0  0
   -0.6131    1.6983    0.6514 C   0  0  0  0  0  0  0  0  0  0  0  0
   -0.5925    1.7669    1.8713 O   0  0  0  0  0  0  0  0  0  0  0  0
   -0.9100    2.8460   -0.0655 N   0  0  0  0  0  0  0  0  0  0  0  0
   -0.9206    2.7780   -1.0780 H   0  0  0  0  0  0  0  0  0  0  0  0
   -1.1091    4.1499    0.5571 C   0  0  0  0  0  0  0  0  0  0  0  0
   -0.2035    4.4633    1.0873 H   0  0  0  0  0  0  0  0  0  0  0  0
   -1.3427    4.9014   -0.2031 H   0  0  0  0  0  0  0  0  0  0  0  0
   -1.9393    4.1116    1.2705 H   0  0  0  0  0  0  0  0  0  0  0  0
  1  2  1  0  0  0  0
  2  3  1  0  0  0  0
  2  4  1  0  0  0  0
  2  5  1  0  0  0  0
  5  6  2  0  0  0  0
  5  7  1  0  0  0  0
  7  8  1  0  0  0  0
  7  9  1  0  0  0  0
  9 10  1  0  0  0  0
  9 11  1  0  0  0  0
  9 22  1  0  0  0  0
 11 12  1  0  0  0  0
 11 13  1  0  0  0  0
 11 14  1  0  0  0  0
 14 15  1  0  0  0  0
 14 16  1  0  0  0  0
 14 17  1  0  0  0  0
 17 18  1  0  0  0  0
 18 19  1  0  0  0  0
 18 20  1  0  0  0  0
 18 21  1  0  0  0  0
 22 23  2  0  0  0  0
 22 24  1  0  0  0  0
 24 25  1  0  0  0  0
 24 26  1  0  0  0  0
 26 27  1  0  0  0  0
 26 28  1  0  0  0  0
 26 29  1  0  0  0  0
M  END
$$$$

  -OEChem-01062216093D

 29 28  0     1  0  0  0  0  0999 V2000
   -3.4524   -3.1180    1.0731 H   0  0  0  0  0  0  0  0  0  0  0  0
   -3.4347   -2.1587    0.5480 C   0  0  0  0  0  0  0  0  0  0  0  0
   -4.0765   -1.4547    1.0830 H   0  0  0  0  0  0  0  0  0  0  0  0
   -3.8232   -2.3041   -0.4627 H   0  0  0  0  0  0  0  0  0  0  0  0
   -2.0159   -1.6245    0.4866 C   0  0  0  0  0  0  0  0  0  0  0  0
   -1.1043   -2.2961    0.9346 O   0  0  0  0  0  0  0  0  0  0  0  0
   -1.7834   -0.3881   -0.0855 N   0  0  0  0  0  0  0  0  0  0  0  0
   -2.6110    0.1484   -0.3242 H   0  0  0  0  0  0  0  0  0  0  0  0
   -0.4891    0.3200   -0.0294 C   0  0  1  0  0  0  0  0  0  0  0  0
    0.2371   -0.2522    0.5595 H   0  0  0  0  0  0  0  0  0  0  0  0
    0.0595    0.4981   -1.4614 C   0  0  0  0  0  0  0  0  0  0  0  0
   -0.6873    1.0088   -2.0766 H   0  0  0  0  0  0  0  0  0  0  0  0
    0.9468    1.1374   -1.4243 H   0  0  0  0  0  0  0  0  0  0  0  0
    0.4334   -0.8214   -2.1530 C   0  0  0  0  0  0  0  0  0  0  0  0
   -0.4509   -1.4628   -2.2199 H   0  0  0  0  0  0  0  0  0  0  0  0
    0.7704   -0.6166   -3.1738 H   0  0  0  0  0  0  0  0  0  0  0  0
    1.7554   -1.7328   -1.2554 S   0  0  0  0  0  0  0  0  0  0  0  0
    3.2410   -0.6819   -1.5019 C   0  0  0  0  0  0  0  0  0  0  0  0
    3.1143    0.2830   -1.0030 H   0  0  0  0  0  0  0  0  0  0  0  0
    4.1207   -1.1768   -1.0798 H   0  0  0  0  0  0  0  0  0  0  0  0
    3.4130   -0.5107   -2.5684 H   0  0  0  0  0  0  0  0  0  0  0  0
   -0.6307    1.6875    0.6729 C   0  0  0  0  0  0  0  0  0  0  0  0
   -0.2623    1.8372    1.8281 O   0  0  0  0  0  0  0  0  0  0  0  0
   -1.2250    2.7562    0.0219 N   0  0  0  0  0  0  0  0  0  0  0  0
   -1.4765    2.6307   -0.9530 H   0  0  0  0  0  0  0  0  0  0  0  0
   -1.3657    4.0780    0.6226 C   0  0  0  0  0  0  0  0  0  0  0  0
   -0.3834    4.4903    0.8769 H   0  0  0  0  0  0  0  0  0  0  0  0
   -1.8573    4.7616   -0.0762 H   0  0  0  0  0  0  0  0  0  0  0  0
   -1.9703    4.0229    1.5341 H   0  0  0  0  0  0  0  0  0  0  0  0
  1  2  1  0  0  0  0
  2  3  1  0  0  0  0
  2  4  1  0  0  0  0
  2  5  1  0  0  0  0
  5  6  2  0  0  0  0
  5  7  1  0  0  0  0
  7  8  1  0  0  0  0
  7  9  1  0  0  0  0
  9 10  1  0  0  0  0
  9 11  1  0  0  0  0
  9 22  1  0  0  0  0
 11 12  1  0  0  0  0
 11 13  1  0  0  0  0
 11 14  1  0  0  0  0
 14 15  1  0  0  0  0
 14 16  1  0  0  0  0
 14 17  1  0  0  0  0
 17 18  1  0  0  0  0
 18 19  1  0  0  0  0
 18 20  1  0  0  0  0
 18 21  1  0  0  0  0
 22 23  2  0  0  0  0
 22 24  1  0  0  0  0
 24 25  1  0  0  0  0
 24 26  1  0  0  0  0
 26 27  1  0  0  0  0
 26 28  1  0  0  0  0
 26 29  1  0  0  0  0
M  END
$$$$

  -OEChem-01062216093D

 29 28  0     1  0  0  0  0  0999 V2000
   -3.4503   -3.1747    1.0223 H   0  0  0  0  0  0  0  0  0  0  0  0
   -3.4311   -2.2105    0.5061 C   0  0  0  0  0  0  0  0  0  0  0  0
   -4.1190   -1.5288    1.0117 H   0  0  0  0  0  0  0  0  0  0  0  0
   -3.7622   -2.3573   -0.5246 H   0  0  0  0  0  0  0  0  0  0  0  0
   -2.0261   -1.6382    0.5230 C   0  0  0  0  0  0  0  0  0  0  0  0
   -1.1274   -2.2740    1.0428 O   0  0  0  0  0  0  0  0  0  0  0  0
   -1.7921   -0.4023   -0.0497 N   0  0  0  0  0  0  0  0  0  0  0  0
   -2.6106    0.0993   -0.3759 H   0  0  0  0  0  0  0  0  0  0  0  0
   -0.4993    0.3107    0.0019 C   0  0  1  0  0  0  0  0  0  0  0  0
    0.2326   -0.2633    0.5819 H   0  0  0  0  0  0  0  0  0  0  0  0
    0.0380    0.5071   -1.4304 C   0  0  0  0  0  0  0  0  0  0  0  0
   -0.7131    1.0266   -2.0329 H   0  0  0  0  0  0  0  0  0  0  0  0
    0.9244    1.1481   -1.3911 H   0  0  0  0  0  0  0  0  0  0  0  0
    0.4114   -0.8034   -2.1388 C   0  0  0  0  0  0  0  0  0  0  0  0
   -0.4712   -1.4469   -2.2078 H   0  0  0  0  0  0  0  0  0  0  0  0
    0.7421   -0.5859   -3.1591 H   0  0  0  0  0  0  0  0  0  0  0  0
    1.7420   -1.7195   -1.2593 S   0  0  0  0  0  0  0  0  0  0  0  0
    3.2216   -0.6599   -1.5046 C   0  0  0  0  0  0  0  0  0  0  0  0
    3.0951    0.2984   -0.9930 H   0  0  0  0  0  0  0  0  0  0  0  0
    4.1066   -1.1560   -1.0951 H   0  0  0  0  0  0  0  0  0  0  0  0
    3.3847   -0.4751   -2.5702 H   0  0  0  0  0  0  0  0  0  0  0  0
   -0.6307    1.6802    0.7001 C   0  0  0  0  0  0  0  0  0  0  0  0
    0.0389    1.9459    1.6871 O   0  0  0  0  0  0  0  0  0  0  0  0
   -1.4828    2.6472    0.1919 N   0  0  0  0  0  0  0  0  0  0  0  0
   -1.9556    2.4449   -0.6822 H   0  0  0  0  0  0  0  0  0  0  0  0
   -1.6002    3.9833    0.7650 C   0  0  0  0  0  0  0  0  0  0  0  0
   -0.6324    4.4956    0.7455 H   0  0  0  0  0  0  0  0  0  0  0  0
   -2.3186    4.5794    0.1942 H   0  0  0  0  0  0  0  0  0  0  0  0
   -1.9466    3.9259    1.8025 H   0  0  0  0  0  0  0  0  0  0  0  0
  1  2  1  0  0  0  0
  2  3  1  0  0  0  0
  2  4  1  0  0  0  0
  2  5  1  0  0  0  0
  5  6  2  0  0  0  0
  5  7  1  0  0  0  0
  7  8  1  0  0  0  0
  7  9  1  0  0  0  0
  9 10  1  0  0  0  0
  9 11  1  0  0  0  0
  9 22  1  0  0  0  0
 11 12  1  0  0  0  0
 11 13  1  0  0  0  0
 11 14  1  0  0  0  0
 14 15  1  0  0  0  0
 14 16  1  0  0  0  0
 14 17  1  0  0  0  0
 17 18  1  0  0  0  0
 18 19  1  0  0  0  0
 18 20  1  0  0  0  0
 18 21  1  0  0  0  0
 22 23  2  0  0  0  0
 22 24  1  0  0  0  0
 24 25  1  0  0  0  0
 24 26  1  0  0  0  0
 26 27  1  0  0  0  0
 26 28  1  0  0  0  0
 26 29  1  0  0  0  0
M  END
$$$$

  -OEChem-01062216093D

 29 28  0     1  0  0  0  0  0999 V2000
   -3.3490   -3.2873    0.8784 H   0  0  0  0  0  0  0  0  0  0  0  0
   -3.3495   -2.3202    0.3672 C   0  0  0  0  0  0  0  0  0  0  0  0
   -4.1895   -1.7279    0.7376 H   0  0  0  0  0  0  0  0  0  0  0  0
   -3.4744   -2.4913   -0.7045 H   0  0  0  0  0  0  0  0  0  0  0  0
   -2.0451   -1.5914    0.6307 C   0  0  0  0  0  0  0  0  0  0  0  0
   -1.2247   -2.0844    1.3831 O   0  0  0  0  0  0  0  0  0  0  0  0
   -1.8191   -0.3665    0.0313 N   0  0  0  0  0  0  0  0  0  0  0  0
   -2.5149   -0.0703   -0.6436 H   0  0  0  0  0  0  0  0  0  0  0  0
   -0.5185    0.3361    0.0520 C   0  0  1  0  0  0  0  0  0  0  0  0
    0.2196   -0.2395    0.6220 H   0  0  0  0  0  0  0  0  0  0  0  0
   -0.0080    0.5162   -1.3914 C   0  0  0  0  0  0  0  0  0  0  0  0
   -0.7645    1.0440   -1.9800 H   0  0  0  0  0  0  0  0  0  0  0  0
    0.8862    1.1475   -1.3739 H   0  0  0  0  0  0  0  0  0  0  0  0
    0.3389   -0.8037   -2.0961 C   0  0  0  0  0  0  0  0  0  0  0  0
   -0.5507   -1.4386   -2.1475 H   0  0  0  0  0  0  0  0  0  0  0  0
    0.6542   -0.5948   -3.1232 H   0  0  0  0  0  0  0  0  0  0  0  0
    1.6766   -1.7287   -1.2372 S   0  0  0  0  0  0  0  0  0  0  0  0
    3.1634   -0.6876   -1.5186 C   0  0  0  0  0  0  0  0  0  0  0  0
    3.0573    0.2766   -1.0130 H   0  0  0  0  0  0  0  0  0  0  0  0
    4.0503   -1.1902   -1.1215 H   0  0  0  0  0  0  0  0  0  0  0  0
    3.3090   -0.5136   -2.5886 H   0  0  0  0  0  0  0  0  0  0  0  0
   -0.6040    1.7206    0.7282 C   0  0  0  0  0  0  0  0  0  0  0  0
    0.3345    2.1399    1.3904 O   0  0  0  0  0  0  0  0  0  0  0  0
   -1.6460    2.5843    0.4347 N   0  0  0  0  0  0  0  0  0  0  0  0
   -2.4342    2.2041   -0.0761 H   0  0  0  0  0  0  0  0  0  0  0  0
   -1.7524    3.9242    1.0005 C   0  0  0  0  0  0  0  0  0  0  0  0
   -0.8777    4.5252    0.7298 H   0  0  0  0  0  0  0  0  0  0  0  0
   -2.6462    4.4267    0.6191 H   0  0  0  0  0  0  0  0  0  0  0  0
   -1.8210    3.8746    2.0924 H   0  0  0  0  0  0  0  0  0  0  0  0
  1  2  1  0  0  0  0
  2  3  1  0  0  0  0
  2  4  1  0  0  0  0
  2  5  1  0  0  0  0
  5  6  2  0  0  0  0
  5  7  1  0  0  0  0
  7  8  1  0  0  0  0
  7  9  1  0  0  0  0
  9 10  1  0  0  0  0
  9 11  1  0  0  0  0
  9 22  1  0  0  0  0
 11 12  1  0  0  0  0
 11 13  1  0  0  0  0
 11 14  1  0  0  0  0
 14 15  1  0  0  0  0
 14 16  1  0  0  0  0
 14 17  1  0  0  0  0
 17 18  1  0  0  0  0
 18 19  1  0  0  0  0
 18 20  1  0  0  0  0
 18 21  1  0  0  0  0
 22 23  2  0  0  0  0
 22 24  1  0  0  0  0
 24 25  1  0  0  0  0
 24 26  1  0  0  0  0
 26 27  1  0  0  0  0
 26 28  1  0  0  0  0
 26 29  1  0  0  0  0
M  END
$$$$

  -OEChem-01062216093D

 29 28  0     1  0  0  0  0  0999 V2000
   -3.2983   -3.3179    0.8311 H   0  0  0  0  0  0  0  0  0  0  0  0
   -3.3072   -2.3540    0.3142 C   0  0  0  0  0  0  0  0  0  0  0  0
   -4.1894   -1.7930    0.6313 H   0  0  0  0  0  0  0  0  0  0  0  0
   -3.3629   -2.5347   -0.7619 H   0  0  0  0  0  0  0  0  0  0  0  0
   -2.0495   -1.5738    0.6470 C   0  0  0  0  0  0  0  0  0  0  0  0
   -1.2646   -2.0187    1.4647 O   0  0  0  0  0  0  0  0  0  0  0  0
   -1.8286   -0.3507    0.0424 N   0  0  0  0  0  0  0  0  0  0  0  0
   -2.4752   -0.1097   -0.7012 H   0  0  0  0  0  0  0  0  0  0  0  0
   -0.5233    0.3436    0.0661 C   0  0  1  0  0  0  0  0  0  0  0  0
    0.2136   -0.2353    0.6340 H   0  0  0  0  0  0  0  0  0  0  0  0
   -0.0199    0.5202   -1.3803 C   0  0  0  0  0  0  0  0  0  0  0  0
   -0.7760    1.0552   -1.9635 H   0  0  0  0  0  0  0  0  0  0  0  0
    0.8796    1.1444   -1.3695 H   0  0  0  0  0  0  0  0  0  0  0  0
    0.3130   -0.8029   -2.0862 C   0  0  0  0  0  0  0  0  0  0  0  0
   -0.5813   -1.4310   -2.1339 H   0  0  0  0  0  0  0  0  0  0  0  0
    0.6251   -0.5963   -3.1146 H   0  0  0  0  0  0  0  0  0  0  0  0
    1.6478   -1.7369   -1.2333 S   0  0  0  0  0  0  0  0  0  0  0  0
    3.1390   -0.7051   -1.5243 C   0  0  0  0  0  0  0  0  0  0  0  0
    3.0390    0.2609   -1.0208 H   0  0  0  0  0  0  0  0  0  0  0  0
    4.0249   -1.2111   -1.1292 H   0  0  0  0  0  0  0  0  0  0  0  0
    3.2819   -0.5342   -2.5951 H   0  0  0  0  0  0  0  0  0  0  0  0
   -0.5983    1.7296    0.7409 C   0  0  0  0  0  0  0  0  0  0  0  0
    0.4212    2.2665    1.1517 O   0  0  0  0  0  0  0  0  0  0  0  0
   -1.7670    2.4698    0.6933 N   0  0  0  0  0  0  0  0  0  0  0  0
   -2.6121    1.9605    0.4598 H   0  0  0  0  0  0  0  0  0  0  0  0
   -1.8889    3.7968    1.2857 C   0  0  0  0  0  0  0  0  0  0  0  0
   -1.1605    4.4835    0.8415 H   0  0  0  0  0  0  0  0  0  0  0  0
   -2.8911    4.1993    1.1104 H   0  0  0  0  0  0  0  0  0  0  0  0
   -1.7161    3.7518    2.3662 H   0  0  0  0  0  0  0  0  0  0  0  0
  1  2  1  0  0  0  0
  2  3  1  0  0  0  0
  2  4  1  0  0  0  0
  2  5  1  0  0  0  0
  5  6  2  0  0  0  0
  5  7  1  0  0  0  0
  7  8  1  0  0  0  0
  7  9  1  0  0  0  0
  9 10  1  0  0  0  0
  9 11  1  0  0  0  0
  9 22  1  0  0  0  0
 11 12  1  0  0  0  0
 11 13  1  0  0  0  0
 11 14  1  0  0  0  0
 14 15  1  0  0  0  0
 14 16  1  0  0  0  0
 14 17  1  0  0  0  0
 17 18  1  0  0  0  0
 18 19  1  0  0  0  0
 18 20  1  0  0  0  0
 18 21  1  0  0  0  0
 22 23  2  0  0  0  0
 22 24  1  0  0  0  0
 24 25  1  0  0  0  0
 24 26  1  0  0  0  0
 26 27  1  0  0  0  0
 26 28  1  0  0  0  0
 26 29  1  0  0  0  0
M  END
$$$$

  -OEChem-01062216093D

 29 28  0     1  0  0  0  0  0999 V2000
   -3.2898   -3.3230    0.8021 H   0  0  0  0  0  0  0  0  0  0  0  0
   -3.3042   -2.3529    0.2970 C   0  0  0  0  0  0  0  0  0  0  0  0
   -4.1892   -1.8004    0.6213 H   0  0  0  0  0  0  0  0  0  0  0  0
   -3.3596   -2.5211   -0.7811 H   0  0  0  0  0  0  0  0  0  0  0  0
   -2.0500   -1.5709    0.6385 C   0  0  0  0  0  0  0  0  0  0  0  0
   -1.2749   -2.0086    1.4694 O   0  0  0  0  0  0  0  0  0  0  0  0
   -1.8247   -0.3475    0.0368 N   0  0  0  0  0  0  0  0  0  0  0  0
   -2.4696   -0.0989   -0.7065 H   0  0  0  0  0  0  0  0  0  0  0  0
   -0.5187    0.3468    0.0652 C   0  0  1  0  0  0  0  0  0  0  0  0
    0.2174   -0.2315    0.6350 H   0  0  0  0  0  0  0  0  0  0  0  0
   -0.0179    0.5158   -1.3844 C   0  0  0  0  0  0  0  0  0  0  0  0
   -0.7752    1.0490   -1.9675 H   0  0  0  0  0  0  0  0  0  0  0  0
    0.8826    1.1381   -1.3825 H   0  0  0  0  0  0  0  0  0  0  0  0
    0.3127   -0.8110   -2.0845 C   0  0  0  0  0  0  0  0  0  0  0  0
   -0.5821   -1.4392   -2.1273 H   0  0  0  0  0  0  0  0  0  0  0  0
    0.6228   -0.6092   -3.1146 H   0  0  0  0  0  0  0  0  0  0  0  0
    1.6495   -1.7402   -1.2287 S   0  0  0  0  0  0  0  0  0  0  0  0
    3.1392   -0.7084   -1.5299 C   0  0  0  0  0  0  0  0  0  0  0  0
    3.0410    0.2610   -1.0326 H   0  0  0  0  0  0  0  0  0  0  0  0
    4.0263   -1.2117   -1.1340 H   0  0  0  0  0  0  0  0  0  0  0  0
    3.2786   -0.5439   -2.6022 H   0  0  0  0  0  0  0  0  0  0  0  0
   -0.5958    1.7331    0.7419 C   0  0  0  0  0  0  0  0  0  0  0  0
    0.4247    2.3779    0.9431 O   0  0  0  0  0  0  0  0  0  0  0  0
   -1.8208    2.3369    0.9651 N   0  0  0  0  0  0  0  0  0  0  0  0
   -2.6304    1.7265    0.9195 H   0  0  0  0  0  0  0  0  0  0  0  0
   -1.9577    3.6372    1.6106 C   0  0  0  0  0  0  0  0  0  0  0  0
   -1.4201    4.4050    1.0441 H   0  0  0  0  0  0  0  0  0  0  0  0
   -3.0121    3.9249    1.6635 H   0  0  0  0  0  0  0  0  0  0  0  0
   -1.5546    3.6036    2.6283 H   0  0  0  0  0  0  0  0  0  0  0  0
  1  2  1  0  0  0  0
  2  3  1  0  0  0  0
  2  4  1  0  0  0  0
  2  5  1  0  0  0  0
  5  6  2  0  0  0  0
  5  7  1  0  0  0  0
  7  8  1  0  0  0  0
  7  9  1  0  0  0  0
  9 10  1  0  0  0  0
  9 11  1  0  0  0  0
  9 22  1  0  0  0  0
 11 12  1  0  0  0  0
 11 13  1  0  0  0  0
 11 14  1  0  0  0  0
 14 15  1  0  0  0  0
 14 16  1  0  0  0  0
 14 17  1  0  0  0  0
 17 18  1  0  0  0  0
 18 19  1  0  0  0  0
 18 20  1  0  0  0  0
 18 21  1  0  0  0  0
 22 23  2  0  0  0  0
 22 24  1  0  0  0  0
 24 25  1  0  0  0  0
 24 26  1  0  0  0  0
 26 27  1  0  0  0  0
 26 28  1  0  0  0  0
 26 29  1  0  0  0  0
M  END
$$$$

  -OEChem-01062216093D

 29 28  0     1  0  0  0  0  0999 V2000
   -3.2966   -3.3098    0.7879 H   0  0  0  0  0  0  0  0  0  0  0  0
   -3.3073   -2.3365    0.2888 C   0  0  0  0  0  0  0  0  0  0  0  0
   -4.1868   -1.7801    0.6215 H   0  0  0  0  0  0  0  0  0  0  0  0
   -3.3702   -2.4971   -0.7900 H   0  0  0  0  0  0  0  0  0  0  0  0
   -2.0457   -1.5649    0.6263 C   0  0  0  0  0  0  0  0  0  0  0  0
   -1.2714   -2.0061    1.4560 O   0  0  0  0  0  0  0  0  0  0  0  0
   -1.8160   -0.3402    0.0302 N   0  0  0  0  0  0  0  0  0  0  0  0
   -2.4734   -0.0696   -0.6948 H   0  0  0  0  0  0  0  0  0  0  0  0
   -0.5103    0.3546    0.0593 C   0  0  1  0  0  0  0  0  0  0  0  0
    0.2245   -0.2221    0.6312 H   0  0  0  0  0  0  0  0  0  0  0  0
   -0.0119    0.5120   -1.3938 C   0  0  0  0  0  0  0  0  0  0  0  0
   -0.7703    1.0407   -1.9797 H   0  0  0  0  0  0  0  0  0  0  0  0
    0.8897    1.1325   -1.4020 H   0  0  0  0  0  0  0  0  0  0  0  0
    0.3166   -0.8213   -2.0822 C   0  0  0  0  0  0  0  0  0  0  0  0
   -0.5782   -1.4496   -2.1182 H   0  0  0  0  0  0  0  0  0  0  0  0
    0.6251   -0.6287   -3.1145 H   0  0  0  0  0  0  0  0  0  0  0  0
    1.6548   -1.7442   -1.2213 S   0  0  0  0  0  0  0  0  0  0  0  0
    3.1433   -0.7151   -1.5363 C   0  0  0  0  0  0  0  0  0  0  0  0
    3.0458    0.2590   -1.0483 H   0  0  0  0  0  0  0  0  0  0  0  0
    4.0321   -1.2137   -1.1386 H   0  0  0  0  0  0  0  0  0  0  0  0
    3.2790   -0.5612   -2.6106 H   0  0  0  0  0  0  0  0  0  0  0  0
   -0.5950    1.7392    0.7422 C   0  0  0  0  0  0  0  0  0  0  0  0
    0.3702    2.4921    0.7489 O   0  0  0  0  0  0  0  0  0  0  0  0
   -1.8005    2.1967    1.2437 N   0  0  0  0  0  0  0  0  0  0  0  0
   -2.5297    1.4974    1.3461 H   0  0  0  0  0  0  0  0  0  0  0  0
   -1.9400    3.4671    1.9450 C   0  0  0  0  0  0  0  0  0  0  0  0
   -1.6315    4.2970    1.3006 H   0  0  0  0  0  0  0  0  0  0  0  0
   -2.9828    3.6268    2.2348 H   0  0  0  0  0  0  0  0  0  0  0  0
   -1.3224    3.4750    2.8493 H   0  0  0  0  0  0  0  0  0  0  0  0
  1  2  1  0  0  0  0
  2  3  1  0  0  0  0
  2  4  1  0  0  0  0
  2  5  1  0  0  0  0
  5  6  2  0  0  0  0
  5  7  1  0  0  0  0
  7  8  1  0  0  0  0
  7  9  1  0  0  0  0
  9 10  1  0  0  0  0
  9 11  1  0  0  0  0
  9 22  1  0  0  0  0
 11 12  1  0  0  0  0
 11 13  1  0  0  0  0
 11 14  1  0  0  0  0
 14 15  1  0  0  0  0
 14 16  1  0  0  0  0
 14 17  1  0  0  0  0
 17 18  1  0  0  0  0
 18 19  1  0  0  0  0
 18 20  1  0  0  0  0
 18 21  1  0  0  0  0
 22 23  2  0  0  0  0
 22 24  1  0  0  0  0
 24 25  1  0  0  0  0
 24 26  1  0  0  0  0
 26 27  1  0  0  0  0
 26 28  1  0  0  0  0
 26 29  1  0  0  0  0
M  END
$$$$

  -OEChem-01062216093D

 29 28  0     1  0  0  0  0  0999 V2000
   -3.3049   -3.2913    0.7826 H   0  0  0  0  0  0  0  0  0  0  0  0
   -3.3122   -2.3167    0.2860 C   0  0  0  0  0  0  0  0  0  0  0  0
   -4.1838   -1.7536    0.6279 H   0  0  0  0  0  0  0  0  0  0  0  0
   -3.3873   -2.4747   -0.7926 H   0  0  0  0  0  0  0  0  0  0  0  0
   -2.0414   -1.5559    0.6138 C   0  0  0  0  0  0  0  0  0  0  0  0
   -1.2657   -2.0004    1.4406 O   0  0  0  0  0  0  0  0  0  0  0  0
   -1.8079   -0.3288    0.0248 N   0  0  0  0  0  0  0  0  0  0  0  0
   -2.4793   -0.0349   -0.6783 H   0  0  0  0  0  0  0  0  0  0  0  0
   -0.5014    0.3638    0.0525 C   0  0  1  0  0  0  0  0  0  0  0  0
    0.2335   -0.2131    0.6239 H   0  0  0  0  0  0  0  0  0  0  0  0
   -0.0041    0.5107   -1.4029 C   0  0  0  0  0  0  0  0  0  0  0  0
   -0.7619    1.0383   -1.9908 H   0  0  0  0  0  0  0  0  0  0  0  0
    0.8999    1.1272   -1.4177 H   0  0  0  0  0  0  0  0  0  0  0  0
    0.3208   -0.8286   -2.0819 C   0  0  0  0  0  0  0  0  0  0  0  0
   -0.5756   -1.4547   -2.1127 H   0  0  0  0  0  0  0  0  0  0  0  0
    0.6284   -0.6443   -3.1158 H   0  0  0  0  0  0  0  0  0  0  0  0
    1.6577   -1.7482   -1.2153 S   0  0  0  0  0  0  0  0  0  0  0  0
    3.1464   -0.7231   -1.5408 C   0  0  0  0  0  0  0  0  0  0  0  0
    3.0517    0.2536   -1.0571 H   0  0  0  0  0  0  0  0  0  0  0  0
    4.0360   -1.2210   -1.1439 H   0  0  0  0  0  0  0  0  0  0  0  0
    3.2782   -0.5745   -2.6164 H   0  0  0  0  0  0  0  0  0  0  0  0
   -0.5946    1.7445    0.7458 C   0  0  0  0  0  0  0  0  0  0  0  0
    0.2588    2.6042    0.5668 O   0  0  0  0  0  0  0  0  0  0  0  0
   -1.7010    2.0581    1.5142 N   0  0  0  0  0  0  0  0  0  0  0  0
   -2.3138    1.2810    1.7446 H   0  0  0  0  0  0  0  0  0  0  0  0
   -1.8311    3.3052    2.2578 C   0  0  0  0  0  0  0  0  0  0  0  0
   -1.7807    4.1634    1.5795 H   0  0  0  0  0  0  0  0  0  0  0  0
   -2.7922    3.3357    2.7799 H   0  0  0  0  0  0  0  0  0  0  0  0
   -1.0299    3.3946    2.9988 H   0  0  0  0  0  0  0  0  0  0  0  0
  1  2  1  0  0  0  0
  2  3  1  0  0  0  0
  2  4  1  0  0  0  0
  2  5  1  0  0  0  0
  5  6  2  0  0  0  0
  5  7  1  0  0  0  0
  7  8  1  0  0  0  0
  7  9  1  0  0  0  0
  9 10  1  0  0  0  0
  9 11  1  0  0  0  0
  9 22  1  0  0  0  0
 11 12  1  0  0  0  0
 11 13  1  0  0  0  0
 11 14  1  0  0  0  0
 14 15  1  0  0  0  0
 14 16  1  0  0  0  0
 14 17  1  0  0  0  0
 17 18  1  0  0  0  0
 18 19  1  0  0  0  0
 18 20  1  0  0  0  0
 18 21  1  0  0  0  0
 22 23  2  0  0  0  0
 22 24  1  0  0  0  0
 24 25  1  0  0  0  0
 24 26  1  0  0  0  0
 26 27  1  0  0  0  0
 26 28  1  0  0  0  0
 26 29  1  0  0  0  0
M  END
$$$$

  -OEChem-01062216093D

 29 28  0     1  0  0  0  0  0999 V2000
   -3.3116   -3.2723    0.7745 H   0  0  0  0  0  0  0  0  0  0  0  0
   -3.3183   -2.2917    0.2900 C   0  0  0  0  0  0  0  0  0  0  0  0
   -4.1837   -1.7281    0.6467 H   0  0  0  0  0  0  0  0  0  0  0  0
   -3.4042   -2.4360   -0.7896 H   0  0  0  0  0  0  0  0  0  0  0  0
   -2.0404   -1.5414    0.6140 C   0  0  0  0  0  0  0  0  0  0  0  0
   -1.2671   -1.9872    1.4428 O   0  0  0  0  0  0  0  0  0  0  0  0
   -1.7994   -0.3145    0.0292 N   0  0  0  0  0  0  0  0  0  0  0  0
   -2.4838    0.0022   -0.6512 H   0  0  0  0  0  0  0  0  0  0  0  0
   -0.4900    0.3706    0.0495 C   0  0  1  0  0  0  0  0  0  0  0  0
    0.2437   -0.2081    0.6203 H   0  0  0  0  0  0  0  0  0  0  0  0
    0.0071    0.5104   -1.4077 C   0  0  0  0  0  0  0  0  0  0  0  0
   -0.7481    1.0408   -1.9964 H   0  0  0  0  0  0  0  0  0  0  0  0
    0.9144    1.1218   -1.4238 H   0  0  0  0  0  0  0  0  0  0  0  0
    0.3253   -0.8312   -2.0851 C   0  0  0  0  0  0  0  0  0  0  0  0
   -0.5737   -1.4537   -2.1141 H   0  0  0  0  0  0  0  0  0  0  0  0
    0.6327   -0.6497   -3.1197 H   0  0  0  0  0  0  0  0  0  0  0  0
    1.6596   -1.7544   -1.2180 S   0  0  0  0  0  0  0  0  0  0  0  0
    3.1512   -0.7344   -1.5481 C   0  0  0  0  0  0  0  0  0  0  0  0
    3.0679    0.2379   -1.0539 H   0  0  0  0  0  0  0  0  0  0  0  0
    4.0420   -1.2416   -1.1659 H   0  0  0  0  0  0  0  0  0  0  0  0
    3.2726   -0.5752   -2.6235 H   0  0  0  0  0  0  0  0  0  0  0  0
   -0.5892    1.7466    0.7513 C   0  0  0  0  0  0  0  0  0  0  0  0
    0.0944    2.7007    0.4013 O   0  0  0  0  0  0  0  0  0  0  0  0
   -1.5214    1.9298    1.7562 N   0  0  0  0  0  0  0  0  0  0  0  0
   -1.9875    1.0902    2.0909 H   0  0  0  0  0  0  0  0  0  0  0  0
   -1.6461    3.1635    2.5225 C   0  0  0  0  0  0  0  0  0  0  0  0
   -1.8753    4.0047    1.8600 H   0  0  0  0  0  0  0  0  0  0  0  0
   -2.4531    3.0733    3.2559 H   0  0  0  0  0  0  0  0  0  0  0  0
   -0.7145    3.3792    3.0562 H   0  0  0  0  0  0  0  0  0  0  0  0
  1  2  1  0  0  0  0
  2  3  1  0  0  0  0
  2  4  1  0  0  0  0
  2  5  1  0  0  0  0
  5  6  2  0  0  0  0
  5  7  1  0  0  0  0
  7  8  1  0  0  0  0
  7  9  1  0  0  0  0
  9 10  1  0  0  0  0
  9 11  1  0  0  0  0
  9 22  1  0  0  0  0
 11 12  1  0  0  0  0
 11 13  1  0  0  0  0
 11 14  1  0  0  0  0
 14 15  1  0  0  0  0
 14 16  1  0  0  0  0
 14 17  1  0  0  0  0
 17 18  1  0  0  0  0
 18 19  1  0  0  0  0
 18 20  1  0  0  0  0
 18 21  1  0  0  0  0
 22 23  2  0  0  0  0
 22 24  1  0  0  0  0
 24 25  1  0  0  0  0
 24 26  1  0  0  0  0
 26 27  1  0  0  0  0
 26 28  1  0  0  0  0
 26 29  1  0  0  0  0
M  END
$$$$

  -OEChem-01062216093D

 29 28  0     1  0  0  0  0  0999 V2000
   -3.3225   -3.2386    0.7977 H   0  0  0  0  0  0  0  0  0  0  0  0
   -3.3216   -2.2611    0.3073 C   0  0  0  0  0  0  0  0  0  0  0  0
   -4.1781   -1.6858    0.6665 H   0  0  0  0  0  0  0  0  0  0  0  0
   -3.4163   -2.4102   -0.7709 H   0  0  0  0  0  0  0  0  0  0  0  0
   -2.0329   -1.5241    0.6184 C   0  0  0  0  0  0  0  0  0  0  0  0
   -1.2565   -1.9763    1.4415 O   0  0  0  0  0  0  0  0  0  0  0  0
   -1.7858   -0.2979    0.0360 N   0  0  0  0  0  0  0  0  0  0  0  0
   -2.4793    0.0368   -0.6264 H   0  0  0  0  0  0  0  0  0  0  0  0
   -0.4718    0.3755    0.0495 C   0  0  1  0  0  0  0  0  0  0  0  0
    0.2620   -0.2080    0.6152 H   0  0  0  0  0  0  0  0  0  0  0  0
    0.0225    0.5160   -1.4084 C   0  0  0  0  0  0  0  0  0  0  0  0
   -0.7305    1.0533   -1.9937 H   0  0  0  0  0  0  0  0  0  0  0  0
    0.9336    1.1219   -1.4226 H   0  0  0  0  0  0  0  0  0  0  0  0
    0.3280   -0.8256   -2.0910 C   0  0  0  0  0  0  0  0  0  0  0  0
   -0.5767   -1.4400   -2.1194 H   0  0  0  0  0  0  0  0  0  0  0  0
    0.6335   -0.6430   -3.1260 H   0  0  0  0  0  0  0  0  0  0  0  0
    1.6572   -1.7629   -1.2311 S   0  0  0  0  0  0  0  0  0  0  0  0
    3.1561   -0.7537   -1.5627 C   0  0  0  0  0  0  0  0  0  0  0  0
    3.0792    0.2202   -1.0709 H   0  0  0  0  0  0  0  0  0  0  0  0
    4.0435   -1.2662   -1.1800 H   0  0  0  0  0  0  0  0  0  0  0  0
    3.2793   -0.5982   -2.6384 H   0  0  0  0  0  0  0  0  0  0  0  0
   -0.5750    1.7452    0.7598 C   0  0  0  0  0  0  0  0  0  0  0  0
   -0.1138    2.7701    0.2723 O   0  0  0  0  0  0  0  0  0  0  0  0
   -1.2691    1.8255    1.9524 N   0  0  0  0  0  0  0  0  0  0  0  0
   -1.5786    0.9438    2.3555 H   0  0  0  0  0  0  0  0  0  0  0  0
   -1.4069    3.0517    2.7277 C   0  0  0  0  0  0  0  0  0  0  0  0
   -1.9060    3.8256    2.1351 H   0  0  0  0  0  0  0  0  0  0  0  0
   -2.0043    2.8659    3.6254 H   0  0  0  0  0  0  0  0  0  0  0  0
   -0.4238    3.4224    3.0360 H   0  0  0  0  0  0  0  0  0  0  0  0
  1  2  1  0  0  0  0
  2  3  1  0  0  0  0
  2  4  1  0  0  0  0
  2  5  1  0  0  0  0
  5  6  2  0  0  0  0
  5  7  1  0  0  0  0
  7  8  1  0  0  0  0
  7  9  1  0  0  0  0
  9 10  1  0  0  0  0
  9 11  1  0  0  0  0
  9 22  1  0  0  0  0
 11 12  1  0  0  0  0
 11 13  1  0  0  0  0
 11 14  1  0  0  0  0
 14 15  1  0  0  0  0
 14 16  1  0  0  0  0
 14 17  1  0  0  0  0
 17 18  1  0  0  0  0
 18 19  1  0  0  0  0
 18 20  1  0  0  0  0
 18 21  1  0  0  0  0
 22 23  2  0  0  0  0
 22 24  1  0  0  0  0
 24 25  1  0  0  0  0
 24 26  1  0  0  0  0
 26 27  1  0  0  0  0
 26 28  1  0  0  0  0
 26 29  1  0  0  0  0
M  END
$$$$

  -OEChem-01062216093D

 29 28  0     1  0  0  0  0  0999 V2000
   -3.3436   -3.2049    0.8359 H   0  0  0  0  0  0  0  0  0  0  0  0
   -3.3300   -2.2334    0.3336 C   0  0  0  0  0  0  0  0  0  0  0  0
   -4.1705   -1.6376    0.6970 H   0  0  0  0  0  0  0  0  0  0  0  0
   -3.4410   -2.3932   -0.7416 H   0  0  0  0  0  0  0  0  0  0  0  0
   -2.0239   -1.5173    0.6196 C   0  0  0  0  0  0  0  0  0  0  0  0
   -1.2341   -1.9870    1.4206 O   0  0  0  0  0  0  0  0  0  0  0  0
   -1.7716   -0.2914    0.0391 N   0  0  0  0  0  0  0  0  0  0  0  0
   -2.4789    0.0684   -0.5953 H   0  0  0  0  0  0  0  0  0  0  0  0
   -0.4552    0.3734    0.0485 C   0  0  1  0  0  0  0  0  0  0  0  0
    0.2801   -0.2150    0.6070 H   0  0  0  0  0  0  0  0  0  0  0  0
    0.0364    0.5207   -1.4087 C   0  0  0  0  0  0  0  0  0  0  0  0
   -0.7163    1.0632   -1.9900 H   0  0  0  0  0  0  0  0  0  0  0  0
    0.9478    1.1264   -1.4189 H   0  0  0  0  0  0  0  0  0  0  0  0
    0.3329   -0.8183   -2.0997 C   0  0  0  0  0  0  0  0  0  0  0  0
   -0.5754   -1.4274   -2.1290 H   0  0  0  0  0  0  0  0  0  0  0  0
    0.6367   -0.6319   -3.1345 H   0  0  0  0  0  0  0  0  0  0  0  0
    1.6588   -1.7671   -1.2472 S   0  0  0  0  0  0  0  0  0  0  0  0
    3.1629   -0.7652   -1.5749 C   0  0  0  0  0  0  0  0  0  0  0  0
    3.0860    0.2114   -1.0885 H   0  0  0  0  0  0  0  0  0  0  0  0
    4.0459   -1.2790   -1.1835 H   0  0  0  0  0  0  0  0  0  0  0  0
    3.2929   -0.6156   -2.6506 H   0  0  0  0  0  0  0  0  0  0  0  0
   -0.5562    1.7388    0.7629 C   0  0  0  0  0  0  0  0  0  0  0  0
   -0.3386    2.7968    0.1845 O   0  0  0  0  0  0  0  0  0  0  0  0
   -0.9632    1.7637    2.0830 N   0  0  0  0  0  0  0  0  0  0  0  0
   -1.1332    0.8630    2.5263 H   0  0  0  0  0  0  0  0  0  0  0  0
   -1.1159    2.9856    2.8623 C   0  0  0  0  0  0  0  0  0  0  0  0
   -1.8546    3.6468    2.3973 H   0  0  0  0  0  0  0  0  0  0  0  0
   -1.4543    2.7475    3.8753 H   0  0  0  0  0  0  0  0  0  0  0  0
   -0.1612    3.5175    2.9323 H   0  0  0  0  0  0  0  0  0  0  0  0
  1  2  1  0  0  0  0
  2  3  1  0  0  0  0
  2  4  1  0  0  0  0
  2  5  1  0  0  0  0
  5  6  2  0  0  0  0
  5  7  1  0  0  0  0
  7  8  1  0  0  0  0
  7  9  1  0  0  0  0
  9 10  1  0  0  0  0
  9 11  1  0  0  0  0
  9 22  1  0  0  0  0
 11 12  1  0  0  0  0
 11 13  1  0  0  0  0
 11 14  1  0  0  0  0
 14 15  1  0  0  0  0
 14 16  1  0  0  0  0
 14 17  1  0  0  0  0
 17 18  1  0  0  0  0
 18 19  1  0  0  0  0
 18 20  1  0  0  0  0
 18 21  1  0  0  0  0
 22 23  2  0  0  0  0
 22 24  1  0  0  0  0
 24 25  1  0  0  0  0
 24 26  1  0  0  0  0
 26 27  1  0  0  0  0
 26 28  1  0  0  0  0
 26 29  1  0  0  0  0
M  END
$$$$

  -OEChem-01062216093D

 29 28  0     1  0  0  0  0  0999 V2000
   -3.3683   -3.1775    0.8652 H   0  0  0  0  0  0  0  0  0  0  0  0
   -3.3492   -2.2020    0.3712 C   0  0  0  0  0  0  0  0  0  0  0  0
   -4.1607   -1.5887    0.7701 H   0  0  0  0  0  0  0  0  0  0  0  0
   -3.5042   -2.3488   -0.7003 H   0  0  0  0  0  0  0  0  0  0  0  0
   -2.0159   -1.5208    0.6148 C   0  0  0  0  0  0  0  0  0  0  0  0
   -1.2075   -2.0197    1.3794 O   0  0  0  0  0  0  0  0  0  0  0  0
   -1.7555   -0.2960    0.0356 N   0  0  0  0  0  0  0  0  0  0  0  0
   -2.4793    0.0967   -0.5599 H   0  0  0  0  0  0  0  0  0  0  0  0
   -0.4386    0.3644    0.0454 C   0  0  1  0  0  0  0  0  0  0  0  0
    0.2967   -0.2273    0.6000 H   0  0  0  0  0  0  0  0  0  0  0  0
    0.0533    0.5206   -1.4106 C   0  0  0  0  0  0  0  0  0  0  0  0
   -0.7003    1.0647   -1.9893 H   0  0  0  0  0  0  0  0  0  0  0  0
    0.9632    1.1285   -1.4163 H   0  0  0  0  0  0  0  0  0  0  0  0
    0.3471   -0.8140   -2.1112 C   0  0  0  0  0  0  0  0  0  0  0  0
   -0.5625   -1.4212   -2.1434 H   0  0  0  0  0  0  0  0  0  0  0  0
    0.6505   -0.6214   -3.1450 H   0  0  0  0  0  0  0  0  0  0  0  0
    1.6717   -1.7711   -1.2652 S   0  0  0  0  0  0  0  0  0  0  0  0
    3.1772   -0.7691   -1.5868 C   0  0  0  0  0  0  0  0  0  0  0  0
    3.1046    0.2028   -1.0907 H   0  0  0  0  0  0  0  0  0  0  0  0
    4.0600   -1.2890   -1.2033 H   0  0  0  0  0  0  0  0  0  0  0  0
    3.3048   -0.6090   -2.6614 H   0  0  0  0  0  0  0  0  0  0  0  0
   -0.5402    1.7282    0.7593 C   0  0  0  0  0  0  0  0  0  0  0  0
   -0.5864    2.7833    0.1378 O   0  0  0  0  0  0  0  0  0  0  0  0
   -0.6387    1.7489    2.1373 N   0  0  0  0  0  0  0  0  0  0  0  0
   -0.6556    0.8477    2.6108 H   0  0  0  0  0  0  0  0  0  0  0  0
   -0.8018    2.9686    2.9176 C   0  0  0  0  0  0  0  0  0  0  0  0
   -1.7191    3.4905    2.6256 H   0  0  0  0  0  0  0  0  0  0  0  0
   -0.8638    2.7300    3.9836 H   0  0  0  0  0  0  0  0  0  0  0  0
    0.0501    3.6391    2.7625 H   0  0  0  0  0  0  0  0  0  0  0  0
  1  2  1  0  0  0  0
  2  3  1  0  0  0  0
  2  4  1  0  0  0  0
  2  5  1  0  0  0  0
  5  6  2  0  0  0  0
  5  7  1  0  0  0  0
  7  8  1  0  0  0  0
  7  9  1  0  0  0  0
  9 10  1  0  0  0  0
  9 11  1  0  0  0  0
  9 22  1  0  0  0  0
 11 12  1  0  0  0  0
 11 13  1  0  0  0  0
 11 14  1  0  0  0  0
 14 15  1  0  0  0  0
 14 16  1  0  0  0  0
 14 17  1  0  0  0  0
 17 18  1  0  0  0  0
 18 19  1  0  0  0  0
 18 20  1  0  0  0  0
 18 21  1  0  0  0  0
 22 23  2  0  0  0  0
 22 24  1  0  0  0  0
 24 25  1  0  0  0  0
 24 26  1  0  0  0  0
 26 27  1  0  0  0  0
 26 28  1  0  0  0  0
 26 29  1  0  0  0  0
M  END
$$$$

  -OEChem-01062216093D

 29 28  0     1  0  0  0  0  0999 V2000
   -3.3995   -3.1541    0.8999 H   0  0  0  0  0  0  0  0  0  0  0  0
   -3.3709   -2.1787    0.4061 C   0  0  0  0  0  0  0  0  0  0  0  0
   -4.1491   -1.5433    0.8358 H   0  0  0  0  0  0  0  0  0  0  0  0
   -3.5689   -2.3188   -0.6593 H   0  0  0  0  0  0  0  0  0  0  0  0
   -2.0109   -1.5357    0.6006 C   0  0  0  0  0  0  0  0  0  0  0  0
   -1.1802   -2.0734    1.3134 O   0  0  0  0  0  0  0  0  0  0  0  0
   -1.7440   -0.3111    0.0238 N   0  0  0  0  0  0  0  0  0  0  0  0
   -2.4906    0.1255   -0.5101 H   0  0  0  0  0  0  0  0  0  0  0  0
   -0.4290    0.3510    0.0395 C   0  0  1  0  0  0  0  0  0  0  0  0
    0.3059   -0.2443    0.5909 H   0  0  0  0  0  0  0  0  0  0  0  0
    0.0655    0.5202   -1.4133 C   0  0  0  0  0  0  0  0  0  0  0  0
   -0.6890    1.0650   -1.9904 H   0  0  0  0  0  0  0  0  0  0  0  0
    0.9729    1.1316   -1.4122 H   0  0  0  0  0  0  0  0  0  0  0  0
    0.3627   -0.8091   -2.1219 C   0  0  0  0  0  0  0  0  0  0  0  0
   -0.5468   -1.4165   -2.1592 H   0  0  0  0  0  0  0  0  0  0  0  0
    0.6666   -0.6095   -3.1542 H   0  0  0  0  0  0  0  0  0  0  0  0
    1.6870   -1.7713   -1.2808 S   0  0  0  0  0  0  0  0  0  0  0  0
    3.1932   -0.7673   -1.5919 C   0  0  0  0  0  0  0  0  0  0  0  0
    3.1220    0.1989   -1.0846 H   0  0  0  0  0  0  0  0  0  0  0  0
    4.0759   -1.2930   -1.2155 H   0  0  0  0  0  0  0  0  0  0  0  0
    3.3196   -0.5956   -2.6648 H   0  0  0  0  0  0  0  0  0  0  0  0
   -0.5302    1.7157    0.7501 C   0  0  0  0  0  0  0  0  0  0  0  0
   -0.8397    2.7311    0.1375 O   0  0  0  0  0  0  0  0  0  0  0  0
   -0.3205    1.7830    2.1142 N   0  0  0  0  0  0  0  0  0  0  0  0
   -0.1692    0.9019    2.6009 H   0  0  0  0  0  0  0  0  0  0  0  0
   -0.4742    3.0058    2.8921 C   0  0  0  0  0  0  0  0  0  0  0  0
   -1.4968    3.3881    2.8074 H   0  0  0  0  0  0  0  0  0  0  0  0
   -0.2638    2.8106    3.9480 H   0  0  0  0  0  0  0  0  0  0  0  0
    0.2204    3.7748    2.5383 H   0  0  0  0  0  0  0  0  0  0  0  0
  1  2  1  0  0  0  0
  2  3  1  0  0  0  0
  2  4  1  0  0  0  0
  2  5  1  0  0  0  0
  5  6  2  0  0  0  0
  5  7  1  0  0  0  0
  7  8  1  0  0  0  0
  7  9  1  0  0  0  0
  9 10  1  0  0  0  0
  9 11  1  0  0  0  0
  9 22  1  0  0  0  0
 11 12  1  0  0  0  0
 11 13  1  0  0  0  0
 11 14  1  0  0  0  0
 14 15  1  0  0  0  0
 14 16  1  0  0  0  0
 14 17  1  0  0  0  0
 17 18  1  0  0  0  0
 18 19  1  0  0  0  0
 18 20  1  0  0  0  0
 18 21  1  0  0  0  0
 22 23  2  0  0  0  0
 22 24  1  0  0  0  0
 24 25  1  0  0  0  0
 24 26  1  0  0  0  0
 26 27  1  0  0  0  0
 26 28  1  0  0  0  0
 26 29  1  0  0  0  0
M  END
$$$$

  -OEChem-01062216093D

 29 28  0     1  0  0  0  0  0999 V2000
   -3.4370   -3.1270    0.9410 H   0  0  0  0  0  0  0  0  0  0  0  0
   -3.3960   -2.1550    0.4412 C   0  0  0  0  0  0  0  0  0  0  0  0
   -4.1371   -1.4932    0.8958 H   0  0  0  0  0  0  0  0  0  0  0  0
   -3.6383   -2.2926   -0.6152 H   0  0  0  0  0  0  0  0  0  0  0  0
   -2.0102   -1.5543    0.5807 C   0  0  0  0  0  0  0  0  0  0  0  0
   -1.1614   -2.1316    1.2392 O   0  0  0  0  0  0  0  0  0  0  0  0
   -1.7353   -0.3305    0.0062 N   0  0  0  0  0  0  0  0  0  0  0  0
   -2.5036    0.1557   -0.4490 H   0  0  0  0  0  0  0  0  0  0  0  0
   -0.4224    0.3341    0.0304 C   0  0  1  0  0  0  0  0  0  0  0  0
    0.3092   -0.2639    0.5829 H   0  0  0  0  0  0  0  0  0  0  0  0
    0.0774    0.5161   -1.4178 C   0  0  0  0  0  0  0  0  0  0  0  0
   -0.6773    1.0625   -1.9933 H   0  0  0  0  0  0  0  0  0  0  0  0
    0.9826    1.1305   -1.4088 H   0  0  0  0  0  0  0  0  0  0  0  0
    0.3809   -0.8071   -2.1354 C   0  0  0  0  0  0  0  0  0  0  0  0
   -0.5267   -1.4171   -2.1790 H   0  0  0  0  0  0  0  0  0  0  0  0
    0.6876   -0.6002   -3.1655 H   0  0  0  0  0  0  0  0  0  0  0  0
    1.7045   -1.7698   -1.2940 S   0  0  0  0  0  0  0  0  0  0  0  0
    3.2078   -0.7576   -1.5917 C   0  0  0  0  0  0  0  0  0  0  0  0
    3.1292    0.2054   -1.0796 H   0  0  0  0  0  0  0  0  0  0  0  0
    4.0909   -1.2809   -1.2131 H   0  0  0  0  0  0  0  0  0  0  0  0
    3.3392   -0.5795   -2.6631 H   0  0  0  0  0  0  0  0  0  0  0  0
   -0.5254    1.6999    0.7363 C   0  0  0  0  0  0  0  0  0  0  0  0
   -1.0826    2.6440    0.1884 O   0  0  0  0  0  0  0  0  0  0  0  0
   -0.0309    1.8518    2.0177 N   0  0  0  0  0  0  0  0  0  0  0  0
    0.3181    1.0160    2.4808 H   0  0  0  0  0  0  0  0  0  0  0  0
   -0.1641    3.0827    2.7867 C   0  0  0  0  0  0  0  0  0  0  0  0
   -1.2205    3.3338    2.9280 H   0  0  0  0  0  0  0  0  0  0  0  0
    0.2989    2.9658    3.7711 H   0  0  0  0  0  0  0  0  0  0  0  0
    0.3295    3.9125    2.2700 H   0  0  0  0  0  0  0  0  0  0  0  0
  1  2  1  0  0  0  0
  2  3  1  0  0  0  0
  2  4  1  0  0  0  0
  2  5  1  0  0  0  0
  5  6  2  0  0  0  0
  5  7  1  0  0  0  0
  7  8  1  0  0  0  0
  7  9  1  0  0  0  0
  9 10  1  0  0  0  0
  9 11  1  0  0  0  0
  9 22  1  0  0  0  0
 11 12  1  0  0  0  0
 11 13  1  0  0  0  0
 11 14  1  0  0  0  0
 14 15  1  0  0  0  0
 14 16  1  0  0  0  0
 14 17  1  0  0  0  0
 17 18  1  0  0  0  0
 18 19  1  0  0  0  0
 18 20  1  0  0  0  0
 18 21  1  0  0  0  0
 22 23  2  0  0  0  0
 22 24  1  0  0  0  0
 24 25  1  0  0  0  0
 24 26  1  0  0  0  0
 26 27  1  0  0  0  0
 26 28  1  0  0  0  0
 26 29  1  0  0  0  0
M  END
$$$$

  -OEChem-01062216093D

 29 28  0     1  0  0  0  0  0999 V2000
   -3.4662   -3.1014    0.9842 H   0  0  0  0  0  0  0  0  0  0  0  0
   -3.4175   -2.1335    0.4774 C   0  0  0  0  0  0  0  0  0  0  0  0
   -4.1219   -1.4492    0.9565 H   0  0  0  0  0  0  0  0  0  0  0  0
   -3.7045   -2.2695   -0.5680 H   0  0  0  0  0  0  0  0  0  0  0  0
   -2.0108   -1.5712    0.5593 C   0  0  0  0  0  0  0  0  0  0  0  0
   -1.1471   -2.1823    1.1660 O   0  0  0  0  0  0  0  0  0  0  0  0
   -1.7314   -0.3489   -0.0161 N   0  0  0  0  0  0  0  0  0  0  0  0
   -2.5160    0.1795   -0.3903 H   0  0  0  0  0  0  0  0  0  0  0  0
   -0.4206    0.3192    0.0187 C   0  0  1  0  0  0  0  0  0  0  0  0
    0.3061   -0.2792    0.5772 H   0  0  0  0  0  0  0  0  0  0  0  0
    0.0873    0.5125   -1.4241 C   0  0  0  0  0  0  0  0  0  0  0  0
   -0.6662    1.0606   -1.9993 H   0  0  0  0  0  0  0  0  0  0  0  0
    0.9904    1.1297   -1.4060 H   0  0  0  0  0  0  0  0  0  0  0  0
    0.3993   -0.8045   -2.1489 C   0  0  0  0  0  0  0  0  0  0  0  0
   -0.5060   -1.4170   -2.2012 H   0  0  0  0  0  0  0  0  0  0  0  0
    0.7108   -0.5899   -3.1757 H   0  0  0  0  0  0  0  0  0  0  0  0
    1.7211   -1.7684   -1.3055 S   0  0  0  0  0  0  0  0  0  0  0  0
    3.2227   -0.7492   -1.5875 C   0  0  0  0  0  0  0  0  0  0  0  0
    3.1366    0.2120   -1.0732 H   0  0  0  0  0  0  0  0  0  0  0  0
    4.1043   -1.2708   -1.2034 H   0  0  0  0  0  0  0  0  0  0  0  0
    3.3619   -0.5672   -2.6572 H   0  0  0  0  0  0  0  0  0  0  0  0
   -0.5290    1.6880    0.7172 C   0  0  0  0  0  0  0  0  0  0  0  0
   -1.2949    2.5406    0.2823 O   0  0  0  0  0  0  0  0  0  0  0  0
    0.2101    1.9501    1.8553 N   0  0  0  0  0  0  0  0  0  0  0  0
    0.7526    1.1827    2.2437 H   0  0  0  0  0  0  0  0  0  0  0  0
    0.1040    3.1921    2.6108 C   0  0  0  0  0  0  0  0  0  0  0  0
   -0.9168    3.3300    2.9828 H   0  0  0  0  0  0  0  0  0  0  0  0
    0.7846    3.1723    3.4675 H   0  0  0  0  0  0  0  0  0  0  0  0
    0.3682    4.0478    1.9804 H   0  0  0  0  0  0  0  0  0  0  0  0
  1  2  1  0  0  0  0
  2  3  1  0  0  0  0
  2  4  1  0  0  0  0
  2  5  1  0  0  0  0
  5  6  2  0  0  0  0
  5  7  1  0  0  0  0
  7  8  1  0  0  0  0
  7  9  1  0  0  0  0
  9 10  1  0  0  0  0
  9 11  1  0  0  0  0
  9 22  1  0  0  0  0
 11 12  1  0  0  0  0
 11 13  1  0  0  0  0
 11 14  1  0  0  0  0
 14 15  1  0  0  0  0
 14 16  1  0  0  0  0
 14 17  1  0  0  0  0
 17 18  1  0  0  0  0
 18 19  1  0  0  0  0
 18 20  1  0  0  0  0
 18 21  1  0  0  0  0
 22 23  2  0  0  0  0
 22 24  1  0  0  0  0
 24 25  1  0  0  0  0
 24 26  1  0  0  0  0
 26 27  1  0  0  0  0
 26 28  1  0  0  0  0
 26 29  1  0  0  0  0
M  END
$$$$

  -OEChem-01062216093D

 29 28  0     1  0  0  0  0  0999 V2000
   -3.4813   -3.0813    1.0233 H   0  0  0  0  0  0  0  0  0  0  0  0
   -3.4313   -2.1164    0.5110 C   0  0  0  0  0  0  0  0  0  0  0  0
   -4.1015   -1.4155    1.0146 H   0  0  0  0  0  0  0  0  0  0  0  0
   -3.7610   -2.2492   -0.5221 H   0  0  0  0  0  0  0  0  0  0  0  0
   -2.0109   -1.5849    0.5357 C   0  0  0  0  0  0  0  0  0  0  0  0
   -1.1346   -2.2238    1.0938 O   0  0  0  0  0  0  0  0  0  0  0  0
   -1.7324   -0.3630   -0.0413 N   0  0  0  0  0  0  0  0  0  0  0  0
   -2.5287    0.1986   -0.3354 H   0  0  0  0  0  0  0  0  0  0  0  0
   -0.4238    0.3094    0.0052 C   0  0  1  0  0  0  0  0  0  0  0  0
    0.2981   -0.2870    0.5718 H   0  0  0  0  0  0  0  0  0  0  0  0
    0.0922    0.5102   -1.4330 C   0  0  0  0  0  0  0  0  0  0  0  0
   -0.6603    1.0588   -2.0095 H   0  0  0  0  0  0  0  0  0  0  0  0
    0.9938    1.1294   -1.4075 H   0  0  0  0  0  0  0  0  0  0  0  0
    0.4132   -0.8029   -2.1606 C   0  0  0  0  0  0  0  0  0  0  0  0
   -0.4897   -1.4189   -2.2200 H   0  0  0  0  0  0  0  0  0  0  0  0
    0.7305   -0.5844   -3.1849 H   0  0  0  0  0  0  0  0  0  0  0  0
    1.7333   -1.7632   -1.3105 S   0  0  0  0  0  0  0  0  0  0  0  0
    3.2353   -0.7401   -1.5769 C   0  0  0  0  0  0  0  0  0  0  0  0
    3.1429    0.2202   -1.0624 H   0  0  0  0  0  0  0  0  0  0  0  0
    4.1144   -1.2605   -1.1854 H   0  0  0  0  0  0  0  0  0  0  0  0
    3.3846   -0.5566   -2.6450 H   0  0  0  0  0  0  0  0  0  0  0  0
   -0.5385    1.6806    0.6974 C   0  0  0  0  0  0  0  0  0  0  0  0
   -1.4601    2.4363    0.4094 O   0  0  0  0  0  0  0  0  0  0  0  0
    0.3953    2.0679    1.6403 N   0  0  0  0  0  0  0  0  0  0  0  0
    1.0919    1.3806    1.9158 H   0  0  0  0  0  0  0  0  0  0  0  0
    0.3157    3.3245    2.3746 C   0  0  0  0  0  0  0  0  0  0  0  0
   -0.6085    3.3685    2.9603 H   0  0  0  0  0  0  0  0  0  0  0  0
    1.1645    3.4168    3.0591 H   0  0  0  0  0  0  0  0  0  0  0  0
    0.3359    4.1739    1.6838 H   0  0  0  0  0  0  0  0  0  0  0  0
  1  2  1  0  0  0  0
  2  3  1  0  0  0  0
  2  4  1  0  0  0  0
  2  5  1  0  0  0  0
  5  6  2  0  0  0  0
  5  7  1  0  0  0  0
  7  8  1  0  0  0  0
  7  9  1  0  0  0  0
  9 10  1  0  0  0  0
  9 11  1  0  0  0  0
  9 22  1  0  0  0  0
 11 12  1  0  0  0  0
 11 13  1  0  0  0  0
 11 14  1  0  0  0  0
 14 15  1  0  0  0  0
 14 16  1  0  0  0  0
 14 17  1  0  0  0  0
 17 18  1  0  0  0  0
 18 19  1  0  0  0  0
 18 20  1  0  0  0  0
 18 21  1  0  0  0  0
 22 23  2  0  0  0  0
 22 24  1  0  0  0  0
 24 25  1  0  0  0  0
 24 26  1  0  0  0  0
 26 27  1  0  0  0  0
 26 28  1  0  0  0  0
 26 29  1  0  0  0  0
M  END
$$$$

  -OEChem-01062216093D

 29 28  0     1  0  0  0  0  0999 V2000
   -3.4879   -3.0643    1.0561 H   0  0  0  0  0  0  0  0  0  0  0  0
   -3.4402   -2.1017    0.5394 C   0  0  0  0  0  0  0  0  0  0  0  0
   -4.0775   -1.3871    1.0659 H   0  0  0  0  0  0  0  0  0  0  0  0
   -3.8124   -2.2304   -0.4797 H   0  0  0  0  0  0  0  0  0  0  0  0
   -2.0104   -1.5960    0.5082 C   0  0  0  0  0  0  0  0  0  0  0  0
   -1.1233   -2.2582    1.0200 O   0  0  0  0  0  0  0  0  0  0  0  0
   -1.7357   -0.3735   -0.0692 N   0  0  0  0  0  0  0  0  0  0  0  0
   -2.5391    0.2128   -0.2877 H   0  0  0  0  0  0  0  0  0  0  0  0
   -0.4297    0.3038   -0.0080 C   0  0  1  0  0  0  0  0  0  0  0  0
    0.2882   -0.2888    0.5678 H   0  0  0  0  0  0  0  0  0  0  0  0
    0.0956    0.5060   -1.4427 C   0  0  0  0  0  0  0  0  0  0  0  0
   -0.6559    1.0512   -2.0236 H   0  0  0  0  0  0  0  0  0  0  0  0
    0.9945    1.1285   -1.4131 H   0  0  0  0  0  0  0  0  0  0  0  0
    0.4268   -0.8056   -2.1683 C   0  0  0  0  0  0  0  0  0  0  0  0
   -0.4729   -1.4257   -2.2326 H   0  0  0  0  0  0  0  0  0  0  0  0
    0.7494   -0.5868   -3.1907 H   0  0  0  0  0  0  0  0  0  0  0  0
    1.7454   -1.7595   -1.3084 S   0  0  0  0  0  0  0  0  0  0  0  0
    3.2438   -0.7288   -1.5655 C   0  0  0  0  0  0  0  0  0  0  0  0
    3.1438    0.2305   -1.0506 H   0  0  0  0  0  0  0  0  0  0  0  0
    4.1233   -1.2449   -1.1692 H   0  0  0  0  0  0  0  0  0  0  0  0
    3.3978   -0.5438   -2.6327 H   0  0  0  0  0  0  0  0  0  0  0  0
   -0.5520    1.6769    0.6804 C   0  0  0  0  0  0  0  0  0  0  0  0
   -1.5840    2.3302    0.5693 O   0  0  0  0  0  0  0  0  0  0  0  0
    0.5137    2.1990    1.3896 N   0  0  0  0  0  0  0  0  0  0  0  0
    1.3210    1.5971    1.5279 H   0  0  0  0  0  0  0  0  0  0  0  0
    0.4551    3.4733    2.0950 C   0  0  0  0  0  0  0  0  0  0  0  0
   -0.3204    3.4490    2.8678 H   0  0  0  0  0  0  0  0  0  0  0  0
    1.4156    3.6847    2.5747 H   0  0  0  0  0  0  0  0  0  0  0  0
    0.2318    4.2873    1.3973 H   0  0  0  0  0  0  0  0  0  0  0  0
  1  2  1  0  0  0  0
  2  3  1  0  0  0  0
  2  4  1  0  0  0  0
  2  5  1  0  0  0  0
  5  6  2  0  0  0  0
  5  7  1  0  0  0  0
  7  8  1  0  0  0  0
  7  9  1  0  0  0  0
  9 10  1  0  0  0  0
  9 11  1  0  0  0  0
  9 22  1  0  0  0  0
 11 12  1  0  0  0  0
 11 13  1  0  0  0  0
 11 14  1  0  0  0  0
 14 15  1  0  0  0  0
 14 16  1  0  0  0  0
 14 17  1  0  0  0  0
 17 18  1  0  0  0  0
 18 19  1  0  0  0  0
 18 20  1  0  0  0  0
 18 21  1  0  0  0  0
 22 23  2  0  0  0  0
 22 24  1  0  0  0  0
 24 25  1  0  0  0  0
 24 26  1  0  0  0  0
 26 27  1  0  0  0  0
 26 28  1  0  0  0  0
 26 29  1  0  0  0  0
M  END
$$$$

  -OEChem-01062216093D

 29 28  0     1  0  0  0  0  0999 V2000
   -3.4898   -3.0502    1.0812 H   0  0  0  0  0  0  0  0  0  0  0  0
   -3.4439   -2.0901    0.5594 C   0  0  0  0  0  0  0  0  0  0  0  0
   -4.0538   -1.3646    1.1034 H   0  0  0  0  0  0  0  0  0  0  0  0
   -3.8496   -2.2163   -0.4471 H   0  0  0  0  0  0  0  0  0  0  0  0
   -2.0085   -1.6057    0.4811 C   0  0  0  0  0  0  0  0  0  0  0  0
   -1.1138   -2.2882    0.9512 O   0  0  0  0  0  0  0  0  0  0  0  0
   -1.7385   -0.3808   -0.0935 N   0  0  0  0  0  0  0  0  0  0  0  0
   -2.5457    0.2209   -0.2479 H   0  0  0  0  0  0  0  0  0  0  0  0
   -0.4348    0.3006   -0.0165 C   0  0  1  0  0  0  0  0  0  0  0  0
    0.2800   -0.2887    0.5668 H   0  0  0  0  0  0  0  0  0  0  0  0
    0.0972    0.5021   -1.4504 C   0  0  0  0  0  0  0  0  0  0  0  0
   -0.6540    1.0434   -2.0351 H   0  0  0  0  0  0  0  0  0  0  0  0
    0.9946    1.1266   -1.4208 H   0  0  0  0  0  0  0  0  0  0  0  0
    0.4359   -0.8092   -2.1739 C   0  0  0  0  0  0  0  0  0  0  0  0
   -0.4614   -1.4325   -2.2418 H   0  0  0  0  0  0  0  0  0  0  0  0
    0.7619   -0.5903   -3.1955 H   0  0  0  0  0  0  0  0  0  0  0  0
    1.7536   -1.7587   -1.3080 S   0  0  0  0  0  0  0  0  0  0  0  0
    3.2508   -0.7246   -1.5586 C   0  0  0  0  0  0  0  0  0  0  0  0
    3.1461    0.2349   -1.0452 H   0  0  0  0  0  0  0  0  0  0  0  0
    4.1297   -1.2384   -1.1580 H   0  0  0  0  0  0  0  0  0  0  0  0
    3.4098   -0.5405   -2.6252 H   0  0  0  0  0  0  0  0  0  0  0  0
   -0.5666    1.6743    0.6735 C   0  0  0  0  0  0  0  0  0  0  0  0
   -1.6619    2.2200    0.7587 O   0  0  0  0  0  0  0  0  0  0  0  0
    0.5585    2.3386    1.1266 N   0  0  0  0  0  0  0  0  0  0  0  0
    1.4398    1.8335    1.1024 H   0  0  0  0  0  0  0  0  0  0  0  0
    0.5071    3.6348    1.7923 C   0  0  0  0  0  0  0  0  0  0  0  0
   -0.0788    3.5692    2.7153 H   0  0  0  0  0  0  0  0  0  0  0  0
    1.5173    3.9700    2.0464 H   0  0  0  0  0  0  0  0  0  0  0  0
    0.0503    4.3842    1.1372 H   0  0  0  0  0  0  0  0  0  0  0  0
  1  2  1  0  0  0  0
  2  3  1  0  0  0  0
  2  4  1  0  0  0  0
  2  5  1  0  0  0  0
  5  6  2  0  0  0  0
  5  7  1  0  0  0  0
  7  8  1  0  0  0  0
  7  9  1  0  0  0  0
  9 10  1  0  0  0  0
  9 11  1  0  0  0  0
  9 22  1  0  0  0  0
 11 12  1  0  0  0  0
 11 13  1  0  0  0  0
 11 14  1  0  0  0  0
 14 15  1  0  0  0  0
 14 16  1  0  0  0  0
 14 17  1  0  0  0  0
 17 18  1  0  0  0  0
 18 19  1  0  0  0  0
 18 20  1  0  0  0  0
 18 21  1  0  0  0  0
 22 23  2  0  0  0  0
 22 24  1  0  0  0  0
 24 25  1  0  0  0  0
 24 26  1  0  0  0  0
 26 27  1  0  0  0  0
 26 28  1  0  0  0  0
 26 29  1  0  0  0  0
M  END
$$$$

  -OEChem-01062216093D

 29 28  0     1  0  0  0  0  0999 V2000
   -3.4435   -3.0355    1.1311 H   0  0  0  0  0  0  0  0  0  0  0  0
   -3.4217   -2.0766    0.6056 C   0  0  0  0  0  0  0  0  0  0  0  0
   -3.9883   -1.3447    1.1866 H   0  0  0  0  0  0  0  0  0  0  0  0
   -3.8919   -2.1998   -0.3728 H   0  0  0  0  0  0  0  0  0  0  0  0
   -1.9895   -1.6063    0.4360 C   0  0  0  0  0  0  0  0  0  0  0  0
   -1.0724   -2.3093    0.8280 O   0  0  0  0  0  0  0  0  0  0  0  0
   -1.7464   -0.3747   -0.1380 N   0  0  0  0  0  0  0  0  0  0  0  0
   -2.5599    0.2340   -0.1884 H   0  0  0  0  0  0  0  0  0  0  0  0
   -0.4427    0.3068   -0.0450 C   0  0  1  0  0  0  0  0  0  0  0  0
    0.3394   -0.3795    0.2952 H   0  0  0  0  0  0  0  0  0  0  0  0
   -0.0903    0.8337   -1.4527 C   0  0  0  0  0  0  0  0  0  0  0  0
   -0.9071    1.4691   -1.8105 H   0  0  0  0  0  0  0  0  0  0  0  0
    0.8050    1.4589   -1.3981 H   0  0  0  0  0  0  0  0  0  0  0  0
    0.1582   -0.2818   -2.4790 C   0  0  0  0  0  0  0  0  0  0  0  0
   -0.7407   -0.8991   -2.5739 H   0  0  0  0  0  0  0  0  0  0  0  0
    0.3568    0.1612   -3.4597 H   0  0  0  0  0  0  0  0  0  0  0  0
    1.5715   -1.3619   -2.0058 S   0  0  0  0  0  0  0  0  0  0  0  0
    3.0287   -0.2610   -2.2020 C   0  0  0  0  0  0  0  0  0  0  0  0
    2.9886    0.5621   -1.4837 H   0  0  0  0  0  0  0  0  0  0  0  0
    3.9492   -0.8268   -2.0300 H   0  0  0  0  0  0  0  0  0  0  0  0
    3.0572    0.1528   -3.2143 H   0  0  0  0  0  0  0  0  0  0  0  0
   -0.4902    1.4788    0.9622 C   0  0  0  0  0  0  0  0  0  0  0  0
   -1.5559    1.8234    1.4623 O   0  0  0  0  0  0  0  0  0  0  0  0
    0.6360    2.2473    1.1984 N   0  0  0  0  0  0  0  0  0  0  0  0
    1.5170    1.9082    0.8235 H   0  0  0  0  0  0  0  0  0  0  0  0
    0.6519    3.3775    2.1196 C   0  0  0  0  0  0  0  0  0  0  0  0
    0.4082    3.0477    3.1351 H   0  0  0  0  0  0  0  0  0  0  0  0
    1.6435    3.8401    2.1340 H   0  0  0  0  0  0  0  0  0  0  0  0
   -0.0765    4.1347    1.8104 H   0  0  0  0  0  0  0  0  0  0  0  0
  1  2  1  0  0  0  0
  2  3  1  0  0  0  0
  2  4  1  0  0  0  0
  2  5  1  0  0  0  0
  5  6  2  0  0  0  0
  5  7  1  0  0  0  0
  7  8  1  0  0  0  0
  7  9  1  0  0  0  0
  9 10  1  0  0  0  0
  9 11  1  0  0  0  0
  9 22  1  0  0  0  0
 11 12  1  0  0  0  0
 11 13  1  0  0  0  0
 11 14  1  0  0  0  0
 14 15  1  0  0  0  0
 14 16  1  0  0  0  0
 14 17  1  0  0  0  0
 17 18  1  0  0  0  0
 18 19  1  0  0  0  0
 18 20  1  0  0  0  0
 18 21  1  0  0  0  0
 22 23  2  0  0  0  0
 22 24  1  0  0  0  0
 24 25  1  0  0  0  0
 24 26  1  0  0  0  0
 26 27  1  0  0  0  0
 26 28  1  0  0  0  0
 26 29  1  0  0  0  0
M  END
$$$$

  -OEChem-01062216093D

 29 28  0     1  0  0  0  0  0999 V2000
   -3.4221   -3.0420    1.1112 H   0  0  0  0  0  0  0  0  0  0  0  0
   -3.4113   -2.0621    0.6260 C   0  0  0  0  0  0  0  0  0  0  0  0
   -3.9422   -1.3492    1.2618 H   0  0  0  0  0  0  0  0  0  0  0  0
   -3.9253   -2.1386   -0.3349 H   0  0  0  0  0  0  0  0  0  0  0  0
   -1.9821   -1.6003    0.4148 C   0  0  0  0  0  0  0  0  0  0  0  0
   -1.0589   -2.3167    0.7660 O   0  0  0  0  0  0  0  0  0  0  0  0
   -1.7494   -0.3649   -0.1563 N   0  0  0  0  0  0  0  0  0  0  0  0
   -2.5649    0.2423   -0.1741 H   0  0  0  0  0  0  0  0  0  0  0  0
   -0.4459    0.3182   -0.0604 C   0  0  1  0  0  0  0  0  0  0  0  0
    0.3371   -0.3645    0.2853 H   0  0  0  0  0  0  0  0  0  0  0  0
   -0.0900    0.8300   -1.4744 C   0  0  0  0  0  0  0  0  0  0  0  0
   -0.9059    1.4614   -1.8417 H   0  0  0  0  0  0  0  0  0  0  0  0
    0.8069    1.4528   -1.4302 H   0  0  0  0  0  0  0  0  0  0  0  0
    0.1620   -0.2978   -2.4865 C   0  0  0  0  0  0  0  0  0  0  0  0
   -0.7362   -0.9172   -2.5767 H   0  0  0  0  0  0  0  0  0  0  0  0
    0.3630    0.1343   -3.4716 H   0  0  0  0  0  0  0  0  0  0  0  0
    1.5742   -1.3727   -1.9987 S   0  0  0  0  0  0  0  0  0  0  0  0
    3.0376   -0.2821   -2.2010 C   0  0  0  0  0  0  0  0  0  0  0  0
    2.9971    0.5501   -1.4932 H   0  0  0  0  0  0  0  0  0  0  0  0
    3.9536   -0.8510   -2.0153 H   0  0  0  0  0  0  0  0  0  0  0  0
    3.0749    0.1182   -3.2184 H   0  0  0  0  0  0  0  0  0  0  0  0
   -0.5007    1.4863    0.9555 C   0  0  0  0  0  0  0  0  0  0  0  0
   -1.5003    1.6602    1.6445 O   0  0  0  0  0  0  0  0  0  0  0  0
    0.4937    2.4489    0.9902 N   0  0  0  0  0  0  0  0  0  0  0  0
    1.3341    2.2696    0.4492 H   0  0  0  0  0  0  0  0  0  0  0  0
    0.4767    3.5839    1.9060 C   0  0  0  0  0  0  0  0  0  0  0  0
    0.4691    3.2380    2.9450 H   0  0  0  0  0  0  0  0  0  0  0  0
    1.3640    4.2060    1.7547 H   0  0  0  0  0  0  0  0  0  0  0  0
   -0.4107    4.2022    1.7344 H   0  0  0  0  0  0  0  0  0  0  0  0
  1  2  1  0  0  0  0
  2  3  1  0  0  0  0
  2  4  1  0  0  0  0
  2  5  1  0  0  0  0
  5  6  2  0  0  0  0
  5  7  1  0  0  0  0
  7  8  1  0  0  0  0
  7  9  1  0  0  0  0
  9 10  1  0  0  0  0
  9 11  1  0  0  0  0
  9 22  1  0  0  0  0
 11 12  1  0  0  0  0
 11 13  1  0  0  0  0
 11 14  1  0  0  0  0
 14 15  1  0  0  0  0
 14 16  1  0  0  0  0
 14 17  1  0  0  0  0
 17 18  1  0  0  0  0
 18 19  1  0  0  0  0
 18 20  1  0  0  0  0
 18 21  1  0  0  0  0
 22 23  2  0  0  0  0
 22 24  1  0  0  0  0
 24 25  1  0  0  0  0
 24 26  1  0  0  0  0
 26 27  1  0  0  0  0
 26 28  1  0  0  0  0
 26 29  1  0  0  0  0
M  END
$$$$

  -OEChem-01062216093D

 29 28  0     1  0  0  0  0  0999 V2000
   -3.4105   -3.0449    1.0922 H   0  0  0  0  0  0  0  0  0  0  0  0
   -3.4038   -2.0491    0.6405 C   0  0  0  0  0  0  0  0  0  0  0  0
   -3.9085   -1.3535    1.3155 H   0  0  0  0  0  0  0  0  0  0  0  0
   -3.9464   -2.0882   -0.3069 H   0  0  0  0  0  0  0  0  0  0  0  0
   -1.9766   -1.5927    0.4032 C   0  0  0  0  0  0  0  0  0  0  0  0
   -1.0505   -2.3218    0.7184 O   0  0  0  0  0  0  0  0  0  0  0  0
   -1.7502   -0.3541   -0.1647 N   0  0  0  0  0  0  0  0  0  0  0  0
   -2.5679    0.2492   -0.1753 H   0  0  0  0  0  0  0  0  0  0  0  0
   -0.4456    0.3289   -0.0722 C   0  0  1  0  0  0  0  0  0  0  0  0
    0.3369   -0.3522    0.2777 H   0  0  0  0  0  0  0  0  0  0  0  0
   -0.0855    0.8243   -1.4921 C   0  0  0  0  0  0  0  0  0  0  0  0
   -0.8978    1.4549   -1.8683 H   0  0  0  0  0  0  0  0  0  0  0  0
    0.8161    1.4404   -1.4535 H   0  0  0  0  0  0  0  0  0  0  0  0
    0.1677   -0.3155   -2.4911 C   0  0  0  0  0  0  0  0  0  0  0  0
   -0.7311   -0.9347   -2.5752 H   0  0  0  0  0  0  0  0  0  0  0  0
    0.3709    0.1040   -3.4811 H   0  0  0  0  0  0  0  0  0  0  0  0
    1.5773   -1.3876   -1.9895 S   0  0  0  0  0  0  0  0  0  0  0  0
    3.0435   -0.3021   -2.2006 C   0  0  0  0  0  0  0  0  0  0  0  0
    3.0043    0.5361   -1.4999 H   0  0  0  0  0  0  0  0  0  0  0  0
    3.9581   -0.8712   -2.0089 H   0  0  0  0  0  0  0  0  0  0  0  0
    3.0825    0.0892   -3.2214 H   0  0  0  0  0  0  0  0  0  0  0  0
   -0.5042    1.4924    0.9523 C   0  0  0  0  0  0  0  0  0  0  0  0
   -1.3743    1.5073    1.8156 O   0  0  0  0  0  0  0  0  0  0  0  0
    0.2883    2.6202    0.8171 N   0  0  0  0  0  0  0  0  0  0  0  0
    1.0215    2.5952    0.1159 H   0  0  0  0  0  0  0  0  0  0  0  0
    0.2250    3.7589    1.7266 C   0  0  0  0  0  0  0  0  0  0  0  0
    0.4556    3.4453    2.7502 H   0  0  0  0  0  0  0  0  0  0  0  0
    0.9487    4.5232    1.4275 H   0  0  0  0  0  0  0  0  0  0  0  0
   -0.7743    4.2066    1.7123 H   0  0  0  0  0  0  0  0  0  0  0  0
  1  2  1  0  0  0  0
  2  3  1  0  0  0  0
  2  4  1  0  0  0  0
  2  5  1  0  0  0  0
  5  6  2  0  0  0  0
  5  7  1  0  0  0  0
  7  8  1  0  0  0  0
  7  9  1  0  0  0  0
  9 10  1  0  0  0  0
  9 11  1  0  0  0  0
  9 22  1  0  0  0  0
 11 12  1  0  0  0  0
 11 13  1  0  0  0  0
 11 14  1  0  0  0  0
 14 15  1  0  0  0  0
 14 16  1  0  0  0  0
 14 17  1  0  0  0  0
 17 18  1  0  0  0  0
 18 19  1  0  0  0  0
 18 20  1  0  0  0  0
 18 21  1  0  0  0  0
 22 23  2  0  0  0  0
 22 24  1  0  0  0  0
 24 25  1  0  0  0  0
 24 26  1  0  0  0  0
 26 27  1  0  0  0  0
 26 28  1  0  0  0  0
 26 29  1  0  0  0  0
M  END
$$$$

  -OEChem-01062216093D

 29 28  0     1  0  0  0  0  0999 V2000
   -3.4021   -3.0408    1.0964 H   0  0  0  0  0  0  0  0  0  0  0  0
   -3.3987   -2.0460    0.6424 C   0  0  0  0  0  0  0  0  0  0  0  0
   -3.9071   -1.3511    1.3151 H   0  0  0  0  0  0  0  0  0  0  0  0
   -3.9390   -2.0893   -0.3060 H   0  0  0  0  0  0  0  0  0  0  0  0
   -1.9733   -1.5849    0.4062 C   0  0  0  0  0  0  0  0  0  0  0  0
   -1.0461   -2.3183    0.7066 O   0  0  0  0  0  0  0  0  0  0  0  0
   -1.7515   -0.3452   -0.1614 N   0  0  0  0  0  0  0  0  0  0  0  0
   -2.5728    0.2515   -0.1870 H   0  0  0  0  0  0  0  0  0  0  0  0
   -0.4470    0.3386   -0.0780 C   0  0  1  0  0  0  0  0  0  0  0  0
    0.3362   -0.3409    0.2745 H   0  0  0  0  0  0  0  0  0  0  0  0
   -0.0832    0.8233   -1.5005 C   0  0  0  0  0  0  0  0  0  0  0  0
   -0.8921    1.4536   -1.8843 H   0  0  0  0  0  0  0  0  0  0  0  0
    0.8218    1.4347   -1.4601 H   0  0  0  0  0  0  0  0  0  0  0  0
    0.1710   -0.3234   -2.4912 C   0  0  0  0  0  0  0  0  0  0  0  0
   -0.7286   -0.9419   -2.5729 H   0  0  0  0  0  0  0  0  0  0  0  0
    0.3767    0.0897   -3.4834 H   0  0  0  0  0  0  0  0  0  0  0  0
    1.5775   -1.3953   -1.9820 S   0  0  0  0  0  0  0  0  0  0  0  0
    3.0470   -0.3153   -2.1967 C   0  0  0  0  0  0  0  0  0  0  0  0
    3.0096    0.5272   -1.5007 H   0  0  0  0  0  0  0  0  0  0  0  0
    3.9594   -0.8866   -2.0003 H   0  0  0  0  0  0  0  0  0  0  0  0
    3.0886    0.0699   -3.2197 H   0  0  0  0  0  0  0  0  0  0  0  0
   -0.5067    1.4989    0.9502 C   0  0  0  0  0  0  0  0  0  0  0  0
   -1.1875    1.3831    1.9618 O   0  0  0  0  0  0  0  0  0  0  0  0
    0.0295    2.7473    0.6782 N   0  0  0  0  0  0  0  0  0  0  0  0
    0.5906    2.8443   -0.1616 H   0  0  0  0  0  0  0  0  0  0  0  0
   -0.0742    3.8824    1.5886 C   0  0  0  0  0  0  0  0  0  0  0  0
    0.3929    3.6458    2.5505 H   0  0  0  0  0  0  0  0  0  0  0  0
    0.4307    4.7556    1.1642 H   0  0  0  0  0  0  0  0  0  0  0  0
   -1.1242    4.1416    1.7612 H   0  0  0  0  0  0  0  0  0  0  0  0
  1  2  1  0  0  0  0
  2  3  1  0  0  0  0
  2  4  1  0  0  0  0
  2  5  1  0  0  0  0
  5  6  2  0  0  0  0
  5  7  1  0  0  0  0
  7  8  1  0  0  0  0
  7  9  1  0  0  0  0
  9 10  1  0  0  0  0
  9 11  1  0  0  0  0
  9 22  1  0  0  0  0
 11 12  1  0  0  0  0
 11 13  1  0  0  0  0
 11 14  1  0  0  0  0
 14 15  1  0  0  0  0
 14 16  1  0  0  0  0
 14 17  1  0  0  0  0
 17 18  1  0  0  0  0
 18 19  1  0  0  0  0
 18 20  1  0  0  0  0
 18 21  1  0  0  0  0
 22 23  2  0  0  0  0
 22 24  1  0  0  0  0
 24 25  1  0  0  0  0
 24 26  1  0  0  0  0
 26 27  1  0  0  0  0
 26 28  1  0  0  0  0
 26 29  1  0  0  0  0
M  END
$$$$

  -OEChem-01062216093D

 29 28  0     1  0  0  0  0  0999 V2000
   -3.4005   -3.0384    1.1136 H   0  0  0  0  0  0  0  0  0  0  0  0
   -3.4010   -2.0528    0.6398 C   0  0  0  0  0  0  0  0  0  0  0  0
   -3.9252   -1.3504    1.2924 H   0  0  0  0  0  0  0  0  0  0  0  0
   -3.9285   -2.1205   -0.3144 H   0  0  0  0  0  0  0  0  0  0  0  0
   -1.9767   -1.5829    0.4124 C   0  0  0  0  0  0  0  0  0  0  0  0
   -1.0480   -2.3140    0.7126 O   0  0  0  0  0  0  0  0  0  0  0  0
   -1.7581   -0.3420   -0.1550 N   0  0  0  0  0  0  0  0  0  0  0  0
   -2.5844    0.2449   -0.2119 H   0  0  0  0  0  0  0  0  0  0  0  0
   -0.4552    0.3465   -0.0826 C   0  0  1  0  0  0  0  0  0  0  0  0
    0.3288   -0.3313    0.2718 H   0  0  0  0  0  0  0  0  0  0  0  0
   -0.0855    0.8263   -1.5045 C   0  0  0  0  0  0  0  0  0  0  0  0
   -0.8940    1.4516   -1.8971 H   0  0  0  0  0  0  0  0  0  0  0  0
    0.8174    1.4415   -1.4570 H   0  0  0  0  0  0  0  0  0  0  0  0
    0.1752   -0.3238   -2.4895 C   0  0  0  0  0  0  0  0  0  0  0  0
   -0.7233   -0.9438   -2.5728 H   0  0  0  0  0  0  0  0  0  0  0  0
    0.3853    0.0854   -3.4825 H   0  0  0  0  0  0  0  0  0  0  0  0
    1.5809   -1.3919   -1.9693 S   0  0  0  0  0  0  0  0  0  0  0  0
    3.0506   -0.3114   -2.1804 C   0  0  0  0  0  0  0  0  0  0  0  0
    3.0095    0.5321   -1.4861 H   0  0  0  0  0  0  0  0  0  0  0  0
    3.9624   -0.8815   -1.9784 H   0  0  0  0  0  0  0  0  0  0  0  0
    3.0968    0.0722   -3.2038 H   0  0  0  0  0  0  0  0  0  0  0  0
   -0.5105    1.5050    0.9451 C   0  0  0  0  0  0  0  0  0  0  0  0
   -0.9361    1.2981    2.0734 O   0  0  0  0  0  0  0  0  0  0  0  0
   -0.2688    2.8195    0.5795 N   0  0  0  0  0  0  0  0  0  0  0  0
    0.0575    2.9929   -0.3656 H   0  0  0  0  0  0  0  0  0  0  0  0
   -0.3937    3.9443    1.4999 C   0  0  0  0  0  0  0  0  0  0  0  0
    0.2918    3.8252    2.3457 H   0  0  0  0  0  0  0  0  0  0  0  0
   -0.1527    4.8811    0.9886 H   0  0  0  0  0  0  0  0  0  0  0  0
   -1.4170    4.0144    1.8836 H   0  0  0  0  0  0  0  0  0  0  0  0
  1  2  1  0  0  0  0
  2  3  1  0  0  0  0
  2  4  1  0  0  0  0
  2  5  1  0  0  0  0
  5  6  2  0  0  0  0
  5  7  1  0  0  0  0
  7  8  1  0  0  0  0
  7  9  1  0  0  0  0
  9 10  1  0  0  0  0
  9 11  1  0  0  0  0
  9 22  1  0  0  0  0
 11 12  1  0  0  0  0
 11 13  1  0  0  0  0
 11 14  1  0  0  0  0
 14 15  1  0  0  0  0
 14 16  1  0  0  0  0
 14 17  1  0  0  0  0
 17 18  1  0  0  0  0
 18 19  1  0  0  0  0
 18 20  1  0  0  0  0
 18 21  1  0  0  0  0
 22 23  2  0  0  0  0
 22 24  1  0  0  0  0
 24 25  1  0  0  0  0
 24 26  1  0  0  0  0
 26 27  1  0  0  0  0
 26 28  1  0  0  0  0
 26 29  1  0  0  0  0
M  END
$$$$

  -OEChem-01062216093D

 29 28  0     1  0  0  0  0  0999 V2000
   -3.4061   -3.0560    1.0993 H   0  0  0  0  0  0  0  0  0  0  0  0
   -3.4065   -2.0715    0.6227 C   0  0  0  0  0  0  0  0  0  0  0  0
   -3.9532   -1.3734    1.2613 H   0  0  0  0  0  0  0  0  0  0  0  0
   -3.9113   -2.1475   -0.3431 H   0  0  0  0  0  0  0  0  0  0  0  0
   -1.9826   -1.5873    0.4259 C   0  0  0  0  0  0  0  0  0  0  0  0
   -1.0541   -2.3088    0.7468 O   0  0  0  0  0  0  0  0  0  0  0  0
   -1.7646   -0.3467   -0.1428 N   0  0  0  0  0  0  0  0  0  0  0  0
   -2.5948    0.2281   -0.2436 H   0  0  0  0  0  0  0  0  0  0  0  0
   -0.4653    0.3477   -0.0746 C   0  0  1  0  0  0  0  0  0  0  0  0
    0.3208   -0.3278    0.2802 H   0  0  0  0  0  0  0  0  0  0  0  0
   -0.0943    0.8290   -1.4948 C   0  0  0  0  0  0  0  0  0  0  0  0
   -0.9060    1.4465   -1.8921 H   0  0  0  0  0  0  0  0  0  0  0  0
    0.8023    1.4537   -1.4402 H   0  0  0  0  0  0  0  0  0  0  0  0
    0.1736   -0.3192   -2.4800 C   0  0  0  0  0  0  0  0  0  0  0  0
   -0.7218   -0.9431   -2.5661 H   0  0  0  0  0  0  0  0  0  0  0  0
    0.3847    0.0918   -3.4719 H   0  0  0  0  0  0  0  0  0  0  0  0
    1.5820   -1.3812   -1.9570 S   0  0  0  0  0  0  0  0  0  0  0  0
    3.0454   -0.2917   -2.1645 C   0  0  0  0  0  0  0  0  0  0  0  0
    2.9956    0.5531   -1.4721 H   0  0  0  0  0  0  0  0  0  0  0  0
    3.9601   -0.8552   -1.9573 H   0  0  0  0  0  0  0  0  0  0  0  0
    3.0933    0.0899   -3.1886 H   0  0  0  0  0  0  0  0  0  0  0  0
   -0.5176    1.5081    0.9477 C   0  0  0  0  0  0  0  0  0  0  0  0
   -0.6575    1.2700    2.1385 O   0  0  0  0  0  0  0  0  0  0  0  0
   -0.5860    2.8299    0.5379 N   0  0  0  0  0  0  0  0  0  0  0  0
   -0.4799    3.0209   -0.4531 H   0  0  0  0  0  0  0  0  0  0  0  0
   -0.7144    3.9503    1.4628 C   0  0  0  0  0  0  0  0  0  0  0  0
    0.1439    3.9865    2.1422 H   0  0  0  0  0  0  0  0  0  0  0  0
   -0.7592    4.8940    0.9108 H   0  0  0  0  0  0  0  0  0  0  0  0
   -1.6295    3.8547    2.0568 H   0  0  0  0  0  0  0  0  0  0  0  0
  1  2  1  0  0  0  0
  2  3  1  0  0  0  0
  2  4  1  0  0  0  0
  2  5  1  0  0  0  0
  5  6  2  0  0  0  0
  5  7  1  0  0  0  0
  7  8  1  0  0  0  0
  7  9  1  0  0  0  0
  9 10  1  0  0  0  0
  9 11  1  0  0  0  0
  9 22  1  0  0  0  0
 11 12  1  0  0  0  0
 11 13  1  0  0  0  0
 11 14  1  0  0  0  0
 14 15  1  0  0  0  0
 14 16  1  0  0  0  0
 14 17  1  0  0  0  0
 17 18  1  0  0  0  0
 18 19  1  0  0  0  0
 18 20  1  0  0  0  0
 18 21  1  0  0  0  0
 22 23  2  0  0  0  0
 22 24  1  0  0  0  0
 24 25  1  0  0  0  0
 24 26  1  0  0  0  0
 26 27  1  0  0  0  0
 26 28  1  0  0  0  0
 26 29  1  0  0  0  0
M  END
$$$$

  -OEChem-01062216093D

 29 28  0     1  0  0  0  0  0999 V2000
   -3.4214   -3.0884    1.0704 H   0  0  0  0  0  0  0  0  0  0  0  0
   -3.4177   -2.1069    0.5878 C   0  0  0  0  0  0  0  0  0  0  0  0
   -4.0036   -1.4149    1.1974 H   0  0  0  0  0  0  0  0  0  0  0  0
   -3.8790   -2.1978   -0.3983 H   0  0  0  0  0  0  0  0  0  0  0  0
   -1.9948   -1.5995    0.4495 C   0  0  0  0  0  0  0  0  0  0  0  0
   -1.0704   -2.3002    0.8221 O   0  0  0  0  0  0  0  0  0  0  0  0
   -1.7730   -0.3601   -0.1204 N   0  0  0  0  0  0  0  0  0  0  0  0
   -2.6050    0.1956   -0.2877 H   0  0  0  0  0  0  0  0  0  0  0  0
   -0.4777    0.3429   -0.0569 C   0  0  1  0  0  0  0  0  0  0  0  0
    0.3120   -0.3306    0.2947 H   0  0  0  0  0  0  0  0  0  0  0  0
   -0.1087    0.8317   -1.4742 C   0  0  0  0  0  0  0  0  0  0  0  0
   -0.9229    1.4446   -1.8722 H   0  0  0  0  0  0  0  0  0  0  0  0
    0.7820    1.4646   -1.4134 H   0  0  0  0  0  0  0  0  0  0  0  0
    0.1668   -0.3100   -2.4647 C   0  0  0  0  0  0  0  0  0  0  0  0
   -0.7246   -0.9387   -2.5544 H   0  0  0  0  0  0  0  0  0  0  0  0
    0.3768    0.1070   -3.4545 H   0  0  0  0  0  0  0  0  0  0  0  0
    1.5808   -1.3659   -1.9459 S   0  0  0  0  0  0  0  0  0  0  0  0
    3.0341   -0.2620   -2.1486 C   0  0  0  0  0  0  0  0  0  0  0  0
    2.9757    0.5801   -1.4535 H   0  0  0  0  0  0  0  0  0  0  0  0
    3.9541   -0.8172   -1.9428 H   0  0  0  0  0  0  0  0  0  0  0  0
    3.0787    0.1235   -3.1713 H   0  0  0  0  0  0  0  0  0  0  0  0
   -0.5273    1.5079    0.9579 C   0  0  0  0  0  0  0  0  0  0  0  0
   -0.3341    1.3041    2.1469 O   0  0  0  0  0  0  0  0  0  0  0  0
   -0.9068    2.7811    0.5643 N   0  0  0  0  0  0  0  0  0  0  0  0
   -1.0512    2.9432   -0.4268 H   0  0  0  0  0  0  0  0  0  0  0  0
   -1.0067    3.9073    1.4858 C   0  0  0  0  0  0  0  0  0  0  0  0
   -0.0328    4.1178    1.9405 H   0  0  0  0  0  0  0  0  0  0  0  0
   -1.3418    4.8030    0.9543 H   0  0  0  0  0  0  0  0  0  0  0  0
   -1.7269    3.6889    2.2817 H   0  0  0  0  0  0  0  0  0  0  0  0
  1  2  1  0  0  0  0
  2  3  1  0  0  0  0
  2  4  1  0  0  0  0
  2  5  1  0  0  0  0
  5  6  2  0  0  0  0
  5  7  1  0  0  0  0
  7  8  1  0  0  0  0
  7  9  1  0  0  0  0
  9 10  1  0  0  0  0
  9 11  1  0  0  0  0
  9 22  1  0  0  0  0
 11 12  1  0  0  0  0
 11 13  1  0  0  0  0
 11 14  1  0  0  0  0
 14 15  1  0  0  0  0
 14 16  1  0  0  0  0
 14 17  1  0  0  0  0
 17 18  1  0  0  0  0
 18 19  1  0  0  0  0
 18 20  1  0  0  0  0
 18 21  1  0  0  0  0
 22 23  2  0  0  0  0
 22 24  1  0  0  0  0
 24 25  1  0  0  0  0
 24 26  1  0  0  0  0
 26 27  1  0  0  0  0
 26 28  1  0  0  0  0
 26 29  1  0  0  0  0
M  END
$$$$

  -OEChem-01062216093D

 29 28  0     1  0  0  0  0  0999 V2000
   -3.4357   -3.1392    1.0379 H   0  0  0  0  0  0  0  0  0  0  0  0
   -3.4234   -2.1762    0.5192 C   0  0  0  0  0  0  0  0  0  0  0  0
   -4.0883   -1.4868    1.0449 H   0  0  0  0  0  0  0  0  0  0  0  0
   -3.7885   -2.3217   -0.5003 H   0  0  0  0  0  0  0  0  0  0  0  0
   -2.0129   -1.6178    0.4910 C   0  0  0  0  0  0  0  0  0  0  0  0
   -1.1006   -2.2715    0.9636 O   0  0  0  0  0  0  0  0  0  0  0  0
   -1.7877   -0.3791   -0.0793 N   0  0  0  0  0  0  0  0  0  0  0  0
   -2.6132    0.1359   -0.3652 H   0  0  0  0  0  0  0  0  0  0  0  0
   -0.4963    0.3333   -0.0236 C   0  0  1  0  0  0  0  0  0  0  0  0
    0.2978   -0.3402    0.3185 H   0  0  0  0  0  0  0  0  0  0  0  0
   -0.1365    0.8378   -1.4366 C   0  0  0  0  0  0  0  0  0  0  0  0
   -0.9542    1.4527   -1.8246 H   0  0  0  0  0  0  0  0  0  0  0  0
    0.7507    1.4752   -1.3710 H   0  0  0  0  0  0  0  0  0  0  0  0
    0.1418   -0.2914   -2.4403 C   0  0  0  0  0  0  0  0  0  0  0  0
   -0.7464   -0.9239   -2.5352 H   0  0  0  0  0  0  0  0  0  0  0  0
    0.3470    0.1389   -3.4254 H   0  0  0  0  0  0  0  0  0  0  0  0
    1.5642   -1.3444   -1.9384 S   0  0  0  0  0  0  0  0  0  0  0  0
    3.0107   -0.2296   -2.1349 C   0  0  0  0  0  0  0  0  0  0  0  0
    2.9526    0.6019   -1.4269 H   0  0  0  0  0  0  0  0  0  0  0  0
    3.9353   -0.7824   -1.9434 H   0  0  0  0  0  0  0  0  0  0  0  0
    3.0465    0.1714   -3.1520 H   0  0  0  0  0  0  0  0  0  0  0  0
   -0.5350    1.5034    0.9841 C   0  0  0  0  0  0  0  0  0  0  0  0
    0.0246    1.4173    2.0668 O   0  0  0  0  0  0  0  0  0  0  0  0
   -1.2017    2.6782    0.6754 N   0  0  0  0  0  0  0  0  0  0  0  0
   -1.6230    2.7529   -0.2441 H   0  0  0  0  0  0  0  0  0  0  0  0
   -1.2382    3.8327    1.5659 C   0  0  0  0  0  0  0  0  0  0  0  0
   -0.2237    4.1917    1.7695 H   0  0  0  0  0  0  0  0  0  0  0  0
   -1.8076    4.6473    1.1081 H   0  0  0  0  0  0  0  0  0  0  0  0
   -1.7152    3.5689    2.5159 H   0  0  0  0  0  0  0  0  0  0  0  0
  1  2  1  0  0  0  0
  2  3  1  0  0  0  0
  2  4  1  0  0  0  0
  2  5  1  0  0  0  0
  5  6  2  0  0  0  0
  5  7  1  0  0  0  0
  7  8  1  0  0  0  0
  7  9  1  0  0  0  0
  9 10  1  0  0  0  0
  9 11  1  0  0  0  0
  9 22  1  0  0  0  0
 11 12  1  0  0  0  0
 11 13  1  0  0  0  0
 11 14  1  0  0  0  0
 14 15  1  0  0  0  0
 14 16  1  0  0  0  0
 14 17  1  0  0  0  0
 17 18  1  0  0  0  0
 18 19  1  0  0  0  0
 18 20  1  0  0  0  0
 18 21  1  0  0  0  0
 22 23  2  0  0  0  0
 22 24  1  0  0  0  0
 24 25  1  0  0  0  0
 24 26  1  0  0  0  0
 26 27  1  0  0  0  0
 26 28  1  0  0  0  0
 26 29  1  0  0  0  0
M  END
$$$$

  -OEChem-01062216093D

 29 28  0     1  0  0  0  0  0999 V2000
   -3.3910   -3.2387    0.8925 H   0  0  0  0  0  0  0  0  0  0  0  0
   -3.3832   -2.2674    0.3896 C   0  0  0  0  0  0  0  0  0  0  0  0
   -4.1749   -1.6456    0.8142 H   0  0  0  0  0  0  0  0  0  0  0  0
   -3.5784   -2.4221   -0.6741 H   0  0  0  0  0  0  0  0  0  0  0  0
   -2.0370   -1.5938    0.5786 C   0  0  0  0  0  0  0  0  0  0  0  0
   -1.1792   -2.1418    1.2465 O   0  0  0  0  0  0  0  0  0  0  0  0
   -1.8076   -0.3627   -0.0049 N   0  0  0  0  0  0  0  0  0  0  0  0
   -2.5564    0.0143   -0.5745 H   0  0  0  0  0  0  0  0  0  0  0  0
   -0.5105    0.3416    0.0270 C   0  0  1  0  0  0  0  0  0  0  0  0
    0.2824   -0.3398    0.3568 H   0  0  0  0  0  0  0  0  0  0  0  0
   -0.1673    0.8488   -1.3876 C   0  0  0  0  0  0  0  0  0  0  0  0
   -0.9823    1.4777   -1.7582 H   0  0  0  0  0  0  0  0  0  0  0  0
    0.7275    1.4768   -1.3304 H   0  0  0  0  0  0  0  0  0  0  0  0
    0.0869   -0.2792   -2.3993 C   0  0  0  0  0  0  0  0  0  0  0  0
   -0.8079   -0.9029   -2.4868 H   0  0  0  0  0  0  0  0  0  0  0  0
    0.2836    0.1543   -3.3848 H   0  0  0  0  0  0  0  0  0  0  0  0
    1.5060   -1.3478   -1.9235 S   0  0  0  0  0  0  0  0  0  0  0  0
    2.9599   -0.2460   -2.1362 C   0  0  0  0  0  0  0  0  0  0  0  0
    2.9201    0.5828   -1.4236 H   0  0  0  0  0  0  0  0  0  0  0  0
    3.8817   -0.8086   -1.9608 H   0  0  0  0  0  0  0  0  0  0  0  0
    2.9852    0.1598   -3.1517 H   0  0  0  0  0  0  0  0  0  0  0  0
   -0.5137    1.5229    1.0211 C   0  0  0  0  0  0  0  0  0  0  0  0
    0.3648    1.6292    1.8644 O   0  0  0  0  0  0  0  0  0  0  0  0
   -1.4095    2.5676    0.8635 N   0  0  0  0  0  0  0  0  0  0  0  0
   -2.1357    2.4600    0.1647 H   0  0  0  0  0  0  0  0  0  0  0  0
   -1.4257    3.7432    1.7262 C   0  0  0  0  0  0  0  0  0  0  0  0
   -0.4688    4.2729    1.6697 H   0  0  0  0  0  0  0  0  0  0  0  0
   -2.2188    4.4305    1.4163 H   0  0  0  0  0  0  0  0  0  0  0  0
   -1.6063    3.4526    2.7667 H   0  0  0  0  0  0  0  0  0  0  0  0
  1  2  1  0  0  0  0
  2  3  1  0  0  0  0
  2  4  1  0  0  0  0
  2  5  1  0  0  0  0
  5  6  2  0  0  0  0
  5  7  1  0  0  0  0
  7  8  1  0  0  0  0
  7  9  1  0  0  0  0
  9 10  1  0  0  0  0
  9 11  1  0  0  0  0
  9 22  1  0  0  0  0
 11 12  1  0  0  0  0
 11 13  1  0  0  0  0
 11 14  1  0  0  0  0
 14 15  1  0  0  0  0
 14 16  1  0  0  0  0
 14 17  1  0  0  0  0
 17 18  1  0  0  0  0
 18 19  1  0  0  0  0
 18 20  1  0  0  0  0
 18 21  1  0  0  0  0
 22 23  2  0  0  0  0
 22 24  1  0  0  0  0
 24 25  1  0  0  0  0
 24 26  1  0  0  0  0
 26 27  1  0  0  0  0
 26 28  1  0  0  0  0
 26 29  1  0  0  0  0
M  END
$$$$

  -OEChem-01062216093D

 29 28  0     1  0  0  0  0  0999 V2000
   -3.3328   -3.2932    0.8198 H   0  0  0  0  0  0  0  0  0  0  0  0
   -3.3424   -2.3197    0.3213 C   0  0  0  0  0  0  0  0  0  0  0  0
   -4.1990   -1.7471    0.6845 H   0  0  0  0  0  0  0  0  0  0  0  0
   -3.4459   -2.4788   -0.7546 H   0  0  0  0  0  0  0  0  0  0  0  0
   -2.0558   -1.5715    0.6154 C   0  0  0  0  0  0  0  0  0  0  0  0
   -1.2483   -2.0435    1.3952 O   0  0  0  0  0  0  0  0  0  0  0  0
   -1.8300   -0.3458    0.0191 N   0  0  0  0  0  0  0  0  0  0  0  0
   -2.5015   -0.0674   -0.6881 H   0  0  0  0  0  0  0  0  0  0  0  0
   -0.5240    0.3434    0.0482 C   0  0  1  0  0  0  0  0  0  0  0  0
    0.2625   -0.3470    0.3739 H   0  0  0  0  0  0  0  0  0  0  0  0
   -0.1823    0.8554   -1.3643 C   0  0  0  0  0  0  0  0  0  0  0  0
   -0.9921    1.4984   -1.7229 H   0  0  0  0  0  0  0  0  0  0  0  0
    0.7194    1.4737   -1.3084 H   0  0  0  0  0  0  0  0  0  0  0  0
    0.0537   -0.2663   -2.3867 C   0  0  0  0  0  0  0  0  0  0  0  0
   -0.8481   -0.8790   -2.4773 H   0  0  0  0  0  0  0  0  0  0  0  0
    0.2523    0.1748   -3.3685 H   0  0  0  0  0  0  0  0  0  0  0  0
    1.4635   -1.3527   -1.9233 S   0  0  0  0  0  0  0  0  0  0  0  0
    2.9257   -0.2609   -2.1341 C   0  0  0  0  0  0  0  0  0  0  0  0
    2.8959    0.5619   -1.4137 H   0  0  0  0  0  0  0  0  0  0  0  0
    3.8441   -0.8320   -1.9685 H   0  0  0  0  0  0  0  0  0  0  0  0
    2.9492    0.1541   -3.1459 H   0  0  0  0  0  0  0  0  0  0  0  0
   -0.5029    1.5303    1.0335 C   0  0  0  0  0  0  0  0  0  0  0  0
    0.5248    1.8137    1.6329 O   0  0  0  0  0  0  0  0  0  0  0  0
   -1.5599    2.4235    1.0687 N   0  0  0  0  0  0  0  0  0  0  0  0
   -2.4228    2.1238    0.6287 H   0  0  0  0  0  0  0  0  0  0  0  0
   -1.5846    3.5891    1.9445 C   0  0  0  0  0  0  0  0  0  0  0  0
   -0.7312    4.2436    1.7366 H   0  0  0  0  0  0  0  0  0  0  0  0
   -2.5033    4.1621    1.7865 H   0  0  0  0  0  0  0  0  0  0  0  0
   -1.5432    3.2799    2.9943 H   0  0  0  0  0  0  0  0  0  0  0  0
  1  2  1  0  0  0  0
  2  3  1  0  0  0  0
  2  4  1  0  0  0  0
  2  5  1  0  0  0  0
  5  6  2  0  0  0  0
  5  7  1  0  0  0  0
  7  8  1  0  0  0  0
  7  9  1  0  0  0  0
  9 10  1  0  0  0  0
  9 11  1  0  0  0  0
  9 22  1  0  0  0  0
 11 12  1  0  0  0  0
 11 13  1  0  0  0  0
 11 14  1  0  0  0  0
 14 15  1  0  0  0  0
 14 16  1  0  0  0  0
 14 17  1  0  0  0  0
 17 18  1  0  0  0  0
 18 19  1  0  0  0  0
 18 20  1  0  0  0  0
 18 21  1  0  0  0  0
 22 23  2  0  0  0  0
 22 24  1  0  0  0  0
 24 25  1  0  0  0  0
 24 26  1  0  0  0  0
 26 27  1  0  0  0  0
 26 28  1  0  0  0  0
 26 29  1  0  0  0  0
M  END
$$$$

  -OEChem-01062216093D

 29 28  0     1  0  0  0  0  0999 V2000
   -3.3139   -3.3048    0.7971 H   0  0  0  0  0  0  0  0  0  0  0  0
   -3.3190   -2.3415    0.2789 C   0  0  0  0  0  0  0  0  0  0  0  0
   -4.2029   -1.7795    0.5895 H   0  0  0  0  0  0  0  0  0  0  0  0
   -3.3680   -2.5235   -0.7972 H   0  0  0  0  0  0  0  0  0  0  0  0
   -2.0626   -1.5620    0.6180 C   0  0  0  0  0  0  0  0  0  0  0  0
   -1.2809   -2.0031    1.4410 O   0  0  0  0  0  0  0  0  0  0  0  0
   -1.8369   -0.3364    0.0221 N   0  0  0  0  0  0  0  0  0  0  0  0
   -2.4802   -0.0820   -0.7202 H   0  0  0  0  0  0  0  0  0  0  0  0
   -0.5265    0.3450    0.0583 C   0  0  1  0  0  0  0  0  0  0  0  0
    0.2574   -0.3494    0.3821 H   0  0  0  0  0  0  0  0  0  0  0  0
   -0.1886    0.8590   -1.3544 C   0  0  0  0  0  0  0  0  0  0  0  0
   -0.9966    1.5085   -1.7055 H   0  0  0  0  0  0  0  0  0  0  0  0
    0.7173    1.4715   -1.3028 H   0  0  0  0  0  0  0  0  0  0  0  0
    0.0374   -0.2623   -2.3798 C   0  0  0  0  0  0  0  0  0  0  0  0
   -0.8680   -0.8697   -2.4690 H   0  0  0  0  0  0  0  0  0  0  0  0
    0.2342    0.1801   -3.3614 H   0  0  0  0  0  0  0  0  0  0  0  0
    1.4435   -1.3571   -1.9251 S   0  0  0  0  0  0  0  0  0  0  0  0
    2.9117   -0.2744   -2.1398 C   0  0  0  0  0  0  0  0  0  0  0  0
    2.8877    0.5502   -1.4214 H   0  0  0  0  0  0  0  0  0  0  0  0
    3.8269   -0.8503   -1.9738 H   0  0  0  0  0  0  0  0  0  0  0  0
    2.9364    0.1380   -3.1526 H   0  0  0  0  0  0  0  0  0  0  0  0
   -0.4977    1.5310    1.0454 C   0  0  0  0  0  0  0  0  0  0  0  0
    0.5723    1.9746    1.4396 O   0  0  0  0  0  0  0  0  0  0  0  0
   -1.6530    2.2465    1.3062 N   0  0  0  0  0  0  0  0  0  0  0  0
   -2.5246    1.7919    1.0555 H   0  0  0  0  0  0  0  0  0  0  0  0
   -1.6906    3.3907    2.2087 C   0  0  0  0  0  0  0  0  0  0  0  0
   -1.0112    4.1762    1.8613 H   0  0  0  0  0  0  0  0  0  0  0  0
   -2.7019    3.8059    2.2514 H   0  0  0  0  0  0  0  0  0  0  0  0
   -1.3944    3.0911    3.2194 H   0  0  0  0  0  0  0  0  0  0  0  0
  1  2  1  0  0  0  0
  2  3  1  0  0  0  0
  2  4  1  0  0  0  0
  2  5  1  0  0  0  0
  5  6  2  0  0  0  0
  5  7  1  0  0  0  0
  7  8  1  0  0  0  0
  7  9  1  0  0  0  0
  9 10  1  0  0  0  0
  9 11  1  0  0  0  0
  9 22  1  0  0  0  0
 11 12  1  0  0  0  0
 11 13  1  0  0  0  0
 11 14  1  0  0  0  0
 14 15  1  0  0  0  0
 14 16  1  0  0  0  0
 14 17  1  0  0  0  0
 17 18  1  0  0  0  0
 18 19  1  0  0  0  0
 18 20  1  0  0  0  0
 18 21  1  0  0  0  0
 22 23  2  0  0  0  0
 22 24  1  0  0  0  0
 24 25  1  0  0  0  0
 24 26  1  0  0  0  0
 26 27  1  0  0  0  0
 26 28  1  0  0  0  0
 26 29  1  0  0  0  0
M  END
$$$$

  -OEChem-01062216093D

 29 28  0     1  0  0  0  0  0999 V2000
   -3.3070   -3.3089    0.7696 H   0  0  0  0  0  0  0  0  0  0  0  0
   -3.3179   -2.3393    0.2633 C   0  0  0  0  0  0  0  0  0  0  0  0
   -4.2040   -1.7858    0.5822 H   0  0  0  0  0  0  0  0  0  0  0  0
   -3.3684   -2.5084   -0.8148 H   0  0  0  0  0  0  0  0  0  0  0  0
   -2.0644   -1.5580    0.6094 C   0  0  0  0  0  0  0  0  0  0  0  0
   -1.2906   -1.9921    1.4437 O   0  0  0  0  0  0  0  0  0  0  0  0
   -1.8353   -0.3320    0.0160 N   0  0  0  0  0  0  0  0  0  0  0  0
   -2.4801   -0.0687   -0.7223 H   0  0  0  0  0  0  0  0  0  0  0  0
   -0.5241    0.3496    0.0559 C   0  0  1  0  0  0  0  0  0  0  0  0
    0.2591   -0.3440    0.3817 H   0  0  0  0  0  0  0  0  0  0  0  0
   -0.1884    0.8560   -1.3616 C   0  0  0  0  0  0  0  0  0  0  0  0
   -0.9973    1.5033   -1.7149 H   0  0  0  0  0  0  0  0  0  0  0  0
    0.7172    1.4694   -1.3188 H   0  0  0  0  0  0  0  0  0  0  0  0
    0.0374   -0.2713   -2.3804 C   0  0  0  0  0  0  0  0  0  0  0  0
   -0.8674   -0.8803   -2.4648 H   0  0  0  0  0  0  0  0  0  0  0  0
    0.2331    0.1651   -3.3651 H   0  0  0  0  0  0  0  0  0  0  0  0
    1.4457   -1.3613   -1.9195 S   0  0  0  0  0  0  0  0  0  0  0  0
    2.9112   -0.2764   -2.1432 C   0  0  0  0  0  0  0  0  0  0  0  0
    2.8868    0.5524   -1.4295 H   0  0  0  0  0  0  0  0  0  0  0  0
    3.8279   -0.8497   -1.9758 H   0  0  0  0  0  0  0  0  0  0  0  0
    2.9330    0.1303   -3.1583 H   0  0  0  0  0  0  0  0  0  0  0  0
   -0.4952    1.5360    1.0447 C   0  0  0  0  0  0  0  0  0  0  0  0
    0.5526    2.1294    1.2647 O   0  0  0  0  0  0  0  0  0  0  0  0
   -1.6754    2.0563    1.5447 N   0  0  0  0  0  0  0  0  0  0  0  0
   -2.4944    1.4650    1.4452 H   0  0  0  0  0  0  0  0  0  0  0  0
   -1.7169    3.1607    2.4952 C   0  0  0  0  0  0  0  0  0  0  0  0
   -1.2375    4.0493    2.0712 H   0  0  0  0  0  0  0  0  0  0  0  0
   -2.7536    3.4125    2.7378 H   0  0  0  0  0  0  0  0  0  0  0  0
   -1.1989    2.8887    3.4208 H   0  0  0  0  0  0  0  0  0  0  0  0
  1  2  1  0  0  0  0
  2  3  1  0  0  0  0
  2  4  1  0  0  0  0
  2  5  1  0  0  0  0
  5  6  2  0  0  0  0
  5  7  1  0  0  0  0
  7  8  1  0  0  0  0
  7  9  1  0  0  0  0
  9 10  1  0  0  0  0
  9 11  1  0  0  0  0
  9 22  1  0  0  0  0
 11 12  1  0  0  0  0
 11 13  1  0  0  0  0
 11 14  1  0  0  0  0
 14 15  1  0  0  0  0
 14 16  1  0  0  0  0
 14 17  1  0  0  0  0
 17 18  1  0  0  0  0
 18 19  1  0  0  0  0
 18 20  1  0  0  0  0
 18 21  1  0  0  0  0
 22 23  2  0  0  0  0
 22 24  1  0  0  0  0
 24 25  1  0  0  0  0
 24 26  1  0  0  0  0
 26 27  1  0  0  0  0
 26 28  1  0  0  0  0
 26 29  1  0  0  0  0
M  END
$$$$

  -OEChem-01062216093D

 29 28  0     1  0  0  0  0  0999 V2000
   -3.3054   -3.3019    0.7483 H   0  0  0  0  0  0  0  0  0  0  0  0
   -3.3142   -2.3305    0.2455 C   0  0  0  0  0  0  0  0  0  0  0  0
   -4.2026   -1.7785    0.5614 H   0  0  0  0  0  0  0  0  0  0  0  0
   -3.3589   -2.4959   -0.8337 H   0  0  0  0  0  0  0  0  0  0  0  0
   -2.0631   -1.5495    0.5998 C   0  0  0  0  0  0  0  0  0  0  0  0
   -1.2974   -1.9781    1.4444 O   0  0  0  0  0  0  0  0  0  0  0  0
   -1.8312   -0.3221    0.0118 N   0  0  0  0  0  0  0  0  0  0  0  0
   -2.4833   -0.0441   -0.7150 H   0  0  0  0  0  0  0  0  0  0  0  0
   -0.5205    0.3603    0.0538 C   0  0  1  0  0  0  0  0  0  0  0  0
    0.2621   -0.3325    0.3819 H   0  0  0  0  0  0  0  0  0  0  0  0
   -0.1887    0.8541   -1.3706 C   0  0  0  0  0  0  0  0  0  0  0  0
   -0.9998    1.4965   -1.7276 H   0  0  0  0  0  0  0  0  0  0  0  0
    0.7165    1.4685   -1.3396 H   0  0  0  0  0  0  0  0  0  0  0  0
    0.0366   -0.2841   -2.3778 C   0  0  0  0  0  0  0  0  0  0  0  0
   -0.8677   -0.8950   -2.4542 H   0  0  0  0  0  0  0  0  0  0  0  0
    0.2296    0.1424   -3.3671 H   0  0  0  0  0  0  0  0  0  0  0  0
    1.4477   -1.3672   -1.9089 S   0  0  0  0  0  0  0  0  0  0  0  0
    2.9091   -0.2808   -2.1491 C   0  0  0  0  0  0  0  0  0  0  0  0
    2.8848    0.5551   -1.4437 H   0  0  0  0  0  0  0  0  0  0  0  0
    3.8281   -0.8497   -1.9797 H   0  0  0  0  0  0  0  0  0  0  0  0
    2.9252    0.1157   -3.1684 H   0  0  0  0  0  0  0  0  0  0  0  0
   -0.4959    1.5444    1.0484 C   0  0  0  0  0  0  0  0  0  0  0  0
    0.4791    2.2823    1.1137 O   0  0  0  0  0  0  0  0  0  0  0  0
   -1.6236    1.8629    1.7830 N   0  0  0  0  0  0  0  0  0  0  0  0
   -2.3473    1.1507    1.8061 H   0  0  0  0  0  0  0  0  0  0  0  0
   -1.6505    2.9265    2.7793 C   0  0  0  0  0  0  0  0  0  0  0  0
   -1.4018    3.8889    2.3196 H   0  0  0  0  0  0  0  0  0  0  0  0
   -2.6479    3.0049    3.2222 H   0  0  0  0  0  0  0  0  0  0  0  0
   -0.9303    2.7205    3.5780 H   0  0  0  0  0  0  0  0  0  0  0  0
  1  2  1  0  0  0  0
  2  3  1  0  0  0  0
  2  4  1  0  0  0  0
  2  5  1  0  0  0  0
  5  6  2  0  0  0  0
  5  7  1  0  0  0  0
  7  8  1  0  0  0  0
  7  9  1  0  0  0  0
  9 10  1  0  0  0  0
  9 11  1  0  0  0  0
  9 22  1  0  0  0  0
 11 12  1  0  0  0  0
 11 13  1  0  0  0  0
 11 14  1  0  0  0  0
 14 15  1  0  0  0  0
 14 16  1  0  0  0  0
 14 17  1  0  0  0  0
 17 18  1  0  0  0  0
 18 19  1  0  0  0  0
 18 20  1  0  0  0  0
 18 21  1  0  0  0  0
 22 23  2  0  0  0  0
 22 24  1  0  0  0  0
 24 25  1  0  0  0  0
 24 26  1  0  0  0  0
 26 27  1  0  0  0  0
 26 28  1  0  0  0  0
 26 29  1  0  0  0  0
M  END
$$$$

  -OEChem-01062216093D

 29 28  0     1  0  0  0  0  0999 V2000
   -3.3105   -3.2822    0.7470 H   0  0  0  0  0  0  0  0  0  0  0  0
   -3.3176   -2.3106    0.2447 C   0  0  0  0  0  0  0  0  0  0  0  0
   -4.2011   -1.7537    0.5659 H   0  0  0  0  0  0  0  0  0  0  0  0
   -3.3692   -2.4750   -0.8343 H   0  0  0  0  0  0  0  0  0  0  0  0
   -2.0605   -1.5366    0.5924 C   0  0  0  0  0  0  0  0  0  0  0  0
   -1.2985   -1.9608    1.4430 O   0  0  0  0  0  0  0  0  0  0  0  0
   -1.8256   -0.3077    0.0105 N   0  0  0  0  0  0  0  0  0  0  0  0
   -2.4909   -0.0093   -0.6960 H   0  0  0  0  0  0  0  0  0  0  0  0
   -0.5140    0.3721    0.0483 C   0  0  1  0  0  0  0  0  0  0  0  0
    0.2676   -0.3210    0.3766 H   0  0  0  0  0  0  0  0  0  0  0  0
   -0.1831    0.8556   -1.3811 C   0  0  0  0  0  0  0  0  0  0  0  0
   -0.9929    1.4976   -1.7414 H   0  0  0  0  0  0  0  0  0  0  0  0
    0.7242    1.4671   -1.3584 H   0  0  0  0  0  0  0  0  0  0  0  0
    0.0389   -0.2905   -2.3802 C   0  0  0  0  0  0  0  0  0  0  0  0
   -0.8666   -0.9004   -2.4516 H   0  0  0  0  0  0  0  0  0  0  0  0
    0.2317    0.1285   -3.3729 H   0  0  0  0  0  0  0  0  0  0  0  0
    1.4490   -1.3721   -1.9044 S   0  0  0  0  0  0  0  0  0  0  0  0
    2.9108   -0.2883   -2.1551 C   0  0  0  0  0  0  0  0  0  0  0  0
    2.8881    0.5528   -1.4560 H   0  0  0  0  0  0  0  0  0  0  0  0
    3.8299   -0.8563   -1.9833 H   0  0  0  0  0  0  0  0  0  0  0  0
    2.9255    0.1013   -3.1772 H   0  0  0  0  0  0  0  0  0  0  0  0
   -0.4955    1.5499    1.0529 C   0  0  0  0  0  0  0  0  0  0  0  0
    0.3489    2.4336    0.9760 O   0  0  0  0  0  0  0  0  0  0  0  0
   -1.4958    1.6660    2.0007 N   0  0  0  0  0  0  0  0  0  0  0  0
   -2.0753    0.8405    2.1277 H   0  0  0  0  0  0  0  0  0  0  0  0
   -1.5046    2.6977    3.0302 C   0  0  0  0  0  0  0  0  0  0  0  0
   -1.5120    3.6936    2.5749 H   0  0  0  0  0  0  0  0  0  0  0  0
   -2.3965    2.5992    3.6565 H   0  0  0  0  0  0  0  0  0  0  0  0
   -0.6195    2.6087    3.6689 H   0  0  0  0  0  0  0  0  0  0  0  0
  1  2  1  0  0  0  0
  2  3  1  0  0  0  0
  2  4  1  0  0  0  0
  2  5  1  0  0  0  0
  5  6  2  0  0  0  0
  5  7  1  0  0  0  0
  7  8  1  0  0  0  0
  7  9  1  0  0  0  0
  9 10  1  0  0  0  0
  9 11  1  0  0  0  0
  9 22  1  0  0  0  0
 11 12  1  0  0  0  0
 11 13  1  0  0  0  0
 11 14  1  0  0  0  0
 14 15  1  0  0  0  0
 14 16  1  0  0  0  0
 14 17  1  0  0  0  0
 17 18  1  0  0  0  0
 18 19  1  0  0  0  0
 18 20  1  0  0  0  0
 18 21  1  0  0  0  0
 22 23  2  0  0  0  0
 22 24  1  0  0  0  0
 24 25  1  0  0  0  0
 24 26  1  0  0  0  0
 26 27  1  0  0  0  0
 26 28  1  0  0  0  0
 26 29  1  0  0  0  0
M  END
$$$$

  -OEChem-01062216093D

 29 28  0     1  0  0  0  0  0999 V2000
   -3.3231   -3.2481    0.7787 H   0  0  0  0  0  0  0  0  0  0  0  0
   -3.3104   -2.2929    0.2458 C   0  0  0  0  0  0  0  0  0  0  0  0
   -4.1977   -1.7204    0.5264 H   0  0  0  0  0  0  0  0  0  0  0  0
   -3.3359   -2.4913   -0.8283 H   0  0  0  0  0  0  0  0  0  0  0  0
   -2.0572   -1.5150    0.5996 C   0  0  0  0  0  0  0  0  0  0  0  0
   -1.3047   -1.9254    1.4662 O   0  0  0  0  0  0  0  0  0  0  0  0
   -1.8202   -0.2864    0.0198 N   0  0  0  0  0  0  0  0  0  0  0  0
   -2.4905    0.0198   -0.6785 H   0  0  0  0  0  0  0  0  0  0  0  0
   -0.5054    0.3857    0.0479 C   0  0  1  0  0  0  0  0  0  0  0  0
    0.2751   -0.3101    0.3734 H   0  0  0  0  0  0  0  0  0  0  0  0
   -0.1772    0.8633   -1.3849 C   0  0  0  0  0  0  0  0  0  0  0  0
   -0.9845    1.5097   -1.7434 H   0  0  0  0  0  0  0  0  0  0  0  0
    0.7343    1.4685   -1.3667 H   0  0  0  0  0  0  0  0  0  0  0  0
    0.0340   -0.2867   -2.3819 C   0  0  0  0  0  0  0  0  0  0  0  0
   -0.8757   -0.8908   -2.4481 H   0  0  0  0  0  0  0  0  0  0  0  0
    0.2243    0.1288   -3.3766 H   0  0  0  0  0  0  0  0  0  0  0  0
    1.4397   -1.3762   -1.9102 S   0  0  0  0  0  0  0  0  0  0  0  0
    2.9092   -0.3042   -2.1693 C   0  0  0  0  0  0  0  0  0  0  0  0
    2.8871    0.5489   -1.4850 H   0  0  0  0  0  0  0  0  0  0  0  0
    3.8243   -0.8738   -1.9823 H   0  0  0  0  0  0  0  0  0  0  0  0
    2.9326    0.0676   -3.1978 H   0  0  0  0  0  0  0  0  0  0  0  0
   -0.4904    1.5559    1.0614 C   0  0  0  0  0  0  0  0  0  0  0  0
    0.1655    2.5715    0.8632 O   0  0  0  0  0  0  0  0  0  0  0  0
   -1.2931    1.4880    2.1850 N   0  0  0  0  0  0  0  0  0  0  0  0
   -1.6988    0.5746    2.3796 H   0  0  0  0  0  0  0  0  0  0  0  0
   -1.2864    2.4963    3.2372 C   0  0  0  0  0  0  0  0  0  0  0  0
   -1.5455    3.4788    2.8289 H   0  0  0  0  0  0  0  0  0  0  0  0
   -2.0185    2.2412    4.0093 H   0  0  0  0  0  0  0  0  0  0  0  0
   -0.2970    2.5574    3.7023 H   0  0  0  0  0  0  0  0  0  0  0  0
  1  2  1  0  0  0  0
  2  3  1  0  0  0  0
  2  4  1  0  0  0  0
  2  5  1  0  0  0  0
  5  6  2  0  0  0  0
  5  7  1  0  0  0  0
  7  8  1  0  0  0  0
  7  9  1  0  0  0  0
  9 10  1  0  0  0  0
  9 11  1  0  0  0  0
  9 22  1  0  0  0  0
 11 12  1  0  0  0  0
 11 13  1  0  0  0  0
 11 14  1  0  0  0  0
 14 15  1  0  0  0  0
 14 16  1  0  0  0  0
 14 17  1  0  0  0  0
 17 18  1  0  0  0  0
 18 19  1  0  0  0  0
 18 20  1  0  0  0  0
 18 21  1  0  0  0  0
 22 23  2  0  0  0  0
 22 24  1  0  0  0  0
 24 25  1  0  0  0  0
 24 26  1  0  0  0  0
 26 27  1  0  0  0  0
 26 28  1  0  0  0  0
 26 29  1  0  0  0  0
M  END
$$$$

  -OEChem-01062216093D

 29 28  0     1  0  0  0  0  0999 V2000
   -3.3128   -3.2247    0.8024 H   0  0  0  0  0  0  0  0  0  0  0  0
   -3.3067   -2.2678    0.2728 C   0  0  0  0  0  0  0  0  0  0  0  0
   -4.1891   -1.6953    0.5686 H   0  0  0  0  0  0  0  0  0  0  0  0
   -3.3483   -2.4620   -0.8017 H   0  0  0  0  0  0  0  0  0  0  0  0
   -2.0471   -1.4939    0.6112 C   0  0  0  0  0  0  0  0  0  0  0  0
   -1.2898   -1.8999    1.4770 O   0  0  0  0  0  0  0  0  0  0  0  0
   -1.8086   -0.2680    0.0271 N   0  0  0  0  0  0  0  0  0  0  0  0
   -2.4864    0.0479   -0.6597 H   0  0  0  0  0  0  0  0  0  0  0  0
   -0.4897    0.3932    0.0453 C   0  0  1  0  0  0  0  0  0  0  0  0
    0.2901   -0.3049    0.3675 H   0  0  0  0  0  0  0  0  0  0  0  0
   -0.1614    0.8703   -1.3871 C   0  0  0  0  0  0  0  0  0  0  0  0
   -0.9646    1.5235   -1.7431 H   0  0  0  0  0  0  0  0  0  0  0  0
    0.7541    1.4694   -1.3677 H   0  0  0  0  0  0  0  0  0  0  0  0
    0.0367   -0.2802   -2.3856 C   0  0  0  0  0  0  0  0  0  0  0  0
   -0.8787   -0.8760   -2.4491 H   0  0  0  0  0  0  0  0  0  0  0  0
    0.2280    0.1348   -3.3802 H   0  0  0  0  0  0  0  0  0  0  0  0
    1.4340   -1.3825   -1.9192 S   0  0  0  0  0  0  0  0  0  0  0  0
    2.9097   -0.3208   -2.1826 C   0  0  0  0  0  0  0  0  0  0  0  0
    2.9025    0.5251   -1.4891 H   0  0  0  0  0  0  0  0  0  0  0  0
    3.8216   -0.9009   -2.0120 H   0  0  0  0  0  0  0  0  0  0  0  0
    2.9253    0.0620   -3.2072 H   0  0  0  0  0  0  0  0  0  0  0  0
   -0.4812    1.5576    1.0625 C   0  0  0  0  0  0  0  0  0  0  0  0
   -0.0455    2.6678    0.7812 O   0  0  0  0  0  0  0  0  0  0  0  0
   -1.0321    1.3460    2.3120 N   0  0  0  0  0  0  0  0  0  0  0  0
   -1.2876    0.3829    2.5292 H   0  0  0  0  0  0  0  0  0  0  0  0
   -1.0223    2.3388    3.3781 C   0  0  0  0  0  0  0  0  0  0  0  0
   -1.5463    3.2465    3.0611 H   0  0  0  0  0  0  0  0  0  0  0  0
   -1.5240    1.9438    4.2667 H   0  0  0  0  0  0  0  0  0  0  0  0
    0.0061    2.6012    3.6475 H   0  0  0  0  0  0  0  0  0  0  0  0
  1  2  1  0  0  0  0
  2  3  1  0  0  0  0
  2  4  1  0  0  0  0
  2  5  1  0  0  0  0
  5  6  2  0  0  0  0
  5  7  1  0  0  0  0
  7  8  1  0  0  0  0
  7  9  1  0  0  0  0
  9 10  1  0  0  0  0
  9 11  1  0  0  0  0
  9 22  1  0  0  0  0
 11 12  1  0  0  0  0
 11 13  1  0  0  0  0
 11 14  1  0  0  0  0
 14 15  1  0  0  0  0
 14 16  1  0  0  0  0
 14 17  1  0  0  0  0
 17 18  1  0  0  0  0
 18 19  1  0  0  0  0
 18 20  1  0  0  0  0
 18 21  1  0  0  0  0
 22 23  2  0  0  0  0
 22 24  1  0  0  0  0
 24 25  1  0  0  0  0
 24 26  1  0  0  0  0
 26 27  1  0  0  0  0
 26 28  1  0  0  0  0
 26 29  1  0  0  0  0
M  END
$$$$

  -OEChem-01062216093D

 29 28  0     1  0  0  0  0  0999 V2000
   -3.3101   -3.2017    0.8210 H   0  0  0  0  0  0  0  0  0  0  0  0
   -3.3148   -2.2275    0.3242 C   0  0  0  0  0  0  0  0  0  0  0  0
   -4.1681   -1.6499    0.6876 H   0  0  0  0  0  0  0  0  0  0  0  0
   -3.4197   -2.3835   -0.7521 H   0  0  0  0  0  0  0  0  0  0  0  0
   -2.0240   -1.4874    0.6184 C   0  0  0  0  0  0  0  0  0  0  0  0
   -1.2412   -1.9215    1.4481 O   0  0  0  0  0  0  0  0  0  0  0  0
   -1.7793   -0.2628    0.0337 N   0  0  0  0  0  0  0  0  0  0  0  0
   -2.4777    0.0851   -0.6161 H   0  0  0  0  0  0  0  0  0  0  0  0
   -0.4572    0.3880    0.0436 C   0  0  1  0  0  0  0  0  0  0  0  0
    0.3229   -0.3133    0.3572 H   0  0  0  0  0  0  0  0  0  0  0  0
   -0.1347    0.8711   -1.3873 C   0  0  0  0  0  0  0  0  0  0  0  0
   -0.9365    1.5306   -1.7356 H   0  0  0  0  0  0  0  0  0  0  0  0
    0.7836    1.4660   -1.3660 H   0  0  0  0  0  0  0  0  0  0  0  0
    0.0483   -0.2750   -2.3935 C   0  0  0  0  0  0  0  0  0  0  0  0
   -0.8716   -0.8640   -2.4530 H   0  0  0  0  0  0  0  0  0  0  0  0
    0.2350    0.1435   -3.3874 H   0  0  0  0  0  0  0  0  0  0  0  0
    1.4406   -1.3897   -1.9422 S   0  0  0  0  0  0  0  0  0  0  0  0
    2.9182   -0.3321   -2.2116 C   0  0  0  0  0  0  0  0  0  0  0  0
    2.9241    0.5054   -1.5081 H   0  0  0  0  0  0  0  0  0  0  0  0
    3.8296   -0.9181   -2.0606 H   0  0  0  0  0  0  0  0  0  0  0  0
    2.9215    0.0627   -3.2318 H   0  0  0  0  0  0  0  0  0  0  0  0
   -0.4492    1.5467    1.0635 C   0  0  0  0  0  0  0  0  0  0  0  0
   -0.2631    2.7117    0.7321 O   0  0  0  0  0  0  0  0  0  0  0  0
   -0.7039    1.2488    2.3881 N   0  0  0  0  0  0  0  0  0  0  0  0
   -0.8575    0.2651    2.6115 H   0  0  0  0  0  0  0  0  0  0  0  0
   -0.7482    2.2434    3.4513 C   0  0  0  0  0  0  0  0  0  0  0  0
   -1.5245    2.9879    3.2463 H   0  0  0  0  0  0  0  0  0  0  0  0
   -0.9734    1.7635    4.4085 H   0  0  0  0  0  0  0  0  0  0  0  0
    0.2165    2.7538    3.5383 H   0  0  0  0  0  0  0  0  0  0  0  0
  1  2  1  0  0  0  0
  2  3  1  0  0  0  0
  2  4  1  0  0  0  0
  2  5  1  0  0  0  0
  5  6  2  0  0  0  0
  5  7  1  0  0  0  0
  7  8  1  0  0  0  0
  7  9  1  0  0  0  0
  9 10  1  0  0  0  0
  9 11  1  0  0  0  0
  9 22  1  0  0  0  0
 11 12  1  0  0  0  0
 11 13  1  0  0  0  0
 11 14  1  0  0  0  0
 14 15  1  0  0  0  0
 14 16  1  0  0  0  0
 14 17  1  0  0  0  0
 17 18  1  0  0  0  0
 18 19  1  0  0  0  0
 18 20  1  0  0  0  0
 18 21  1  0  0  0  0
 22 23  2  0  0  0  0
 22 24  1  0  0  0  0
 24 25  1  0  0  0  0
 24 26  1  0  0  0  0
 26 27  1  0  0  0  0
 26 28  1  0  0  0  0
 26 29  1  0  0  0  0
M  END
$$$$

  -OEChem-01062216093D

 29 28  0     1  0  0  0  0  0999 V2000
   -3.3354   -3.1705    0.8762 H   0  0  0  0  0  0  0  0  0  0  0  0
   -3.3310   -2.1981    0.3755 C   0  0  0  0  0  0  0  0  0  0  0  0
   -4.1504   -1.5934    0.7716 H   0  0  0  0  0  0  0  0  0  0  0  0
   -3.4853   -2.3540   -0.6949 H   0  0  0  0  0  0  0  0  0  0  0  0
   -2.0072   -1.4970    0.6125 C   0  0  0  0  0  0  0  0  0  0  0  0
   -1.1924   -1.9690    1.3895 O   0  0  0  0  0  0  0  0  0  0  0  0
   -1.7599   -0.2726    0.0282 N   0  0  0  0  0  0  0  0  0  0  0  0
   -2.4858    0.1169   -0.5658 H   0  0  0  0  0  0  0  0  0  0  0  0
   -0.4393    0.3777    0.0356 C   0  0  1  0  0  0  0  0  0  0  0  0
    0.3438   -0.3233    0.3421 H   0  0  0  0  0  0  0  0  0  0  0  0
   -0.1193    0.8701   -1.3921 C   0  0  0  0  0  0  0  0  0  0  0  0
   -0.9238    1.5285   -1.7363 H   0  0  0  0  0  0  0  0  0  0  0  0
    0.7965    1.4688   -1.3662 H   0  0  0  0  0  0  0  0  0  0  0  0
    0.0623   -0.2685   -2.4067 C   0  0  0  0  0  0  0  0  0  0  0  0
   -0.8577   -0.8574   -2.4679 H   0  0  0  0  0  0  0  0  0  0  0  0
    0.2466    0.1571   -3.3981 H   0  0  0  0  0  0  0  0  0  0  0  0
    1.4559   -1.3860   -1.9653 S   0  0  0  0  0  0  0  0  0  0  0  0
    2.9351   -0.3292   -2.2282 C   0  0  0  0  0  0  0  0  0  0  0  0
    2.9408    0.5052   -1.5211 H   0  0  0  0  0  0  0  0  0  0  0  0
    3.8452   -0.9173   -2.0780 H   0  0  0  0  0  0  0  0  0  0  0  0
    2.9408    0.0700   -3.2467 H   0  0  0  0  0  0  0  0  0  0  0  0
   -0.4319    1.5355    1.0542 C   0  0  0  0  0  0  0  0  0  0  0  0
   -0.5046    2.7089    0.7076 O   0  0  0  0  0  0  0  0  0  0  0  0
   -0.3691    1.2229    2.3981 N   0  0  0  0  0  0  0  0  0  0  0  0
   -0.4050    0.2318    2.6363 H   0  0  0  0  0  0  0  0  0  0  0  0
   -0.4336    2.2166    3.4614 C   0  0  0  0  0  0  0  0  0  0  0  0
   -1.3783    2.7681    3.4131 H   0  0  0  0  0  0  0  0  0  0  0  0
   -0.3661    1.7293    4.4388 H   0  0  0  0  0  0  0  0  0  0  0  0
    0.3947    2.9272    3.3719 H   0  0  0  0  0  0  0  0  0  0  0  0
  1  2  1  0  0  0  0
  2  3  1  0  0  0  0
  2  4  1  0  0  0  0
  2  5  1  0  0  0  0
  5  6  2  0  0  0  0
  5  7  1  0  0  0  0
  7  8  1  0  0  0  0
  7  9  1  0  0  0  0
  9 10  1  0  0  0  0
  9 11  1  0  0  0  0
  9 22  1  0  0  0  0
 11 12  1  0  0  0  0
 11 13  1  0  0  0  0
 11 14  1  0  0  0  0
 14 15  1  0  0  0  0
 14 16  1  0  0  0  0
 14 17  1  0  0  0  0
 17 18  1  0  0  0  0
 18 19  1  0  0  0  0
 18 20  1  0  0  0  0
 18 21  1  0  0  0  0
 22 23  2  0  0  0  0
 22 24  1  0  0  0  0
 24 25  1  0  0  0  0
 24 26  1  0  0  0  0
 26 27  1  0  0  0  0
 26 28  1  0  0  0  0
 26 29  1  0  0  0  0
M  END
$$$$

  -OEChem-01062216093D

 29 28  0     1  0  0  0  0  0999 V2000
   -3.3733   -3.1446    0.9258 H   0  0  0  0  0  0  0  0  0  0  0  0
   -3.3585   -2.1722    0.4251 C   0  0  0  0  0  0  0  0  0  0  0  0
   -4.1309   -1.5370    0.8654 H   0  0  0  0  0  0  0  0  0  0  0  0
   -3.5771   -2.3200   -0.6352 H   0  0  0  0  0  0  0  0  0  0  0  0
   -1.9977   -1.5225    0.5879 C   0  0  0  0  0  0  0  0  0  0  0  0
   -1.1486   -2.0489    1.2893 O   0  0  0  0  0  0  0  0  0  0  0  0
   -1.7456   -0.2969    0.0071 N   0  0  0  0  0  0  0  0  0  0  0  0
   -2.5081    0.1569   -0.4877 H   0  0  0  0  0  0  0  0  0  0  0  0
   -0.4299    0.3610    0.0220 C   0  0  1  0  0  0  0  0  0  0  0  0
    0.3563   -0.3373    0.3267 H   0  0  0  0  0  0  0  0  0  0  0  0
   -0.1079    0.8636   -1.4010 C   0  0  0  0  0  0  0  0  0  0  0  0
   -0.9160    1.5174   -1.7458 H   0  0  0  0  0  0  0  0  0  0  0  0
    0.8031    1.4689   -1.3680 H   0  0  0  0  0  0  0  0  0  0  0  0
    0.0839   -0.2690   -2.4202 C   0  0  0  0  0  0  0  0  0  0  0  0
   -0.8327   -0.8631   -2.4854 H   0  0  0  0  0  0  0  0  0  0  0  0
    0.2674    0.1614   -3.4098 H   0  0  0  0  0  0  0  0  0  0  0  0
    1.4830   -1.3800   -1.9787 S   0  0  0  0  0  0  0  0  0  0  0  0
    2.9561   -0.3123   -2.2317 C   0  0  0  0  0  0  0  0  0  0  0  0
    2.9578    0.5148   -1.5164 H   0  0  0  0  0  0  0  0  0  0  0  0
    3.8695   -0.8969   -2.0876 H   0  0  0  0  0  0  0  0  0  0  0  0
    2.9588    0.0969   -3.2462 H   0  0  0  0  0  0  0  0  0  0  0  0
   -0.4280    1.5209    1.0372 C   0  0  0  0  0  0  0  0  0  0  0  0
   -0.7626    2.6549    0.7140 O   0  0  0  0  0  0  0  0  0  0  0  0
   -0.0583    1.2635    2.3430 N   0  0  0  0  0  0  0  0  0  0  0  0
    0.0749    0.2846    2.5920 H   0  0  0  0  0  0  0  0  0  0  0  0
   -0.1123    2.2622    3.4025 C   0  0  0  0  0  0  0  0  0  0  0  0
   -1.1365    2.6261    3.5345 H   0  0  0  0  0  0  0  0  0  0  0  0
    0.2262    1.8282    4.3481 H   0  0  0  0  0  0  0  0  0  0  0  0
    0.5355    3.1113    3.1613 H   0  0  0  0  0  0  0  0  0  0  0  0
  1  2  1  0  0  0  0
  2  3  1  0  0  0  0
  2  4  1  0  0  0  0
  2  5  1  0  0  0  0
  5  6  2  0  0  0  0
  5  7  1  0  0  0  0
  7  8  1  0  0  0  0
  7  9  1  0  0  0  0
  9 10  1  0  0  0  0
  9 11  1  0  0  0  0
  9 22  1  0  0  0  0
 11 12  1  0  0  0  0
 11 13  1  0  0  0  0
 11 14  1  0  0  0  0
 14 15  1  0  0  0  0
 14 16  1  0  0  0  0
 14 17  1  0  0  0  0
 17 18  1  0  0  0  0
 18 19  1  0  0  0  0
 18 20  1  0  0  0  0
 18 21  1  0  0  0  0
 22 23  2  0  0  0  0
 22 24  1  0  0  0  0
 24 25  1  0  0  0  0
 24 26  1  0  0  0  0
 26 27  1  0  0  0  0
 26 28  1  0  0  0  0
 26 29  1  0  0  0  0
M  END
$$$$

  -OEChem-01062216093D

 29 28  0     1  0  0  0  0  0999 V2000
   -3.4124   -3.1161    0.9786 H   0  0  0  0  0  0  0  0  0  0  0  0
   -3.3858   -2.1473    0.4715 C   0  0  0  0  0  0  0  0  0  0  0  0
   -4.1089   -1.4804    0.9469 H   0  0  0  0  0  0  0  0  0  0  0  0
   -3.6648   -2.2908   -0.5751 H   0  0  0  0  0  0  0  0  0  0  0  0
   -1.9940   -1.5504    0.5592 C   0  0  0  0  0  0  0  0  0  0  0  0
   -1.1204   -2.1286    1.1853 O   0  0  0  0  0  0  0  0  0  0  0  0
   -1.7367   -0.3244   -0.0185 N   0  0  0  0  0  0  0  0  0  0  0  0
   -2.5256    0.1876   -0.4040 H   0  0  0  0  0  0  0  0  0  0  0  0
   -0.4248    0.3403    0.0072 C   0  0  1  0  0  0  0  0  0  0  0  0
    0.3614   -0.3578    0.3121 H   0  0  0  0  0  0  0  0  0  0  0  0
   -0.0981    0.8560   -1.4090 C   0  0  0  0  0  0  0  0  0  0  0  0
   -0.9092    1.5067   -1.7525 H   0  0  0  0  0  0  0  0  0  0  0  0
    0.8084    1.4672   -1.3666 H   0  0  0  0  0  0  0  0  0  0  0  0
    0.1054   -0.2670   -2.4365 C   0  0  0  0  0  0  0  0  0  0  0  0
   -0.8075   -0.8660   -2.5103 H   0  0  0  0  0  0  0  0  0  0  0  0
    0.2908    0.1716   -3.4218 H   0  0  0  0  0  0  0  0  0  0  0  0
    1.5089   -1.3735   -1.9961 S   0  0  0  0  0  0  0  0  0  0  0  0
    2.9779   -0.2963   -2.2322 C   0  0  0  0  0  0  0  0  0  0  0  0
    2.9748    0.5208   -1.5053 H   0  0  0  0  0  0  0  0  0  0  0  0
    3.8939   -0.8787   -2.0953 H   0  0  0  0  0  0  0  0  0  0  0  0
    2.9800    0.1270   -3.2409 H   0  0  0  0  0  0  0  0  0  0  0  0
   -0.4303    1.5031    1.0184 C   0  0  0  0  0  0  0  0  0  0  0  0
   -1.0138    2.5505    0.7638 O   0  0  0  0  0  0  0  0  0  0  0  0
    0.2137    1.3575    2.2322 N   0  0  0  0  0  0  0  0  0  0  0  0
    0.5554    0.4260    2.4593 H   0  0  0  0  0  0  0  0  0  0  0  0
    0.1803    2.3700    3.2800 C   0  0  0  0  0  0  0  0  0  0  0  0
   -0.8498    2.5530    3.6033 H   0  0  0  0  0  0  0  0  0  0  0  0
    0.7617    2.0378    4.1455 H   0  0  0  0  0  0  0  0  0  0  0  0
    0.6090    3.3104    2.9178 H   0  0  0  0  0  0  0  0  0  0  0  0
  1  2  1  0  0  0  0
  2  3  1  0  0  0  0
  2  4  1  0  0  0  0
  2  5  1  0  0  0  0
  5  6  2  0  0  0  0
  5  7  1  0  0  0  0
  7  8  1  0  0  0  0
  7  9  1  0  0  0  0
  9 10  1  0  0  0  0
  9 11  1  0  0  0  0
  9 22  1  0  0  0  0
 11 12  1  0  0  0  0
 11 13  1  0  0  0  0
 11 14  1  0  0  0  0
 14 15  1  0  0  0  0
 14 16  1  0  0  0  0
 14 17  1  0  0  0  0
 17 18  1  0  0  0  0
 18 19  1  0  0  0  0
 18 20  1  0  0  0  0
 18 21  1  0  0  0  0
 22 23  2  0  0  0  0
 22 24  1  0  0  0  0
 24 25  1  0  0  0  0
 24 26  1  0  0  0  0
 26 27  1  0  0  0  0
 26 28  1  0  0  0  0
 26 29  1  0  0  0  0
M  END
$$$$

  -OEChem-01062216093D

 29 28  0     1  0  0  0  0  0999 V2000
   -3.4343   -3.0854    1.0366 H   0  0  0  0  0  0  0  0  0  0  0  0
   -3.4039   -2.1198    0.5240 C   0  0  0  0  0  0  0  0  0  0  0  0
   -4.0749   -1.4273    1.0378 H   0  0  0  0  0  0  0  0  0  0  0  0
   -3.7476   -2.2565   -0.5041 H   0  0  0  0  0  0  0  0  0  0  0  0
   -1.9900   -1.5706    0.5283 C   0  0  0  0  0  0  0  0  0  0  0  0
   -1.0981   -2.1911    1.0838 O   0  0  0  0  0  0  0  0  0  0  0  0
   -1.7325   -0.3448   -0.0502 N   0  0  0  0  0  0  0  0  0  0  0  0
   -2.5370    0.2115   -0.3278 H   0  0  0  0  0  0  0  0  0  0  0  0
   -0.4230    0.3248   -0.0126 C   0  0  1  0  0  0  0  0  0  0  0  0
    0.3617   -0.3718    0.2984 H   0  0  0  0  0  0  0  0  0  0  0  0
   -0.0885    0.8520   -1.4216 C   0  0  0  0  0  0  0  0  0  0  0  0
   -0.9009    1.5011   -1.7653 H   0  0  0  0  0  0  0  0  0  0  0  0
    0.8151    1.4667   -1.3697 H   0  0  0  0  0  0  0  0  0  0  0  0
    0.1260   -0.2637   -2.4543 C   0  0  0  0  0  0  0  0  0  0  0  0
   -0.7844   -0.8657   -2.5360 H   0  0  0  0  0  0  0  0  0  0  0  0
    0.3151    0.1809   -3.4362 H   0  0  0  0  0  0  0  0  0  0  0  0
    1.5305   -1.3676   -2.0102 S   0  0  0  0  0  0  0  0  0  0  0  0
    2.9986   -0.2859   -2.2289 C   0  0  0  0  0  0  0  0  0  0  0  0
    2.9841    0.5316   -1.5027 H   0  0  0  0  0  0  0  0  0  0  0  0
    3.9145   -0.8658   -2.0807 H   0  0  0  0  0  0  0  0  0  0  0  0
    3.0120    0.1365   -3.2378 H   0  0  0  0  0  0  0  0  0  0  0  0
   -0.4378    1.4911    0.9933 C   0  0  0  0  0  0  0  0  0  0  0  0
   -1.2251    2.4195    0.8479 O   0  0  0  0  0  0  0  0  0  0  0  0
    0.4335    1.4936    2.0659 N   0  0  0  0  0  0  0  0  0  0  0  0
    0.9708    0.6444    2.2234 H   0  0  0  0  0  0  0  0  0  0  0  0
    0.4154    2.5165    3.1039 C   0  0  0  0  0  0  0  0  0  0  0  0
   -0.5506    2.5225    3.6196 H   0  0  0  0  0  0  0  0  0  0  0  0
    1.2007    2.3211    3.8406 H   0  0  0  0  0  0  0  0  0  0  0  0
    0.5894    3.5066    2.6692 H   0  0  0  0  0  0  0  0  0  0  0  0
  1  2  1  0  0  0  0
  2  3  1  0  0  0  0
  2  4  1  0  0  0  0
  2  5  1  0  0  0  0
  5  6  2  0  0  0  0
  5  7  1  0  0  0  0
  7  8  1  0  0  0  0
  7  9  1  0  0  0  0
  9 10  1  0  0  0  0
  9 11  1  0  0  0  0
  9 22  1  0  0  0  0
 11 12  1  0  0  0  0
 11 13  1  0  0  0  0
 11 14  1  0  0  0  0
 14 15  1  0  0  0  0
 14 16  1  0  0  0  0
 14 17  1  0  0  0  0
 17 18  1  0  0  0  0
 18 19  1  0  0  0  0
 18 20  1  0  0  0  0
 18 21  1  0  0  0  0
 22 23  2  0  0  0  0
 22 24  1  0  0  0  0
 24 25  1  0  0  0  0
 24 26  1  0  0  0  0
 26 27  1  0  0  0  0
 26 28  1  0  0  0  0
 26 29  1  0  0  0  0
M  END
$$$$

  -OEChem-01062216093D

 29 28  0     1  0  0  0  0  0999 V2000
   -3.4463   -3.0714    1.0705 H   0  0  0  0  0  0  0  0  0  0  0  0
   -3.4164   -2.1070    0.5558 C   0  0  0  0  0  0  0  0  0  0  0  0
   -4.0532   -1.4008    1.0940 H   0  0  0  0  0  0  0  0  0  0  0  0
   -3.8027   -2.2368   -0.4579 H   0  0  0  0  0  0  0  0  0  0  0  0
   -1.9923   -1.5868    0.5042 C   0  0  0  0  0  0  0  0  0  0  0  0
   -1.0912   -2.2347    1.0116 O   0  0  0  0  0  0  0  0  0  0  0  0
   -1.7359   -0.3611   -0.0754 N   0  0  0  0  0  0  0  0  0  0  0  0
   -2.5458    0.2216   -0.2735 H   0  0  0  0  0  0  0  0  0  0  0  0
   -0.4284    0.3128   -0.0253 C   0  0  1  0  0  0  0  0  0  0  0  0
    0.3546   -0.3823    0.2928 H   0  0  0  0  0  0  0  0  0  0  0  0
   -0.0868    0.8473   -1.4291 C   0  0  0  0  0  0  0  0  0  0  0  0
   -0.9003    1.4948   -1.7736 H   0  0  0  0  0  0  0  0  0  0  0  0
    0.8140    1.4653   -1.3695 H   0  0  0  0  0  0  0  0  0  0  0  0
    0.1387   -0.2623   -2.4660 C   0  0  0  0  0  0  0  0  0  0  0  0
   -0.7685   -0.8683   -2.5566 H   0  0  0  0  0  0  0  0  0  0  0  0
    0.3328    0.1877   -3.4444 H   0  0  0  0  0  0  0  0  0  0  0  0
    1.5453   -1.3614   -2.0163 S   0  0  0  0  0  0  0  0  0  0  0  0
    3.0121   -0.2743   -2.2193 C   0  0  0  0  0  0  0  0  0  0  0  0
    2.9891    0.5419   -1.4920 H   0  0  0  0  0  0  0  0  0  0  0  0
    3.9282   -0.8519   -2.0635 H   0  0  0  0  0  0  0  0  0  0  0  0
    3.0339    0.1500   -3.2274 H   0  0  0  0  0  0  0  0  0  0  0  0
   -0.4510    1.4830    0.9762 C   0  0  0  0  0  0  0  0  0  0  0  0
   -1.3857    2.2765    0.9685 O   0  0  0  0  0  0  0  0  0  0  0  0
    0.5907    1.6610    1.8671 N   0  0  0  0  0  0  0  0  0  0  0  0
    1.2862    0.9212    1.9191 H   0  0  0  0  0  0  0  0  0  0  0  0
    0.6013    2.7087    2.8804 C   0  0  0  0  0  0  0  0  0  0  0  0
   -0.2445    2.5876    3.5654 H   0  0  0  0  0  0  0  0  0  0  0  0
    1.5275    2.6634    3.4614 H   0  0  0  0  0  0  0  0  0  0  0  0
    0.5369    3.6962    2.4115 H   0  0  0  0  0  0  0  0  0  0  0  0
  1  2  1  0  0  0  0
  2  3  1  0  0  0  0
  2  4  1  0  0  0  0
  2  5  1  0  0  0  0
  5  6  2  0  0  0  0
  5  7  1  0  0  0  0
  7  8  1  0  0  0  0
  7  9  1  0  0  0  0
  9 10  1  0  0  0  0
  9 11  1  0  0  0  0
  9 22  1  0  0  0  0
 11 12  1  0  0  0  0
 11 13  1  0  0  0  0
 11 14  1  0  0  0  0
 14 15  1  0  0  0  0
 14 16  1  0  0  0  0
 14 17  1  0  0  0  0
 17 18  1  0  0  0  0
 18 19  1  0  0  0  0
 18 20  1  0  0  0  0
 18 21  1  0  0  0  0
 22 23  2  0  0  0  0
 22 24  1  0  0  0  0
 24 25  1  0  0  0  0
 24 26  1  0  0  0  0
 26 27  1  0  0  0  0
 26 28  1  0  0  0  0
 26 29  1  0  0  0  0
M  END
$$$$

  -OEChem-01062216093D

 29 28  0     1  0  0  0  0  0999 V2000
   -3.4501   -3.0597    1.0973 H   0  0  0  0  0  0  0  0  0  0  0  0
   -3.4226   -2.0958    0.5813 C   0  0  0  0  0  0  0  0  0  0  0  0
   -4.0282   -1.3793    1.1417 H   0  0  0  0  0  0  0  0  0  0  0  0
   -3.8462   -2.2187   -0.4182 H   0  0  0  0  0  0  0  0  0  0  0  0
   -1.9932   -1.5984    0.4793 C   0  0  0  0  0  0  0  0  0  0  0  0
   -1.0848   -2.2676    0.9440 O   0  0  0  0  0  0  0  0  0  0  0  0
   -1.7412   -0.3720   -0.1007 N   0  0  0  0  0  0  0  0  0  0  0  0
   -2.5536    0.2251   -0.2372 H   0  0  0  0  0  0  0  0  0  0  0  0
   -0.4362    0.3066   -0.0353 C   0  0  1  0  0  0  0  0  0  0  0  0
    0.3461   -0.3851    0.2926 H   0  0  0  0  0  0  0  0  0  0  0  0
   -0.0874    0.8437   -1.4365 C   0  0  0  0  0  0  0  0  0  0  0  0
   -0.9022    1.4865   -1.7859 H   0  0  0  0  0  0  0  0  0  0  0  0
    0.8099    1.4661   -1.3721 H   0  0  0  0  0  0  0  0  0  0  0  0
    0.1499   -0.2644   -2.4724 C   0  0  0  0  0  0  0  0  0  0  0  0
   -0.7536   -0.8746   -2.5688 H   0  0  0  0  0  0  0  0  0  0  0  0
    0.3482    0.1868   -3.4495 H   0  0  0  0  0  0  0  0  0  0  0  0
    1.5584   -1.3573   -2.0142 S   0  0  0  0  0  0  0  0  0  0  0  0
    3.0209   -0.2631   -2.2073 C   0  0  0  0  0  0  0  0  0  0  0  0
    2.9888    0.5534   -1.4809 H   0  0  0  0  0  0  0  0  0  0  0  0
    3.9385   -0.8365   -2.0451 H   0  0  0  0  0  0  0  0  0  0  0  0
    3.0472    0.1605   -3.2158 H   0  0  0  0  0  0  0  0  0  0  0  0
   -0.4681    1.4799    0.9635 C   0  0  0  0  0  0  0  0  0  0  0  0
   -1.4963    2.1313    1.1133 O   0  0  0  0  0  0  0  0  0  0  0  0
    0.6783    1.8477    1.6431 N   0  0  0  0  0  0  0  0  0  0  0  0
    1.4821    1.2307    1.5650 H   0  0  0  0  0  0  0  0  0  0  0  0
    0.7096    2.9224    2.6274 C   0  0  0  0  0  0  0  0  0  0  0  0
    0.0314    2.7007    3.4583 H   0  0  0  0  0  0  0  0  0  0  0  0
    1.7214    3.0394    3.0276 H   0  0  0  0  0  0  0  0  0  0  0  0
    0.4086    3.8708    2.1697 H   0  0  0  0  0  0  0  0  0  0  0  0
  1  2  1  0  0  0  0
  2  3  1  0  0  0  0
  2  4  1  0  0  0  0
  2  5  1  0  0  0  0
  5  6  2  0  0  0  0
  5  7  1  0  0  0  0
  7  8  1  0  0  0  0
  7  9  1  0  0  0  0
  9 10  1  0  0  0  0
  9 11  1  0  0  0  0
  9 22  1  0  0  0  0
 11 12  1  0  0  0  0
 11 13  1  0  0  0  0
 11 14  1  0  0  0  0
 14 15  1  0  0  0  0
 14 16  1  0  0  0  0
 14 17  1  0  0  0  0
 17 18  1  0  0  0  0
 18 19  1  0  0  0  0
 18 20  1  0  0  0  0
 18 21  1  0  0  0  0
 22 23  2  0  0  0  0
 22 24  1  0  0  0  0
 24 25  1  0  0  0  0
 24 26  1  0  0  0  0
 26 27  1  0  0  0  0
 26 28  1  0  0  0  0
 26 29  1  0  0  0  0
M  END
$$$$

  -OEChem-01062216093D

 29 28  0     1  0  0  0  0  0999 V2000
   -3.4479   -3.0532    1.1094 H   0  0  0  0  0  0  0  0  0  0  0  0
   -3.4236   -2.0894    0.5931 C   0  0  0  0  0  0  0  0  0  0  0  0
   -4.0088   -1.3675    1.1679 H   0  0  0  0  0  0  0  0  0  0  0  0
   -3.8716   -2.2080   -0.3962 H   0  0  0  0  0  0  0  0  0  0  0  0
   -1.9925   -1.6051    0.4585 C   0  0  0  0  0  0  0  0  0  0  0  0
   -1.0791   -2.2908    0.8881 O   0  0  0  0  0  0  0  0  0  0  0  0
   -1.7457   -0.3765   -0.1200 N   0  0  0  0  0  0  0  0  0  0  0  0
   -2.5593    0.2284   -0.2067 H   0  0  0  0  0  0  0  0  0  0  0  0
   -0.4425    0.3053   -0.0400 C   0  0  1  0  0  0  0  0  0  0  0  0
    0.3400   -0.3827    0.2951 H   0  0  0  0  0  0  0  0  0  0  0  0
   -0.0912    0.8409   -1.4421 C   0  0  0  0  0  0  0  0  0  0  0  0
   -0.9076    1.4799   -1.7949 H   0  0  0  0  0  0  0  0  0  0  0  0
    0.8039    1.4663   -1.3794 H   0  0  0  0  0  0  0  0  0  0  0  0
    0.1540   -0.2691   -2.4742 C   0  0  0  0  0  0  0  0  0  0  0  0
   -0.7468   -0.8835   -2.5715 H   0  0  0  0  0  0  0  0  0  0  0  0
    0.3530    0.1794   -3.4523 H   0  0  0  0  0  0  0  0  0  0  0  0
    1.5656   -1.3550   -2.0082 S   0  0  0  0  0  0  0  0  0  0  0  0
    3.0262   -0.2578   -2.1990 C   0  0  0  0  0  0  0  0  0  0  0  0
    2.9883    0.5625   -1.4774 H   0  0  0  0  0  0  0  0  0  0  0  0
    3.9447   -0.8275   -2.0290 H   0  0  0  0  0  0  0  0  0  0  0  0
    3.0562    0.1598   -3.2097 H   0  0  0  0  0  0  0  0  0  0  0  0
   -0.4825    1.4793    0.9601 C   0  0  0  0  0  0  0  0  0  0  0  0
   -1.5542    1.9827    1.2807 O   0  0  0  0  0  0  0  0  0  0  0  0
    0.6945    2.0459    1.4138 N   0  0  0  0  0  0  0  0  0  0  0  0
    1.5592    1.5608    1.1912 H   0  0  0  0  0  0  0  0  0  0  0  0
    0.7316    3.1506    2.3642 C   0  0  0  0  0  0  0  0  0  0  0  0
    0.2575    2.8600    3.3075 H   0  0  0  0  0  0  0  0  0  0  0  0
    1.7672    3.4375    2.5705 H   0  0  0  0  0  0  0  0  0  0  0  0
    0.2067    4.0223    1.9593 H   0  0  0  0  0  0  0  0  0  0  0  0
  1  2  1  0  0  0  0
  2  3  1  0  0  0  0
  2  4  1  0  0  0  0
  2  5  1  0  0  0  0
  5  6  2  0  0  0  0
  5  7  1  0  0  0  0
  7  8  1  0  0  0  0
  7  9  1  0  0  0  0
  9 10  1  0  0  0  0
  9 11  1  0  0  0  0
  9 22  1  0  0  0  0
 11 12  1  0  0  0  0
 11 13  1  0  0  0  0
 11 14  1  0  0  0  0
 14 15  1  0  0  0  0
 14 16  1  0  0  0  0
 14 17  1  0  0  0  0
 17 18  1  0  0  0  0
 18 19  1  0  0  0  0
 18 20  1  0  0  0  0
 18 21  1  0  0  0  0
 22 23  2  0  0  0  0
 22 24  1  0  0  0  0
 24 25  1  0  0  0  0
 24 26  1  0  0  0  0
 26 27  1  0  0  0  0
 26 28  1  0  0  0  0
 26 29  1  0  0  0  0
M  END
$$$$

  -OEChem-01062216093D

 29 28  0     1  0  0  0  0  0999 V2000
   -3.3865   -3.0621    1.1369 H   0  0  0  0  0  0  0  0  0  0  0  0
   -3.3948   -2.0866    0.6428 C   0  0  0  0  0  0  0  0  0  0  0  0
   -3.9359   -1.3774    1.2739 H   0  0  0  0  0  0  0  0  0  0  0  0
   -3.9106   -2.1812   -0.3156 H   0  0  0  0  0  0  0  0  0  0  0  0
   -1.9748   -1.6014    0.4215 C   0  0  0  0  0  0  0  0  0  0  0  0
   -1.0354   -2.2979    0.7724 O   0  0  0  0  0  0  0  0  0  0  0  0
   -1.7623   -0.3658   -0.1573 N   0  0  0  0  0  0  0  0  0  0  0  0
   -2.5820    0.2344   -0.1702 H   0  0  0  0  0  0  0  0  0  0  0  0
   -0.4593    0.3164   -0.0647 C   0  0  1  0  0  0  0  0  0  0  0  0
    0.3554   -0.4112    0.0073 H   0  0  0  0  0  0  0  0  0  0  0  0
   -0.2789    1.1577   -1.3464 C   0  0  0  0  0  0  0  0  0  0  0  0
   -1.1333    1.8341   -1.4534 H   0  0  0  0  0  0  0  0  0  0  0  0
    0.6156    1.7801   -1.2558 H   0  0  0  0  0  0  0  0  0  0  0  0
   -0.1524    0.3074   -2.6195 C   0  0  0  0  0  0  0  0  0  0  0  0
   -1.0557   -0.2977   -2.7467 H   0  0  0  0  0  0  0  0  0  0  0  0
   -0.0726    0.9646   -3.4909 H   0  0  0  0  0  0  0  0  0  0  0  0
    1.3085   -0.8116   -2.5714 S   0  0  0  0  0  0  0  0  0  0  0  0
    2.7342    0.3410   -2.6816 C   0  0  0  0  0  0  0  0  0  0  0  0
    2.7790    0.9825   -1.7976 H   0  0  0  0  0  0  0  0  0  0  0  0
    3.6673   -0.2267   -2.7460 H   0  0  0  0  0  0  0  0  0  0  0  0
    2.6457    0.9699   -3.5724 H   0  0  0  0  0  0  0  0  0  0  0  0
   -0.3752    1.2241    1.1852 C   0  0  0  0  0  0  0  0  0  0  0  0
   -1.3715    1.4373    1.8683 O   0  0  0  0  0  0  0  0  0  0  0  0
    0.7752    1.9469    1.4471 N   0  0  0  0  0  0  0  0  0  0  0  0
    1.6048    1.7048    0.9136 H   0  0  0  0  0  0  0  0  0  0  0  0
    0.9152    2.8289    2.5997 C   0  0  0  0  0  0  0  0  0  0  0  0
    0.7899    2.2657    3.5307 H   0  0  0  0  0  0  0  0  0  0  0  0
    1.9073    3.2904    2.6050 H   0  0  0  0  0  0  0  0  0  0  0  0
    0.1649    3.6259    2.5664 H   0  0  0  0  0  0  0  0  0  0  0  0
  1  2  1  0  0  0  0
  2  3  1  0  0  0  0
  2  4  1  0  0  0  0
  2  5  1  0  0  0  0
  5  6  2  0  0  0  0
  5  7  1  0  0  0  0
  7  8  1  0  0  0  0
  7  9  1  0  0  0  0
  9 10  1  0  0  0  0
  9 11  1  0  0  0  0
  9 22  1  0  0  0  0
 11 12  1  0  0  0  0
 11 13  1  0  0  0  0
 11 14  1  0  0  0  0
 14 15  1  0  0  0  0
 14 16  1  0  0  0  0
 14 17  1  0  0  0  0
 17 18  1  0  0  0  0
 18 19  1  0  0  0  0
 18 20  1  0  0  0  0
 18 21  1  0  0  0  0
 22 23  2  0  0  0  0
 22 24  1  0  0  0  0
 24 25  1  0  0  0  0
 24 26  1  0  0  0  0
 26 27  1  0  0  0  0
 26 28  1  0  0  0  0
 26 29  1  0  0  0  0
M  END
$$$$

  -OEChem-01062216093D

 29 28  0     1  0  0  0  0  0999 V2000
   -3.3754   -3.0574    1.1297 H   0  0  0  0  0  0  0  0  0  0  0  0
   -3.3877   -2.0707    0.6585 C   0  0  0  0  0  0  0  0  0  0  0  0
   -3.8994   -1.3703    1.3231 H   0  0  0  0  0  0  0  0  0  0  0  0
   -3.9350   -2.1369   -0.2846 H   0  0  0  0  0  0  0  0  0  0  0  0
   -1.9698   -1.5968    0.4034 C   0  0  0  0  0  0  0  0  0  0  0  0
   -1.0288   -2.3107    0.7121 O   0  0  0  0  0  0  0  0  0  0  0  0
   -1.7626   -0.3574   -0.1699 N   0  0  0  0  0  0  0  0  0  0  0  0
   -2.5832    0.2413   -0.1631 H   0  0  0  0  0  0  0  0  0  0  0  0
   -0.4596    0.3255   -0.0717 C   0  0  1  0  0  0  0  0  0  0  0  0
    0.3571   -0.3999    0.0047 H   0  0  0  0  0  0  0  0  0  0  0  0
   -0.2807    1.1534   -1.3644 C   0  0  0  0  0  0  0  0  0  0  0  0
   -1.1362    1.8271   -1.4796 H   0  0  0  0  0  0  0  0  0  0  0  0
    0.6135    1.7769   -1.2861 H   0  0  0  0  0  0  0  0  0  0  0  0
   -0.1499    0.2889   -2.6279 C   0  0  0  0  0  0  0  0  0  0  0  0
   -1.0504   -0.3218   -2.7495 H   0  0  0  0  0  0  0  0  0  0  0  0
   -0.0719    0.9364   -3.5068 H   0  0  0  0  0  0  0  0  0  0  0  0
    1.3147   -0.8240   -2.5657 S   0  0  0  0  0  0  0  0  0  0  0  0
    2.7388    0.3295   -2.6874 C   0  0  0  0  0  0  0  0  0  0  0  0
    2.7826    0.9805   -1.8102 H   0  0  0  0  0  0  0  0  0  0  0  0
    3.6723   -0.2385   -2.7447 H   0  0  0  0  0  0  0  0  0  0  0  0
    2.6508    0.9488   -3.5850 H   0  0  0  0  0  0  0  0  0  0  0  0
   -0.3805    1.2277    1.1869 C   0  0  0  0  0  0  0  0  0  0  0  0
   -1.2943    1.2369    2.0047 O   0  0  0  0  0  0  0  0  0  0  0  0
    0.6152    2.1812    1.3146 N   0  0  0  0  0  0  0  0  0  0  0  0
    1.3922    2.1293    0.6635 H   0  0  0  0  0  0  0  0  0  0  0  0
    0.7194    3.0782    2.4598 C   0  0  0  0  0  0  0  0  0  0  0  0
    0.8379    2.5050    3.3855 H   0  0  0  0  0  0  0  0  0  0  0  0
    1.5857    3.7371    2.3470 H   0  0  0  0  0  0  0  0  0  0  0  0
   -0.1780    3.7004    2.5430 H   0  0  0  0  0  0  0  0  0  0  0  0
  1  2  1  0  0  0  0
  2  3  1  0  0  0  0
  2  4  1  0  0  0  0
  2  5  1  0  0  0  0
  5  6  2  0  0  0  0
  5  7  1  0  0  0  0
  7  8  1  0  0  0  0
  7  9  1  0  0  0  0
  9 10  1  0  0  0  0
  9 11  1  0  0  0  0
  9 22  1  0  0  0  0
 11 12  1  0  0  0  0
 11 13  1  0  0  0  0
 11 14  1  0  0  0  0
 14 15  1  0  0  0  0
 14 16  1  0  0  0  0
 14 17  1  0  0  0  0
 17 18  1  0  0  0  0
 18 19  1  0  0  0  0
 18 20  1  0  0  0  0
 18 21  1  0  0  0  0
 22 23  2  0  0  0  0
 22 24  1  0  0  0  0
 24 25  1  0  0  0  0
 24 26  1  0  0  0  0
 26 27  1  0  0  0  0
 26 28  1  0  0  0  0
 26 29  1  0  0  0  0
M  END
$$$$

  -OEChem-01062216093D

 29 28  0     1  0  0  0  0  0999 V2000
   -3.3666   -3.0657    1.1010 H   0  0  0  0  0  0  0  0  0  0  0  0
   -3.3809   -2.0583    0.6758 C   0  0  0  0  0  0  0  0  0  0  0  0
   -3.8589   -1.3825    1.3893 H   0  0  0  0  0  0  0  0  0  0  0  0
   -3.9616   -2.0744   -0.2493 H   0  0  0  0  0  0  0  0  0  0  0  0
   -1.9658   -1.5911    0.3933 C   0  0  0  0  0  0  0  0  0  0  0  0
   -1.0243   -2.3206    0.6604 O   0  0  0  0  0  0  0  0  0  0  0  0
   -1.7633   -0.3477   -0.1744 N   0  0  0  0  0  0  0  0  0  0  0  0
   -2.5862    0.2466   -0.1662 H   0  0  0  0  0  0  0  0  0  0  0  0
   -0.4601    0.3369   -0.0796 C   0  0  1  0  0  0  0  0  0  0  0  0
    0.3569   -0.3879    0.0002 H   0  0  0  0  0  0  0  0  0  0  0  0
   -0.2783    1.1523   -1.3808 C   0  0  0  0  0  0  0  0  0  0  0  0
   -1.1316    1.8271   -1.5042 H   0  0  0  0  0  0  0  0  0  0  0  0
    0.6195    1.7708   -1.3101 H   0  0  0  0  0  0  0  0  0  0  0  0
   -0.1446    0.2753   -2.6357 C   0  0  0  0  0  0  0  0  0  0  0  0
   -1.0453   -0.3361   -2.7525 H   0  0  0  0  0  0  0  0  0  0  0  0
   -0.0652    0.9141   -3.5207 H   0  0  0  0  0  0  0  0  0  0  0  0
    1.3193   -0.8385   -2.5630 S   0  0  0  0  0  0  0  0  0  0  0  0
    2.7473    0.3092   -2.6933 C   0  0  0  0  0  0  0  0  0  0  0  0
    2.7923    0.9663   -1.8207 H   0  0  0  0  0  0  0  0  0  0  0  0
    3.6794   -0.2615   -2.7455 H   0  0  0  0  0  0  0  0  0  0  0  0
    2.6616    0.9216   -3.5957 H   0  0  0  0  0  0  0  0  0  0  0  0
   -0.3819    1.2323    1.1870 C   0  0  0  0  0  0  0  0  0  0  0  0
   -1.1465    1.0451    2.1265 O   0  0  0  0  0  0  0  0  0  0  0  0
    0.3920    2.3811    1.2124 N   0  0  0  0  0  0  0  0  0  0  0  0
    1.0424    2.5224    0.4465 H   0  0  0  0  0  0  0  0  0  0  0  0
    0.4474    3.2860    2.3551 C   0  0  0  0  0  0  0  0  0  0  0  0
    0.8021    2.7569    3.2460 H   0  0  0  0  0  0  0  0  0  0  0  0
    1.1317    4.1145    2.1491 H   0  0  0  0  0  0  0  0  0  0  0  0
   -0.5440    3.7018    2.5635 H   0  0  0  0  0  0  0  0  0  0  0  0
  1  2  1  0  0  0  0
  2  3  1  0  0  0  0
  2  4  1  0  0  0  0
  2  5  1  0  0  0  0
  5  6  2  0  0  0  0
  5  7  1  0  0  0  0
  7  8  1  0  0  0  0
  7  9  1  0  0  0  0
  9 10  1  0  0  0  0
  9 11  1  0  0  0  0
  9 22  1  0  0  0  0
 11 12  1  0  0  0  0
 11 13  1  0  0  0  0
 11 14  1  0  0  0  0
 14 15  1  0  0  0  0
 14 16  1  0  0  0  0
 14 17  1  0  0  0  0
 17 18  1  0  0  0  0
 18 19  1  0  0  0  0
 18 20  1  0  0  0  0
 18 21  1  0  0  0  0
 22 23  2  0  0  0  0
 22 24  1  0  0  0  0
 24 25  1  0  0  0  0
 24 26  1  0  0  0  0
 26 27  1  0  0  0  0
 26 28  1  0  0  0  0
 26 29  1  0  0  0  0
M  END
$$$$

  -OEChem-01062216093D

 29 28  0     1  0  0  0  0  0999 V2000
   -3.3559   -3.0622    1.1032 H   0  0  0  0  0  0  0  0  0  0  0  0
   -3.3753   -2.0519    0.6849 C   0  0  0  0  0  0  0  0  0  0  0  0
   -3.8468   -1.3819    1.4079 H   0  0  0  0  0  0  0  0  0  0  0  0
   -3.9651   -2.0626   -0.2345 H   0  0  0  0  0  0  0  0  0  0  0  0
   -1.9631   -1.5821    0.3920 C   0  0  0  0  0  0  0  0  0  0  0  0
   -1.0209   -2.3196    0.6322 O   0  0  0  0  0  0  0  0  0  0  0  0
   -1.7663   -0.3358   -0.1729 N   0  0  0  0  0  0  0  0  0  0  0  0
   -2.5927    0.2532   -0.1735 H   0  0  0  0  0  0  0  0  0  0  0  0
   -0.4641    0.3519   -0.0877 C   0  0  1  0  0  0  0  0  0  0  0  0
    0.3528   -0.3727   -0.0043 H   0  0  0  0  0  0  0  0  0  0  0  0
   -0.2752    1.1549   -1.3953 C   0  0  0  0  0  0  0  0  0  0  0  0
   -1.1249    1.8321   -1.5304 H   0  0  0  0  0  0  0  0  0  0  0  0
    0.6273    1.7672   -1.3239 H   0  0  0  0  0  0  0  0  0  0  0  0
   -0.1375    0.2650   -2.6408 C   0  0  0  0  0  0  0  0  0  0  0  0
   -1.0391   -0.3456   -2.7551 H   0  0  0  0  0  0  0  0  0  0  0  0
   -0.0528    0.8951   -3.5316 H   0  0  0  0  0  0  0  0  0  0  0  0
    1.3231   -0.8515   -2.5532 S   0  0  0  0  0  0  0  0  0  0  0  0
    2.7528    0.2929   -2.6893 C   0  0  0  0  0  0  0  0  0  0  0  0
    2.8001    0.9532   -1.8192 H   0  0  0  0  0  0  0  0  0  0  0  0
    3.6836   -0.2801   -2.7402 H   0  0  0  0  0  0  0  0  0  0  0  0
    2.6671    0.9019   -3.5941 H   0  0  0  0  0  0  0  0  0  0  0  0
   -0.3846    1.2416    1.1828 C   0  0  0  0  0  0  0  0  0  0  0  0
   -0.9320    0.8876    2.2194 O   0  0  0  0  0  0  0  0  0  0  0  0
    0.1164    2.5329    1.1383 N   0  0  0  0  0  0  0  0  0  0  0  0
    0.5641    2.8335    0.2790 H   0  0  0  0  0  0  0  0  0  0  0  0
    0.1312    3.4289    2.2898 C   0  0  0  0  0  0  0  0  0  0  0  0
    0.7097    2.9901    3.1096 H   0  0  0  0  0  0  0  0  0  0  0  0
    0.5863    4.3865    2.0193 H   0  0  0  0  0  0  0  0  0  0  0  0
   -0.8885    3.6189    2.6411 H   0  0  0  0  0  0  0  0  0  0  0  0
  1  2  1  0  0  0  0
  2  3  1  0  0  0  0
  2  4  1  0  0  0  0
  2  5  1  0  0  0  0
  5  6  2  0  0  0  0
  5  7  1  0  0  0  0
  7  8  1  0  0  0  0
  7  9  1  0  0  0  0
  9 10  1  0  0  0  0
  9 11  1  0  0  0  0
  9 22  1  0  0  0  0
 11 12  1  0  0  0  0
 11 13  1  0  0  0  0
 11 14  1  0  0  0  0
 14 15  1  0  0  0  0
 14 16  1  0  0  0  0
 14 17  1  0  0  0  0
 17 18  1  0  0  0  0
 18 19  1  0  0  0  0
 18 20  1  0  0  0  0
 18 21  1  0  0  0  0
 22 23  2  0  0  0  0
 22 24  1  0  0  0  0
 24 25  1  0  0  0  0
 24 26  1  0  0  0  0
 26 27  1  0  0  0  0
 26 28  1  0  0  0  0
 26 29  1  0  0  0  0
M  END
$$$$

  -OEChem-01062216093D

 29 28  0     1  0  0  0  0  0999 V2000
   -3.3639   -3.0480    1.1379 H   0  0  0  0  0  0  0  0  0  0  0  0
   -3.3832   -2.0599    0.6696 C   0  0  0  0  0  0  0  0  0  0  0  0
   -3.8916   -1.3641    1.3414 H   0  0  0  0  0  0  0  0  0  0  0  0
   -3.9382   -2.1254   -0.2691 H   0  0  0  0  0  0  0  0  0  0  0  0
   -1.9683   -1.5816    0.4039 C   0  0  0  0  0  0  0  0  0  0  0  0
   -1.0280   -2.3179    0.6517 O   0  0  0  0  0  0  0  0  0  0  0  0
   -1.7690   -0.3354   -0.1605 N   0  0  0  0  0  0  0  0  0  0  0  0
   -2.6000    0.2450   -0.2016 H   0  0  0  0  0  0  0  0  0  0  0  0
   -0.4692    0.3575   -0.0819 C   0  0  1  0  0  0  0  0  0  0  0  0
    0.3487   -0.3659    0.0042 H   0  0  0  0  0  0  0  0  0  0  0  0
   -0.2774    1.1564   -1.3909 C   0  0  0  0  0  0  0  0  0  0  0  0
   -1.1287    1.8298   -1.5326 H   0  0  0  0  0  0  0  0  0  0  0  0
    0.6232    1.7718   -1.3119 H   0  0  0  0  0  0  0  0  0  0  0  0
   -0.1348    0.2644   -2.6346 C   0  0  0  0  0  0  0  0  0  0  0  0
   -1.0349   -0.3479   -2.7502 H   0  0  0  0  0  0  0  0  0  0  0  0
   -0.0484    0.8928   -3.5266 H   0  0  0  0  0  0  0  0  0  0  0  0
    1.3264   -0.8503   -2.5424 S   0  0  0  0  0  0  0  0  0  0  0  0
    2.7532    0.2979   -2.6771 C   0  0  0  0  0  0  0  0  0  0  0  0
    2.7925    0.9650   -1.8118 H   0  0  0  0  0  0  0  0  0  0  0  0
    3.6862   -0.2722   -2.7176 H   0  0  0  0  0  0  0  0  0  0  0  0
    2.6714    0.8999   -3.5869 H   0  0  0  0  0  0  0  0  0  0  0  0
   -0.3868    1.2488    1.1854 C   0  0  0  0  0  0  0  0  0  0  0  0
   -0.6703    0.7898    2.2831 O   0  0  0  0  0  0  0  0  0  0  0  0
   -0.1875    2.6176    1.0978 N   0  0  0  0  0  0  0  0  0  0  0  0
    0.0268    3.0041    0.1846 H   0  0  0  0  0  0  0  0  0  0  0  0
   -0.1902    3.5058    2.2551 C   0  0  0  0  0  0  0  0  0  0  0  0
    0.6010    3.2219    2.9571 H   0  0  0  0  0  0  0  0  0  0  0  0
   -0.0188    4.5395    1.9399 H   0  0  0  0  0  0  0  0  0  0  0  0
   -1.1541    3.4588    2.7728 H   0  0  0  0  0  0  0  0  0  0  0  0
  1  2  1  0  0  0  0
  2  3  1  0  0  0  0
  2  4  1  0  0  0  0
  2  5  1  0  0  0  0
  5  6  2  0  0  0  0
  5  7  1  0  0  0  0
  7  8  1  0  0  0  0
  7  9  1  0  0  0  0
  9 10  1  0  0  0  0
  9 11  1  0  0  0  0
  9 22  1  0  0  0  0
 11 12  1  0  0  0  0
 11 13  1  0  0  0  0
 11 14  1  0  0  0  0
 14 15  1  0  0  0  0
 14 16  1  0  0  0  0
 14 17  1  0  0  0  0
 17 18  1  0  0  0  0
 18 19  1  0  0  0  0
 18 20  1  0  0  0  0
 18 21  1  0  0  0  0
 22 23  2  0  0  0  0
 22 24  1  0  0  0  0
 24 25  1  0  0  0  0
 24 26  1  0  0  0  0
 26 27  1  0  0  0  0
 26 28  1  0  0  0  0
 26 29  1  0  0  0  0
M  END
$$$$

  -OEChem-01062216093D

 29 28  0     1  0  0  0  0  0999 V2000
   -3.3738   -3.0651    1.1205 H   0  0  0  0  0  0  0  0  0  0  0  0
   -3.3924   -2.0769    0.6521 C   0  0  0  0  0  0  0  0  0  0  0  0
   -3.9217   -1.3863    1.3130 H   0  0  0  0  0  0  0  0  0  0  0  0
   -3.9264   -2.1475   -0.2983 H   0  0  0  0  0  0  0  0  0  0  0  0
   -1.9765   -1.5859    0.4169 C   0  0  0  0  0  0  0  0  0  0  0  0
   -1.0364   -2.3125    0.6895 O   0  0  0  0  0  0  0  0  0  0  0  0
   -1.7770   -0.3401   -0.1484 N   0  0  0  0  0  0  0  0  0  0  0  0
   -2.6125    0.2289   -0.2324 H   0  0  0  0  0  0  0  0  0  0  0  0
   -0.4809    0.3600   -0.0768 C   0  0  1  0  0  0  0  0  0  0  0  0
    0.3380   -0.3625    0.0109 H   0  0  0  0  0  0  0  0  0  0  0  0
   -0.2842    1.1598   -1.3835 C   0  0  0  0  0  0  0  0  0  0  0  0
   -1.1376    1.8288   -1.5328 H   0  0  0  0  0  0  0  0  0  0  0  0
    0.6125    1.7805   -1.2932 H   0  0  0  0  0  0  0  0  0  0  0  0
   -0.1341    0.2698   -2.6273 C   0  0  0  0  0  0  0  0  0  0  0  0
   -1.0331   -0.3431   -2.7478 H   0  0  0  0  0  0  0  0  0  0  0  0
   -0.0436    0.8995   -3.5178 H   0  0  0  0  0  0  0  0  0  0  0  0
    1.3281   -0.8426   -2.5284 S   0  0  0  0  0  0  0  0  0  0  0  0
    2.7538    0.3081   -2.6540 C   0  0  0  0  0  0  0  0  0  0  0  0
    2.7870    0.9741   -1.7874 H   0  0  0  0  0  0  0  0  0  0  0  0
    3.6883   -0.2599   -2.6903 H   0  0  0  0  0  0  0  0  0  0  0  0
    2.6763    0.9113   -3.5631 H   0  0  0  0  0  0  0  0  0  0  0  0
   -0.3949    1.2549    1.1849 C   0  0  0  0  0  0  0  0  0  0  0  0
   -0.3643    0.7557    2.2998 O   0  0  0  0  0  0  0  0  0  0  0  0
   -0.5115    2.6332    1.0980 N   0  0  0  0  0  0  0  0  0  0  0  0
   -0.5472    3.0450    0.1716 H   0  0  0  0  0  0  0  0  0  0  0  0
   -0.5117    3.5131    2.2614 C   0  0  0  0  0  0  0  0  0  0  0  0
    0.4317    3.4226    2.8104 H   0  0  0  0  0  0  0  0  0  0  0  0
   -0.6316    4.5548    1.9484 H   0  0  0  0  0  0  0  0  0  0  0  0
   -1.3367    3.2582    2.9351 H   0  0  0  0  0  0  0  0  0  0  0  0
  1  2  1  0  0  0  0
  2  3  1  0  0  0  0
  2  4  1  0  0  0  0
  2  5  1  0  0  0  0
  5  6  2  0  0  0  0
  5  7  1  0  0  0  0
  7  8  1  0  0  0  0
  7  9  1  0  0  0  0
  9 10  1  0  0  0  0
  9 11  1  0  0  0  0
  9 22  1  0  0  0  0
 11 12  1  0  0  0  0
 11 13  1  0  0  0  0
 11 14  1  0  0  0  0
 14 15  1  0  0  0  0
 14 16  1  0  0  0  0
 14 17  1  0  0  0  0
 17 18  1  0  0  0  0
 18 19  1  0  0  0  0
 18 20  1  0  0  0  0
 18 21  1  0  0  0  0
 22 23  2  0  0  0  0
 22 24  1  0  0  0  0
 24 25  1  0  0  0  0
 24 26  1  0  0  0  0
 26 27  1  0  0  0  0
 26 28  1  0  0  0  0
 26 29  1  0  0  0  0
M  END
$$$$

  -OEChem-01062216093D

 29 28  0     1  0  0  0  0  0999 V2000
   -3.4000   -3.1070    1.0624 H   0  0  0  0  0  0  0  0  0  0  0  0
   -3.4096   -2.1232    0.5847 C   0  0  0  0  0  0  0  0  0  0  0  0
   -4.0038   -1.4418    1.1980 H   0  0  0  0  0  0  0  0  0  0  0  0
   -3.8701   -2.2154   -0.4016 H   0  0  0  0  0  0  0  0  0  0  0  0
   -1.9932   -1.5973    0.4484 C   0  0  0  0  0  0  0  0  0  0  0  0
   -1.0586   -2.2900    0.8099 O   0  0  0  0  0  0  0  0  0  0  0  0
   -1.7854   -0.3537   -0.1179 N   0  0  0  0  0  0  0  0  0  0  0  0
   -2.6218    0.1908   -0.2970 H   0  0  0  0  0  0  0  0  0  0  0  0
   -0.4945    0.3561   -0.0519 C   0  0  1  0  0  0  0  0  0  0  0  0
    0.3273   -0.3641    0.0333 H   0  0  0  0  0  0  0  0  0  0  0  0
   -0.3030    1.1596   -1.3558 C   0  0  0  0  0  0  0  0  0  0  0  0
   -1.1602    1.8232   -1.5051 H   0  0  0  0  0  0  0  0  0  0  0  0
    0.5881    1.7878   -1.2608 H   0  0  0  0  0  0  0  0  0  0  0  0
   -0.1485    0.2740   -2.6020 C   0  0  0  0  0  0  0  0  0  0  0  0
   -1.0438   -0.3437   -2.7248 H   0  0  0  0  0  0  0  0  0  0  0  0
   -0.0612    0.9069   -3.4904 H   0  0  0  0  0  0  0  0  0  0  0  0
    1.3200   -0.8301   -2.5055 S   0  0  0  0  0  0  0  0  0  0  0  0
    2.7391    0.3292   -2.6277 C   0  0  0  0  0  0  0  0  0  0  0  0
    2.7697    0.9915   -1.7579 H   0  0  0  0  0  0  0  0  0  0  0  0
    3.6765   -0.2338   -2.6668 H   0  0  0  0  0  0  0  0  0  0  0  0
    2.6575    0.9362   -3.5340 H   0  0  0  0  0  0  0  0  0  0  0  0
   -0.4033    1.2602    1.2005 C   0  0  0  0  0  0  0  0  0  0  0  0
   -0.0085    0.8163    2.2677 O   0  0  0  0  0  0  0  0  0  0  0  0
   -0.8266    2.5791    1.1581 N   0  0  0  0  0  0  0  0  0  0  0  0
   -1.1346    2.9465    0.2643 H   0  0  0  0  0  0  0  0  0  0  0  0
   -0.7787    3.4720    2.3104 C   0  0  0  0  0  0  0  0  0  0  0  0
    0.2541    3.6037    2.6500 H   0  0  0  0  0  0  0  0  0  0  0  0
   -1.1844    4.4535    2.0470 H   0  0  0  0  0  0  0  0  0  0  0  0
   -1.3713    3.0644    3.1363 H   0  0  0  0  0  0  0  0  0  0  0  0
  1  2  1  0  0  0  0
  2  3  1  0  0  0  0
  2  4  1  0  0  0  0
  2  5  1  0  0  0  0
  5  6  2  0  0  0  0
  5  7  1  0  0  0  0
  7  8  1  0  0  0  0
  7  9  1  0  0  0  0
  9 10  1  0  0  0  0
  9 11  1  0  0  0  0
  9 22  1  0  0  0  0
 11 12  1  0  0  0  0
 11 13  1  0  0  0  0
 11 14  1  0  0  0  0
 14 15  1  0  0  0  0
 14 16  1  0  0  0  0
 14 17  1  0  0  0  0
 17 18  1  0  0  0  0
 18 19  1  0  0  0  0
 18 20  1  0  0  0  0
 18 21  1  0  0  0  0
 22 23  2  0  0  0  0
 22 24  1  0  0  0  0
 24 25  1  0  0  0  0
 24 26  1  0  0  0  0
 26 27  1  0  0  0  0
 26 28  1  0  0  0  0
 26 29  1  0  0  0  0
M  END
$$$$

  -OEChem-01062216093D

 29 28  0     1  0  0  0  0  0999 V2000
   -3.4188   -3.1687    0.9773 H   0  0  0  0  0  0  0  0  0  0  0  0
   -3.4125   -2.2007    0.4683 C   0  0  0  0  0  0  0  0  0  0  0  0
   -4.1245   -1.5382    0.9662 H   0  0  0  0  0  0  0  0  0  0  0  0
   -3.7219   -2.3481   -0.5691 H   0  0  0  0  0  0  0  0  0  0  0  0
   -2.0211   -1.5976    0.5143 C   0  0  0  0  0  0  0  0  0  0  0  0
   -1.1168   -2.2123    1.0494 O   0  0  0  0  0  0  0  0  0  0  0  0
   -1.7988   -0.3591   -0.0560 N   0  0  0  0  0  0  0  0  0  0  0  0
   -2.6035    0.1078   -0.4589 H   0  0  0  0  0  0  0  0  0  0  0  0
   -0.5071    0.3514   -0.0086 C   0  0  1  0  0  0  0  0  0  0  0  0
    0.3109   -0.3746    0.0653 H   0  0  0  0  0  0  0  0  0  0  0  0
   -0.3241    1.1634   -1.3074 C   0  0  0  0  0  0  0  0  0  0  0  0
   -1.1775    1.8346   -1.4430 H   0  0  0  0  0  0  0  0  0  0  0  0
    0.5702    1.7875   -1.2124 H   0  0  0  0  0  0  0  0  0  0  0  0
   -0.1835    0.2886   -2.5627 C   0  0  0  0  0  0  0  0  0  0  0  0
   -1.0821   -0.3237   -2.6854 H   0  0  0  0  0  0  0  0  0  0  0  0
   -0.0994    0.9304   -3.4454 H   0  0  0  0  0  0  0  0  0  0  0  0
    1.2811   -0.8222   -2.4901 S   0  0  0  0  0  0  0  0  0  0  0  0
    2.7011    0.3360   -2.6144 C   0  0  0  0  0  0  0  0  0  0  0  0
    2.7384    0.9915   -1.7397 H   0  0  0  0  0  0  0  0  0  0  0  0
    3.6378   -0.2272   -2.6643 H   0  0  0  0  0  0  0  0  0  0  0  0
    2.6134    0.9504   -3.5152 H   0  0  0  0  0  0  0  0  0  0  0  0
   -0.3916    1.2656    1.2325 C   0  0  0  0  0  0  0  0  0  0  0  0
    0.3783    0.9963    2.1423 O   0  0  0  0  0  0  0  0  0  0  0  0
   -1.0815    2.4658    1.2875 N   0  0  0  0  0  0  0  0  0  0  0  0
   -1.7170    2.6777    0.5267 H   0  0  0  0  0  0  0  0  0  0  0  0
   -0.9880    3.3913    2.4108 C   0  0  0  0  0  0  0  0  0  0  0  0
    0.0488    3.7116    2.5587 H   0  0  0  0  0  0  0  0  0  0  0  0
   -1.5995    4.2788    2.2224 H   0  0  0  0  0  0  0  0  0  0  0  0
   -1.3432    2.9140    3.3302 H   0  0  0  0  0  0  0  0  0  0  0  0
  1  2  1  0  0  0  0
  2  3  1  0  0  0  0
  2  4  1  0  0  0  0
  2  5  1  0  0  0  0
  5  6  2  0  0  0  0
  5  7  1  0  0  0  0
  7  8  1  0  0  0  0
  7  9  1  0  0  0  0
  9 10  1  0  0  0  0
  9 11  1  0  0  0  0
  9 22  1  0  0  0  0
 11 12  1  0  0  0  0
 11 13  1  0  0  0  0
 11 14  1  0  0  0  0
 14 15  1  0  0  0  0
 14 16  1  0  0  0  0
 14 17  1  0  0  0  0
 17 18  1  0  0  0  0
 18 19  1  0  0  0  0
 18 20  1  0  0  0  0
 18 21  1  0  0  0  0
 22 23  2  0  0  0  0
 22 24  1  0  0  0  0
 24 25  1  0  0  0  0
 24 26  1  0  0  0  0
 26 27  1  0  0  0  0
 26 28  1  0  0  0  0
 26 29  1  0  0  0  0
M  END
$$$$

  -OEChem-01062216093D

 29 28  0     1  0  0  0  0  0999 V2000
   -3.3628   -3.2604    0.8367 H   0  0  0  0  0  0  0  0  0  0  0  0
   -3.3697   -2.2891    0.3336 C   0  0  0  0  0  0  0  0  0  0  0  0
   -4.2047   -1.6996    0.7192 H   0  0  0  0  0  0  0  0  0  0  0  0
   -3.5072   -2.4505   -0.7382 H   0  0  0  0  0  0  0  0  0  0  0  0
   -2.0614   -1.5637    0.5862 C   0  0  0  0  0  0  0  0  0  0  0  0
   -1.2242   -2.0652    1.3141 O   0  0  0  0  0  0  0  0  0  0  0  0
   -1.8379   -0.3327    0.0006 N   0  0  0  0  0  0  0  0  0  0  0  0
   -2.5353   -0.0180   -0.6649 H   0  0  0  0  0  0  0  0  0  0  0  0
   -0.5328    0.3545    0.0332 C   0  0  1  0  0  0  0  0  0  0  0  0
    0.2713   -0.3879    0.0968 H   0  0  0  0  0  0  0  0  0  0  0  0
   -0.3460    1.1764   -1.2572 C   0  0  0  0  0  0  0  0  0  0  0  0
   -1.1837    1.8711   -1.3720 H   0  0  0  0  0  0  0  0  0  0  0  0
    0.5633    1.7788   -1.1639 H   0  0  0  0  0  0  0  0  0  0  0  0
   -0.2369    0.3152   -2.5247 C   0  0  0  0  0  0  0  0  0  0  0  0
   -1.1494   -0.2756   -2.6492 H   0  0  0  0  0  0  0  0  0  0  0  0
   -0.1449    0.9670   -3.3994 H   0  0  0  0  0  0  0  0  0  0  0  0
    1.2048   -0.8261   -2.4769 S   0  0  0  0  0  0  0  0  0  0  0  0
    2.6471    0.3049   -2.5996 C   0  0  0  0  0  0  0  0  0  0  0  0
    2.7067    0.9466   -1.7157 H   0  0  0  0  0  0  0  0  0  0  0  0
    3.5715   -0.2765   -2.6669 H   0  0  0  0  0  0  0  0  0  0  0  0
    2.5633    0.9343   -3.4903 H   0  0  0  0  0  0  0  0  0  0  0  0
   -0.3802    1.2749    1.2634 C   0  0  0  0  0  0  0  0  0  0  0  0
    0.6323    1.2322    1.9476 O   0  0  0  0  0  0  0  0  0  0  0  0
   -1.2661    2.3208    1.4596 N   0  0  0  0  0  0  0  0  0  0  0  0
   -2.1213    2.3064    0.9151 H   0  0  0  0  0  0  0  0  0  0  0  0
   -1.1481    3.2657    2.5638 C   0  0  0  0  0  0  0  0  0  0  0  0
   -0.1890    3.7923    2.5172 H   0  0  0  0  0  0  0  0  0  0  0  0
   -1.9504    4.0080    2.5148 H   0  0  0  0  0  0  0  0  0  0  0  0
   -1.2162    2.7428    3.5236 H   0  0  0  0  0  0  0  0  0  0  0  0
  1  2  1  0  0  0  0
  2  3  1  0  0  0  0
  2  4  1  0  0  0  0
  2  5  1  0  0  0  0
  5  6  2  0  0  0  0
  5  7  1  0  0  0  0
  7  8  1  0  0  0  0
  7  9  1  0  0  0  0
  9 10  1  0  0  0  0
  9 11  1  0  0  0  0
  9 22  1  0  0  0  0
 11 12  1  0  0  0  0
 11 13  1  0  0  0  0
 11 14  1  0  0  0  0
 14 15  1  0  0  0  0
 14 16  1  0  0  0  0
 14 17  1  0  0  0  0
 17 18  1  0  0  0  0
 18 19  1  0  0  0  0
 18 20  1  0  0  0  0
 18 21  1  0  0  0  0
 22 23  2  0  0  0  0
 22 24  1  0  0  0  0
 24 25  1  0  0  0  0
 24 26  1  0  0  0  0
 26 27  1  0  0  0  0
 26 28  1  0  0  0  0
 26 29  1  0  0  0  0
M  END
$$$$

  -OEChem-01062216093D

 29 28  0     1  0  0  0  0  0999 V2000
   -3.3455   -3.2770    0.8050 H   0  0  0  0  0  0  0  0  0  0  0  0
   -3.3493   -2.3132    0.2875 C   0  0  0  0  0  0  0  0  0  0  0  0
   -4.2178   -1.7394    0.6188 H   0  0  0  0  0  0  0  0  0  0  0  0
   -3.4256   -2.4932   -0.7874 H   0  0  0  0  0  0  0  0  0  0  0  0
   -2.0746   -1.5516    0.5976 C   0  0  0  0  0  0  0  0  0  0  0  0
   -1.2671   -2.0145    1.3828 O   0  0  0  0  0  0  0  0  0  0  0  0
   -1.8507   -0.3230    0.0084 N   0  0  0  0  0  0  0  0  0  0  0  0
   -2.5055   -0.0529   -0.7177 H   0  0  0  0  0  0  0  0  0  0  0  0
   -0.5380    0.3501    0.0442 C   0  0  1  0  0  0  0  0  0  0  0  0
    0.2601   -0.3989    0.1039 H   0  0  0  0  0  0  0  0  0  0  0  0
   -0.3484    1.1806   -1.2392 C   0  0  0  0  0  0  0  0  0  0  0  0
   -1.1799    1.8849   -1.3413 H   0  0  0  0  0  0  0  0  0  0  0  0
    0.5672    1.7735   -1.1451 H   0  0  0  0  0  0  0  0  0  0  0  0
   -0.2531    0.3287   -2.5140 C   0  0  0  0  0  0  0  0  0  0  0  0
   -1.1726   -0.2501   -2.6422 H   0  0  0  0  0  0  0  0  0  0  0  0
   -0.1563    0.9882   -3.3822 H   0  0  0  0  0  0  0  0  0  0  0  0
    1.1765   -0.8280   -2.4820 S   0  0  0  0  0  0  0  0  0  0  0  0
    2.6283    0.2908   -2.6013 C   0  0  0  0  0  0  0  0  0  0  0  0
    2.6945    0.9272   -1.7140 H   0  0  0  0  0  0  0  0  0  0  0  0
    3.5479   -0.2975   -2.6737 H   0  0  0  0  0  0  0  0  0  0  0  0
    2.5482    0.9257   -3.4884 H   0  0  0  0  0  0  0  0  0  0  0  0
   -0.3737    1.2688    1.2732 C   0  0  0  0  0  0  0  0  0  0  0  0
    0.7307    1.4329    1.7731 O   0  0  0  0  0  0  0  0  0  0  0  0
   -1.4033    2.1171    1.6422 N   0  0  0  0  0  0  0  0  0  0  0  0
   -2.3206    1.8994    1.2678 H   0  0  0  0  0  0  0  0  0  0  0  0
   -1.3018    3.0482    2.7596 C   0  0  0  0  0  0  0  0  0  0  0  0
   -0.4787    3.7525    2.5987 H   0  0  0  0  0  0  0  0  0  0  0  0
   -2.2287    3.6208    2.8611 H   0  0  0  0  0  0  0  0  0  0  0  0
   -1.1236    2.5064    3.6946 H   0  0  0  0  0  0  0  0  0  0  0  0
  1  2  1  0  0  0  0
  2  3  1  0  0  0  0
  2  4  1  0  0  0  0
  2  5  1  0  0  0  0
  5  6  2  0  0  0  0
  5  7  1  0  0  0  0
  7  8  1  0  0  0  0
  7  9  1  0  0  0  0
  9 10  1  0  0  0  0
  9 11  1  0  0  0  0
  9 22  1  0  0  0  0
 11 12  1  0  0  0  0
 11 13  1  0  0  0  0
 11 14  1  0  0  0  0
 14 15  1  0  0  0  0
 14 16  1  0  0  0  0
 14 17  1  0  0  0  0
 17 18  1  0  0  0  0
 18 19  1  0  0  0  0
 18 20  1  0  0  0  0
 18 21  1  0  0  0  0
 22 23  2  0  0  0  0
 22 24  1  0  0  0  0
 24 25  1  0  0  0  0
 24 26  1  0  0  0  0
 26 27  1  0  0  0  0
 26 28  1  0  0  0  0
 26 29  1  0  0  0  0
M  END
$$$$

  -OEChem-01062216093D

 29 28  0     1  0  0  0  0  0999 V2000
   -3.3324   -3.2907    0.7717 H   0  0  0  0  0  0  0  0  0  0  0  0
   -3.3442   -2.3218    0.2642 C   0  0  0  0  0  0  0  0  0  0  0  0
   -4.2236   -1.7633    0.5934 H   0  0  0  0  0  0  0  0  0  0  0  0
   -3.4089   -2.4924   -0.8131 H   0  0  0  0  0  0  0  0  0  0  0  0
   -2.0824   -1.5467    0.5939 C   0  0  0  0  0  0  0  0  0  0  0  0
   -1.2910   -1.9913    1.4058 O   0  0  0  0  0  0  0  0  0  0  0  0
   -1.8553   -0.3189    0.0044 N   0  0  0  0  0  0  0  0  0  0  0  0
   -2.4980   -0.0547   -0.7350 H   0  0  0  0  0  0  0  0  0  0  0  0
   -0.5394    0.3499    0.0458 C   0  0  1  0  0  0  0  0  0  0  0  0
    0.2567   -0.4007    0.1066 H   0  0  0  0  0  0  0  0  0  0  0  0
   -0.3509    1.1795   -1.2389 C   0  0  0  0  0  0  0  0  0  0  0  0
   -1.1813    1.8856   -1.3381 H   0  0  0  0  0  0  0  0  0  0  0  0
    0.5653    1.7721   -1.1489 H   0  0  0  0  0  0  0  0  0  0  0  0
   -0.2582    0.3271   -2.5137 C   0  0  0  0  0  0  0  0  0  0  0  0
   -1.1778   -0.2513   -2.6404 H   0  0  0  0  0  0  0  0  0  0  0  0
   -0.1619    0.9857   -3.3827 H   0  0  0  0  0  0  0  0  0  0  0  0
    1.1710   -0.8299   -2.4806 S   0  0  0  0  0  0  0  0  0  0  0  0
    2.6231    0.2888   -2.6016 C   0  0  0  0  0  0  0  0  0  0  0  0
    2.6925    0.9227   -1.7127 H   0  0  0  0  0  0  0  0  0  0  0  0
    3.5419   -0.3001   -2.6785 H   0  0  0  0  0  0  0  0  0  0  0  0
    2.5410    0.9267   -3.4863 H   0  0  0  0  0  0  0  0  0  0  0  0
   -0.3684    1.2704    1.2729 C   0  0  0  0  0  0  0  0  0  0  0  0
    0.7501    1.6263    1.6194 O   0  0  0  0  0  0  0  0  0  0  0  0
   -1.4707    1.8925    1.8311 N   0  0  0  0  0  0  0  0  0  0  0  0
   -2.3721    1.4932    1.5911 H   0  0  0  0  0  0  0  0  0  0  0  0
   -1.3794    2.7836    2.9812 C   0  0  0  0  0  0  0  0  0  0  0  0
   -0.7282    3.6348    2.7561 H   0  0  0  0  0  0  0  0  0  0  0  0
   -2.3701    3.1684    3.2417 H   0  0  0  0  0  0  0  0  0  0  0  0
   -0.9743    2.2498    3.8474 H   0  0  0  0  0  0  0  0  0  0  0  0
  1  2  1  0  0  0  0
  2  3  1  0  0  0  0
  2  4  1  0  0  0  0
  2  5  1  0  0  0  0
  5  6  2  0  0  0  0
  5  7  1  0  0  0  0
  7  8  1  0  0  0  0
  7  9  1  0  0  0  0
  9 10  1  0  0  0  0
  9 11  1  0  0  0  0
  9 22  1  0  0  0  0
 11 12  1  0  0  0  0
 11 13  1  0  0  0  0
 11 14  1  0  0  0  0
 14 15  1  0  0  0  0
 14 16  1  0  0  0  0
 14 17  1  0  0  0  0
 17 18  1  0  0  0  0
 18 19  1  0  0  0  0
 18 20  1  0  0  0  0
 18 21  1  0  0  0  0
 22 23  2  0  0  0  0
 22 24  1  0  0  0  0
 24 25  1  0  0  0  0
 24 26  1  0  0  0  0
 26 27  1  0  0  0  0
 26 28  1  0  0  0  0
 26 29  1  0  0  0  0
M  END
$$$$

  -OEChem-01062216093D

 29 28  0     1  0  0  0  0  0999 V2000
   -3.3266   -3.2923    0.7393 H   0  0  0  0  0  0  0  0  0  0  0  0
   -3.3368   -2.3230    0.2326 C   0  0  0  0  0  0  0  0  0  0  0  0
   -4.2282   -1.7730    0.5429 H   0  0  0  0  0  0  0  0  0  0  0  0
   -3.3769   -2.4934   -0.8459 H   0  0  0  0  0  0  0  0  0  0  0  0
   -2.0894   -1.5368    0.5890 C   0  0  0  0  0  0  0  0  0  0  0  0
   -1.3159   -1.9665    1.4259 O   0  0  0  0  0  0  0  0  0  0  0  0
   -1.8568   -0.3091    0.0024 N   0  0  0  0  0  0  0  0  0  0  0  0
   -2.4944   -0.0410   -0.7403 H   0  0  0  0  0  0  0  0  0  0  0  0
   -0.5390    0.3567    0.0494 C   0  0  1  0  0  0  0  0  0  0  0  0
    0.2553   -0.3956    0.1120 H   0  0  0  0  0  0  0  0  0  0  0  0
   -0.3549    1.1783   -1.2424 C   0  0  0  0  0  0  0  0  0  0  0  0
   -1.1877    1.8816   -1.3436 H   0  0  0  0  0  0  0  0  0  0  0  0
    0.5599    1.7741   -1.1625 H   0  0  0  0  0  0  0  0  0  0  0  0
   -0.2636    0.3159   -2.5108 C   0  0  0  0  0  0  0  0  0  0  0  0
   -1.1826   -0.2650   -2.6313 H   0  0  0  0  0  0  0  0  0  0  0  0
   -0.1702    0.9683   -3.3850 H   0  0  0  0  0  0  0  0  0  0  0  0
    1.1678   -0.8385   -2.4729 S   0  0  0  0  0  0  0  0  0  0  0  0
    2.6156    0.2842   -2.6065 C   0  0  0  0  0  0  0  0  0  0  0  0
    2.6832    0.9274   -1.7241 H   0  0  0  0  0  0  0  0  0  0  0  0
    3.5370   -0.3014   -2.6786 H   0  0  0  0  0  0  0  0  0  0  0  0
    2.5291    0.9131   -3.4973 H   0  0  0  0  0  0  0  0  0  0  0  0
   -0.3651    1.2775    1.2783 C   0  0  0  0  0  0  0  0  0  0  0  0
    0.7141    1.8134    1.4961 O   0  0  0  0  0  0  0  0  0  0  0  0
   -1.4642    1.6578    2.0263 N   0  0  0  0  0  0  0  0  0  0  0  0
   -2.2973    1.0922    1.8966 H   0  0  0  0  0  0  0  0  0  0  0  0
   -1.3645    2.5002    3.2115 C   0  0  0  0  0  0  0  0  0  0  0  0
   -0.9185    3.4677    2.9580 H   0  0  0  0  0  0  0  0  0  0  0  0
   -2.3584    2.6797    3.6323 H   0  0  0  0  0  0  0  0  0  0  0  0
   -0.7454    2.0163    3.9741 H   0  0  0  0  0  0  0  0  0  0  0  0
  1  2  1  0  0  0  0
  2  3  1  0  0  0  0
  2  4  1  0  0  0  0
  2  5  1  0  0  0  0
  5  6  2  0  0  0  0
  5  7  1  0  0  0  0
  7  8  1  0  0  0  0
  7  9  1  0  0  0  0
  9 10  1  0  0  0  0
  9 11  1  0  0  0  0
  9 22  1  0  0  0  0
 11 12  1  0  0  0  0
 11 13  1  0  0  0  0
 11 14  1  0  0  0  0
 14 15  1  0  0  0  0
 14 16  1  0  0  0  0
 14 17  1  0  0  0  0
 17 18  1  0  0  0  0
 18 19  1  0  0  0  0
 18 20  1  0  0  0  0
 18 21  1  0  0  0  0
 22 23  2  0  0  0  0
 22 24  1  0  0  0  0
 24 25  1  0  0  0  0
 24 26  1  0  0  0  0
 26 27  1  0  0  0  0
 26 28  1  0  0  0  0
 26 29  1  0  0  0  0
M  END
$$$$

  -OEChem-01062216093D

 29 28  0     1  0  0  0  0  0999 V2000
   -3.3330   -3.2818    0.7216 H   0  0  0  0  0  0  0  0  0  0  0  0
   -3.3393   -2.3110    0.2179 C   0  0  0  0  0  0  0  0  0  0  0  0
   -4.2298   -1.7588    0.5275 H   0  0  0  0  0  0  0  0  0  0  0  0
   -3.3769   -2.4769   -0.8614 H   0  0  0  0  0  0  0  0  0  0  0  0
   -2.0910   -1.5292    0.5793 C   0  0  0  0  0  0  0  0  0  0  0  0
   -1.3300   -1.9496    1.4326 O   0  0  0  0  0  0  0  0  0  0  0  0
   -1.8538   -0.3006   -0.0015 N   0  0  0  0  0  0  0  0  0  0  0  0
   -2.4989   -0.0172   -0.7320 H   0  0  0  0  0  0  0  0  0  0  0  0
   -0.5372    0.3679    0.0488 C   0  0  1  0  0  0  0  0  0  0  0  0
    0.2581   -0.3827    0.1149 H   0  0  0  0  0  0  0  0  0  0  0  0
   -0.3581    1.1784   -1.2524 C   0  0  0  0  0  0  0  0  0  0  0  0
   -1.1938    1.8773   -1.3592 H   0  0  0  0  0  0  0  0  0  0  0  0
    0.5545    1.7788   -1.1837 H   0  0  0  0  0  0  0  0  0  0  0  0
   -0.2635    0.3031   -2.5120 C   0  0  0  0  0  0  0  0  0  0  0  0
   -1.1800   -0.2829   -2.6266 H   0  0  0  0  0  0  0  0  0  0  0  0
   -0.1738    0.9471   -3.3925 H   0  0  0  0  0  0  0  0  0  0  0  0
    1.1737   -0.8442   -2.4638 S   0  0  0  0  0  0  0  0  0  0  0  0
    2.6159    0.2839   -2.6108 C   0  0  0  0  0  0  0  0  0  0  0  0
    2.6814    0.9370   -1.7357 H   0  0  0  0  0  0  0  0  0  0  0  0
    3.5396   -0.2987   -2.6773 H   0  0  0  0  0  0  0  0  0  0  0  0
    2.5258    0.9024   -3.5086 H   0  0  0  0  0  0  0  0  0  0  0  0
   -0.3675    1.2870    1.2826 C   0  0  0  0  0  0  0  0  0  0  0  0
    0.6214    2.0017    1.3920 O   0  0  0  0  0  0  0  0  0  0  0  0
   -1.3901    1.4171    2.2043 N   0  0  0  0  0  0  0  0  0  0  0  0
   -2.0978    0.6890    2.1680 H   0  0  0  0  0  0  0  0  0  0  0  0
   -1.2633    2.2077    3.4221 C   0  0  0  0  0  0  0  0  0  0  0  0
   -1.0474    3.2537    3.1798 H   0  0  0  0  0  0  0  0  0  0  0  0
   -2.1955    2.1732    3.9940 H   0  0  0  0  0  0  0  0  0  0  0  0
   -0.4554    1.8167    4.0494 H   0  0  0  0  0  0  0  0  0  0  0  0
  1  2  1  0  0  0  0
  2  3  1  0  0  0  0
  2  4  1  0  0  0  0
  2  5  1  0  0  0  0
  5  6  2  0  0  0  0
  5  7  1  0  0  0  0
  7  8  1  0  0  0  0
  7  9  1  0  0  0  0
  9 10  1  0  0  0  0
  9 11  1  0  0  0  0
  9 22  1  0  0  0  0
 11 12  1  0  0  0  0
 11 13  1  0  0  0  0
 11 14  1  0  0  0  0
 14 15  1  0  0  0  0
 14 16  1  0  0  0  0
 14 17  1  0  0  0  0
 17 18  1  0  0  0  0
 18 19  1  0  0  0  0
 18 20  1  0  0  0  0
 18 21  1  0  0  0  0
 22 23  2  0  0  0  0
 22 24  1  0  0  0  0
 24 25  1  0  0  0  0
 24 26  1  0  0  0  0
 26 27  1  0  0  0  0
 26 28  1  0  0  0  0
 26 29  1  0  0  0  0
M  END
$$$$

  -OEChem-01062216093D

 29 28  0     1  0  0  0  0  0999 V2000
   -3.3515   -3.2547    0.7336 H   0  0  0  0  0  0  0  0  0  0  0  0
   -3.3371   -2.2986    0.2027 C   0  0  0  0  0  0  0  0  0  0  0  0
   -4.2334   -1.7335    0.4694 H   0  0  0  0  0  0  0  0  0  0  0  0
   -3.3431   -2.4946   -0.8722 H   0  0  0  0  0  0  0  0  0  0  0  0
   -2.0960   -1.5127    0.5791 C   0  0  0  0  0  0  0  0  0  0  0  0
   -1.3568   -1.9134    1.4615 O   0  0  0  0  0  0  0  0  0  0  0  0
   -1.8539   -0.2832    0.0046 N   0  0  0  0  0  0  0  0  0  0  0  0
   -2.4986    0.0049   -0.7245 H   0  0  0  0  0  0  0  0  0  0  0  0
   -0.5352    0.3813    0.0509 C   0  0  1  0  0  0  0  0  0  0  0  0
    0.2568   -0.3724    0.1163 H   0  0  0  0  0  0  0  0  0  0  0  0
   -0.3578    1.1829   -1.2580 C   0  0  0  0  0  0  0  0  0  0  0  0
   -1.1916    1.8839   -1.3669 H   0  0  0  0  0  0  0  0  0  0  0  0
    0.5570    1.7804   -1.1988 H   0  0  0  0  0  0  0  0  0  0  0  0
   -0.2681    0.2984   -2.5113 C   0  0  0  0  0  0  0  0  0  0  0  0
   -1.1856   -0.2870   -2.6199 H   0  0  0  0  0  0  0  0  0  0  0  0
   -0.1795    0.9363   -3.3963 H   0  0  0  0  0  0  0  0  0  0  0  0
    1.1680   -0.8501   -2.4574 S   0  0  0  0  0  0  0  0  0  0  0  0
    2.6083    0.2793   -2.6169 C   0  0  0  0  0  0  0  0  0  0  0  0
    2.6750    0.9408   -1.7481 H   0  0  0  0  0  0  0  0  0  0  0  0
    3.5329   -0.3020   -2.6810 H   0  0  0  0  0  0  0  0  0  0  0  0
    2.5155    0.8897   -3.5200 H   0  0  0  0  0  0  0  0  0  0  0  0
   -0.3650    1.2920    1.2934 C   0  0  0  0  0  0  0  0  0  0  0  0
    0.4779    2.1811    1.3118 O   0  0  0  0  0  0  0  0  0  0  0  0
   -1.2382    1.1792    2.3595 N   0  0  0  0  0  0  0  0  0  0  0  0
   -1.7573    0.3035    2.3896 H   0  0  0  0  0  0  0  0  0  0  0  0
   -1.0799    1.9345    3.5959 C   0  0  0  0  0  0  0  0  0  0  0  0
   -1.1014    3.0107    3.3944 H   0  0  0  0  0  0  0  0  0  0  0  0
   -1.8933    1.6989    4.2889 H   0  0  0  0  0  0  0  0  0  0  0  0
   -0.1288    1.6852    4.0779 H   0  0  0  0  0  0  0  0  0  0  0  0
  1  2  1  0  0  0  0
  2  3  1  0  0  0  0
  2  4  1  0  0  0  0
  2  5  1  0  0  0  0
  5  6  2  0  0  0  0
  5  7  1  0  0  0  0
  7  8  1  0  0  0  0
  7  9  1  0  0  0  0
  9 10  1  0  0  0  0
  9 11  1  0  0  0  0
  9 22  1  0  0  0  0
 11 12  1  0  0  0  0
 11 13  1  0  0  0  0
 11 14  1  0  0  0  0
 14 15  1  0  0  0  0
 14 16  1  0  0  0  0
 14 17  1  0  0  0  0
 17 18  1  0  0  0  0
 18 19  1  0  0  0  0
 18 20  1  0  0  0  0
 18 21  1  0  0  0  0
 22 23  2  0  0  0  0
 22 24  1  0  0  0  0
 24 25  1  0  0  0  0
 24 26  1  0  0  0  0
 26 27  1  0  0  0  0
 26 28  1  0  0  0  0
 26 29  1  0  0  0  0
M  END
$$$$

  -OEChem-01062216093D

 29 28  0     1  0  0  0  0  0999 V2000
   -3.3582   -3.2319    0.7581 H   0  0  0  0  0  0  0  0  0  0  0  0
   -3.3440   -2.2738    0.2305 C   0  0  0  0  0  0  0  0  0  0  0  0
   -4.2265   -1.6983    0.5203 H   0  0  0  0  0  0  0  0  0  0  0  0
   -3.3784   -2.4660   -0.8446 H   0  0  0  0  0  0  0  0  0  0  0  0
   -2.0845   -1.5047    0.5804 C   0  0  0  0  0  0  0  0  0  0  0  0
   -1.3273   -1.9197    1.4421 O   0  0  0  0  0  0  0  0  0  0  0  0
   -1.8427   -0.2731    0.0101 N   0  0  0  0  0  0  0  0  0  0  0  0
   -2.5119    0.0435   -0.6843 H   0  0  0  0  0  0  0  0  0  0  0  0
   -0.5248    0.3919    0.0476 C   0  0  1  0  0  0  0  0  0  0  0  0
    0.2685   -0.3604    0.1100 H   0  0  0  0  0  0  0  0  0  0  0  0
   -0.3501    1.1889   -1.2646 C   0  0  0  0  0  0  0  0  0  0  0  0
   -1.1846    1.8891   -1.3738 H   0  0  0  0  0  0  0  0  0  0  0  0
    0.5649    1.7864   -1.2097 H   0  0  0  0  0  0  0  0  0  0  0  0
   -0.2640    0.2994   -2.5146 C   0  0  0  0  0  0  0  0  0  0  0  0
   -1.1824   -0.2857   -2.6178 H   0  0  0  0  0  0  0  0  0  0  0  0
   -0.1782    0.9334   -3.4028 H   0  0  0  0  0  0  0  0  0  0  0  0
    1.1717   -0.8502   -2.4598 S   0  0  0  0  0  0  0  0  0  0  0  0
    2.6157    0.2734   -2.6270 C   0  0  0  0  0  0  0  0  0  0  0  0
    2.6802    0.9456   -1.7663 H   0  0  0  0  0  0  0  0  0  0  0  0
    3.5391   -0.3110   -2.6795 H   0  0  0  0  0  0  0  0  0  0  0  0
    2.5288    0.8723   -3.5382 H   0  0  0  0  0  0  0  0  0  0  0  0
   -0.3605    1.2937    1.2975 C   0  0  0  0  0  0  0  0  0  0  0  0
    0.2882    2.3326    1.2576 O   0  0  0  0  0  0  0  0  0  0  0  0
   -1.0192    0.9623    2.4664 N   0  0  0  0  0  0  0  0  0  0  0  0
   -1.3712    0.0047    2.5027 H   0  0  0  0  0  0  0  0  0  0  0  0
   -0.8468    1.6930    3.7151 C   0  0  0  0  0  0  0  0  0  0  0  0
   -1.1209    2.7452    3.5850 H   0  0  0  0  0  0  0  0  0  0  0  0
   -1.4856    1.2651    4.4935 H   0  0  0  0  0  0  0  0  0  0  0  0
    0.1943    1.6390    4.0501 H   0  0  0  0  0  0  0  0  0  0  0  0
  1  2  1  0  0  0  0
  2  3  1  0  0  0  0
  2  4  1  0  0  0  0
  2  5  1  0  0  0  0
  5  6  2  0  0  0  0
  5  7  1  0  0  0  0
  7  8  1  0  0  0  0
  7  9  1  0  0  0  0
  9 10  1  0  0  0  0
  9 11  1  0  0  0  0
  9 22  1  0  0  0  0
 11 12  1  0  0  0  0
 11 13  1  0  0  0  0
 11 14  1  0  0  0  0
 14 15  1  0  0  0  0
 14 16  1  0  0  0  0
 14 17  1  0  0  0  0
 17 18  1  0  0  0  0
 18 19  1  0  0  0  0
 18 20  1  0  0  0  0
 18 21  1  0  0  0  0
 22 23  2  0  0  0  0
 22 24  1  0  0  0  0
 24 25  1  0  0  0  0
 24 26  1  0  0  0  0
 26 27  1  0  0  0  0
 26 28  1  0  0  0  0
 26 29  1  0  0  0  0
M  END
$$$$

  -OEChem-01062216093D

 29 28  0     1  0  0  0  0  0999 V2000
   -3.3682   -3.2034    0.8097 H   0  0  0  0  0  0  0  0  0  0  0  0
   -3.3547   -2.2440    0.2850 C   0  0  0  0  0  0  0  0  0  0  0  0
   -4.2094   -1.6493    0.6162 H   0  0  0  0  0  0  0  0  0  0  0  0
   -3.4413   -2.4299   -0.7883 H   0  0  0  0  0  0  0  0  0  0  0  0
   -2.0632   -1.5062    0.5813 C   0  0  0  0  0  0  0  0  0  0  0  0
   -1.2703   -1.9531    1.3951 O   0  0  0  0  0  0  0  0  0  0  0  0
   -1.8230   -0.2738    0.0112 N   0  0  0  0  0  0  0  0  0  0  0  0
   -2.5223    0.0766   -0.6358 H   0  0  0  0  0  0  0  0  0  0  0  0
   -0.5072    0.3929    0.0404 C   0  0  1  0  0  0  0  0  0  0  0  0
    0.2893   -0.3561    0.1000 H   0  0  0  0  0  0  0  0  0  0  0  0
   -0.3348    1.1909   -1.2711 C   0  0  0  0  0  0  0  0  0  0  0  0
   -1.1685    1.8921   -1.3793 H   0  0  0  0  0  0  0  0  0  0  0  0
    0.5810    1.7873   -1.2136 H   0  0  0  0  0  0  0  0  0  0  0  0
   -0.2512    0.3018   -2.5213 C   0  0  0  0  0  0  0  0  0  0  0  0
   -1.1698   -0.2835   -2.6211 H   0  0  0  0  0  0  0  0  0  0  0  0
   -0.1678    0.9358   -3.4097 H   0  0  0  0  0  0  0  0  0  0  0  0
    1.1846   -0.8483   -2.4700 S   0  0  0  0  0  0  0  0  0  0  0  0
    2.6275    0.2764   -2.6403 C   0  0  0  0  0  0  0  0  0  0  0  0
    2.6941    0.9485   -1.7800 H   0  0  0  0  0  0  0  0  0  0  0  0
    3.5511   -0.3073   -2.6956 H   0  0  0  0  0  0  0  0  0  0  0  0
    2.5371    0.8756   -3.5510 H   0  0  0  0  0  0  0  0  0  0  0  0
   -0.3540    1.2891    1.2940 C   0  0  0  0  0  0  0  0  0  0  0  0
    0.0662    2.4383    1.2232 O   0  0  0  0  0  0  0  0  0  0  0  0
   -0.7466    0.7932    2.5222 N   0  0  0  0  0  0  0  0  0  0  0  0
   -0.9772   -0.2026    2.5431 H   0  0  0  0  0  0  0  0  0  0  0  0
   -0.5717    1.5102    3.7779 C   0  0  0  0  0  0  0  0  0  0  0  0
   -1.0997    2.4691    3.7484 H   0  0  0  0  0  0  0  0  0  0  0  0
   -0.9735    0.9209    4.6077 H   0  0  0  0  0  0  0  0  0  0  0  0
    0.4904    1.6979    3.9667 H   0  0  0  0  0  0  0  0  0  0  0  0
  1  2  1  0  0  0  0
  2  3  1  0  0  0  0
  2  4  1  0  0  0  0
  2  5  1  0  0  0  0
  5  6  2  0  0  0  0
  5  7  1  0  0  0  0
  7  8  1  0  0  0  0
  7  9  1  0  0  0  0
  9 10  1  0  0  0  0
  9 11  1  0  0  0  0
  9 22  1  0  0  0  0
 11 12  1  0  0  0  0
 11 13  1  0  0  0  0
 11 14  1  0  0  0  0
 14 15  1  0  0  0  0
 14 16  1  0  0  0  0
 14 17  1  0  0  0  0
 17 18  1  0  0  0  0
 18 19  1  0  0  0  0
 18 20  1  0  0  0  0
 18 21  1  0  0  0  0
 22 23  2  0  0  0  0
 22 24  1  0  0  0  0
 24 25  1  0  0  0  0
 24 26  1  0  0  0  0
 26 27  1  0  0  0  0
 26 28  1  0  0  0  0
 26 29  1  0  0  0  0
M  END
$$$$

  -OEChem-01062216093D

 29 28  0     1  0  0  0  0  0999 V2000
   -3.3440   -3.1854    0.8451 H   0  0  0  0  0  0  0  0  0  0  0  0
   -3.3457   -2.2097    0.3508 C   0  0  0  0  0  0  0  0  0  0  0  0
   -4.1704   -1.6139    0.7493 H   0  0  0  0  0  0  0  0  0  0  0  0
   -3.4973   -2.3599   -0.7208 H   0  0  0  0  0  0  0  0  0  0  0  0
   -2.0277   -1.4998    0.5940 C   0  0  0  0  0  0  0  0  0  0  0  0
   -1.2038   -1.9751    1.3605 O   0  0  0  0  0  0  0  0  0  0  0  0
   -1.7877   -0.2689    0.0196 N   0  0  0  0  0  0  0  0  0  0  0  0
   -2.5118    0.1146   -0.5797 H   0  0  0  0  0  0  0  0  0  0  0  0
   -0.4685    0.3874    0.0342 C   0  0  1  0  0  0  0  0  0  0  0  0
    0.3274   -0.3633    0.0822 H   0  0  0  0  0  0  0  0  0  0  0  0
   -0.3038    1.1931   -1.2725 C   0  0  0  0  0  0  0  0  0  0  0  0
   -1.1342    1.9002   -1.3680 H   0  0  0  0  0  0  0  0  0  0  0  0
    0.6159    1.7838   -1.2162 H   0  0  0  0  0  0  0  0  0  0  0  0
   -0.2419    0.3123   -2.5294 C   0  0  0  0  0  0  0  0  0  0  0  0
   -1.1671   -0.2641   -2.6223 H   0  0  0  0  0  0  0  0  0  0  0  0
   -0.1637    0.9519   -3.4143 H   0  0  0  0  0  0  0  0  0  0  0  0
    1.1839   -0.8508   -2.5039 S   0  0  0  0  0  0  0  0  0  0  0  0
    2.6321    0.2652   -2.6832 C   0  0  0  0  0  0  0  0  0  0  0  0
    2.7253    0.9165   -1.8094 H   0  0  0  0  0  0  0  0  0  0  0  0
    3.5489   -0.3246   -2.7753 H   0  0  0  0  0  0  0  0  0  0  0  0
    2.5246    0.8860   -3.5775 H   0  0  0  0  0  0  0  0  0  0  0  0
   -0.3145    1.2765    1.2900 C   0  0  0  0  0  0  0  0  0  0  0  0
   -0.1389    2.4873    1.2160 O   0  0  0  0  0  0  0  0  0  0  0  0
   -0.4068    0.6811    2.5326 N   0  0  0  0  0  0  0  0  0  0  0  0
   -0.5766   -0.3276    2.5387 H   0  0  0  0  0  0  0  0  0  0  0  0
   -0.3097    1.4026    3.7939 C   0  0  0  0  0  0  0  0  0  0  0  0
   -1.1002    2.1569    3.8652 H   0  0  0  0  0  0  0  0  0  0  0  0
   -0.4155    0.7094    4.6339 H   0  0  0  0  0  0  0  0  0  0  0  0
    0.6621    1.9003    3.8764 H   0  0  0  0  0  0  0  0  0  0  0  0
  1  2  1  0  0  0  0
  2  3  1  0  0  0  0
  2  4  1  0  0  0  0
  2  5  1  0  0  0  0
  5  6  2  0  0  0  0
  5  7  1  0  0  0  0
  7  8  1  0  0  0  0
  7  9  1  0  0  0  0
  9 10  1  0  0  0  0
  9 11  1  0  0  0  0
  9 22  1  0  0  0  0
 11 12  1  0  0  0  0
 11 13  1  0  0  0  0
 11 14  1  0  0  0  0
 14 15  1  0  0  0  0
 14 16  1  0  0  0  0
 14 17  1  0  0  0  0
 17 18  1  0  0  0  0
 18 19  1  0  0  0  0
 18 20  1  0  0  0  0
 18 21  1  0  0  0  0
 22 23  2  0  0  0  0
 22 24  1  0  0  0  0
 24 25  1  0  0  0  0
 24 26  1  0  0  0  0
 26 27  1  0  0  0  0
 26 28  1  0  0  0  0
 26 29  1  0  0  0  0
M  END
$$$$

  -OEChem-01062216093D

 29 28  0     1  0  0  0  0  0999 V2000
   -3.3335   -3.1557    0.9185 H   0  0  0  0  0  0  0  0  0  0  0  0
   -3.3376   -2.1842    0.4162 C   0  0  0  0  0  0  0  0  0  0  0  0
   -4.1324   -1.5691    0.8451 H   0  0  0  0  0  0  0  0  0  0  0  0
   -3.5380   -2.3400   -0.6466 H   0  0  0  0  0  0  0  0  0  0  0  0
   -1.9968   -1.4985    0.5962 C   0  0  0  0  0  0  0  0  0  0  0  0
   -1.1437   -1.9921    1.3188 O   0  0  0  0  0  0  0  0  0  0  0  0
   -1.7636   -0.2699    0.0143 N   0  0  0  0  0  0  0  0  0  0  0  0
   -2.5151    0.1491   -0.5249 H   0  0  0  0  0  0  0  0  0  0  0  0
   -0.4452    0.3837    0.0211 C   0  0  1  0  0  0  0  0  0  0  0  0
    0.3536   -0.3642    0.0627 H   0  0  0  0  0  0  0  0  0  0  0  0
   -0.2846    1.1947   -1.2820 C   0  0  0  0  0  0  0  0  0  0  0  0
   -1.1158    1.9016   -1.3727 H   0  0  0  0  0  0  0  0  0  0  0  0
    0.6345    1.7859   -1.2233 H   0  0  0  0  0  0  0  0  0  0  0  0
   -0.2304    0.3198   -2.5434 C   0  0  0  0  0  0  0  0  0  0  0  0
   -1.1572   -0.2547   -2.6337 H   0  0  0  0  0  0  0  0  0  0  0  0
   -0.1555    0.9628   -3.4259 H   0  0  0  0  0  0  0  0  0  0  0  0
    1.1932   -0.8463   -2.5290 S   0  0  0  0  0  0  0  0  0  0  0  0
    2.6421    0.2686   -2.7095 C   0  0  0  0  0  0  0  0  0  0  0  0
    2.7363    0.9202   -1.8361 H   0  0  0  0  0  0  0  0  0  0  0  0
    3.5584   -0.3221   -2.8017 H   0  0  0  0  0  0  0  0  0  0  0  0
    2.5344    0.8894   -3.6038 H   0  0  0  0  0  0  0  0  0  0  0  0
   -0.2981    1.2720    1.2750 C   0  0  0  0  0  0  0  0  0  0  0  0
   -0.3700    2.4945    1.2199 O   0  0  0  0  0  0  0  0  0  0  0  0
   -0.0784    0.6524    2.4893 N   0  0  0  0  0  0  0  0  0  0  0  0
   -0.1691   -0.3661    2.4926 H   0  0  0  0  0  0  0  0  0  0  0  0
   -0.0133    1.3650    3.7578 C   0  0  0  0  0  0  0  0  0  0  0  0
   -0.9552    1.8885    3.9520 H   0  0  0  0  0  0  0  0  0  0  0  0
    0.1690    0.6622    4.5765 H   0  0  0  0  0  0  0  0  0  0  0  0
    0.8008    2.0971    3.7439 H   0  0  0  0  0  0  0  0  0  0  0  0
  1  2  1  0  0  0  0
  2  3  1  0  0  0  0
  2  4  1  0  0  0  0
  2  5  1  0  0  0  0
  5  6  2  0  0  0  0
  5  7  1  0  0  0  0
  7  8  1  0  0  0  0
  7  9  1  0  0  0  0
  9 10  1  0  0  0  0
  9 11  1  0  0  0  0
  9 22  1  0  0  0  0
 11 12  1  0  0  0  0
 11 13  1  0  0  0  0
 11 14  1  0  0  0  0
 14 15  1  0  0  0  0
 14 16  1  0  0  0  0
 14 17  1  0  0  0  0
 17 18  1  0  0  0  0
 18 19  1  0  0  0  0
 18 20  1  0  0  0  0
 18 21  1  0  0  0  0
 22 23  2  0  0  0  0
 22 24  1  0  0  0  0
 24 25  1  0  0  0  0
 24 26  1  0  0  0  0
 26 27  1  0  0  0  0
 26 28  1  0  0  0  0
 26 29  1  0  0  0  0
M  END
$$$$

  -OEChem-01062216093D

 29 28  0     1  0  0  0  0  0999 V2000
   -3.3446   -3.1335    0.9760 H   0  0  0  0  0  0  0  0  0  0  0  0
   -3.3473   -2.1653    0.4675 C   0  0  0  0  0  0  0  0  0  0  0  0
   -4.1019   -1.5253    0.9309 H   0  0  0  0  0  0  0  0  0  0  0  0
   -3.6052   -2.3211   -0.5828 H   0  0  0  0  0  0  0  0  0  0  0  0
   -1.9806   -1.5165    0.5741 C   0  0  0  0  0  0  0  0  0  0  0  0
   -1.0964   -2.0464    1.2305 O   0  0  0  0  0  0  0  0  0  0  0  0
   -1.7508   -0.2879   -0.0094 N   0  0  0  0  0  0  0  0  0  0  0  0
   -2.5356    0.1887   -0.4435 H   0  0  0  0  0  0  0  0  0  0  0  0
   -0.4368    0.3711    0.0040 C   0  0  1  0  0  0  0  0  0  0  0  0
    0.3663   -0.3720    0.0441 H   0  0  0  0  0  0  0  0  0  0  0  0
   -0.2756    1.1898   -1.2937 C   0  0  0  0  0  0  0  0  0  0  0  0
   -1.1114    1.8915   -1.3853 H   0  0  0  0  0  0  0  0  0  0  0  0
    0.6391    1.7867   -1.2278 H   0  0  0  0  0  0  0  0  0  0  0  0
   -0.2136    0.3209   -2.5589 C   0  0  0  0  0  0  0  0  0  0  0  0
   -1.1375   -0.2578   -2.6526 H   0  0  0  0  0  0  0  0  0  0  0  0
   -0.1404    0.9676   -3.4389 H   0  0  0  0  0  0  0  0  0  0  0  0
    1.2155   -0.8387   -2.5450 S   0  0  0  0  0  0  0  0  0  0  0  0
    2.6595    0.2838   -2.7158 C   0  0  0  0  0  0  0  0  0  0  0  0
    2.7508    0.9279   -1.8367 H   0  0  0  0  0  0  0  0  0  0  0  0
    3.5783   -0.3020   -2.8129 H   0  0  0  0  0  0  0  0  0  0  0  0
    2.5490    0.9118   -3.6047 H   0  0  0  0  0  0  0  0  0  0  0  0
   -0.3011    1.2625    1.2550 C   0  0  0  0  0  0  0  0  0  0  0  0
   -0.6267    2.4442    1.2398 O   0  0  0  0  0  0  0  0  0  0  0  0
    0.2185    0.7070    2.4076 N   0  0  0  0  0  0  0  0  0  0  0  0
    0.2882   -0.3111    2.4147 H   0  0  0  0  0  0  0  0  0  0  0  0
    0.2948    1.4242    3.6735 C   0  0  0  0  0  0  0  0  0  0  0  0
   -0.7053    1.7175    4.0091 H   0  0  0  0  0  0  0  0  0  0  0  0
    0.7463    0.7877    4.4407 H   0  0  0  0  0  0  0  0  0  0  0  0
    0.9093    2.3244    3.5675 H   0  0  0  0  0  0  0  0  0  0  0  0
  1  2  1  0  0  0  0
  2  3  1  0  0  0  0
  2  4  1  0  0  0  0
  2  5  1  0  0  0  0
  5  6  2  0  0  0  0
  5  7  1  0  0  0  0
  7  8  1  0  0  0  0
  7  9  1  0  0  0  0
  9 10  1  0  0  0  0
  9 11  1  0  0  0  0
  9 22  1  0  0  0  0
 11 12  1  0  0  0  0
 11 13  1  0  0  0  0
 11 14  1  0  0  0  0
 14 15  1  0  0  0  0
 14 16  1  0  0  0  0
 14 17  1  0  0  0  0
 17 18  1  0  0  0  0
 18 19  1  0  0  0  0
 18 20  1  0  0  0  0
 18 21  1  0  0  0  0
 22 23  2  0  0  0  0
 22 24  1  0  0  0  0
 24 25  1  0  0  0  0
 24 26  1  0  0  0  0
 26 27  1  0  0  0  0
 26 28  1  0  0  0  0
 26 29  1  0  0  0  0
M  END
$$$$

  -OEChem-01062216093D

 29 28  0     1  0  0  0  0  0999 V2000
   -3.3697   -3.1029    1.0494 H   0  0  0  0  0  0  0  0  0  0  0  0
   -3.3688   -2.1391    0.5328 C   0  0  0  0  0  0  0  0  0  0  0  0
   -4.0612   -1.4655    1.0433 H   0  0  0  0  0  0  0  0  0  0  0  0
   -3.7083   -2.2914   -0.4945 H   0  0  0  0  0  0  0  0  0  0  0  0
   -1.9718   -1.5475    0.5345 C   0  0  0  0  0  0  0  0  0  0  0  0
   -1.0599   -2.1320    1.0991 O   0  0  0  0  0  0  0  0  0  0  0  0
   -1.7431   -0.3179   -0.0480 N   0  0  0  0  0  0  0  0  0  0  0  0
   -2.5541    0.2214   -0.3372 H   0  0  0  0  0  0  0  0  0  0  0  0
   -0.4331    0.3489   -0.0213 C   0  0  1  0  0  0  0  0  0  0  0  0
    0.3736   -0.3902    0.0194 H   0  0  0  0  0  0  0  0  0  0  0  0
   -0.2662    1.1808   -1.3085 C   0  0  0  0  0  0  0  0  0  0  0  0
   -1.1051    1.8785   -1.3999 H   0  0  0  0  0  0  0  0  0  0  0  0
    0.6449    1.7816   -1.2295 H   0  0  0  0  0  0  0  0  0  0  0  0
   -0.1899    0.3257   -2.5819 C   0  0  0  0  0  0  0  0  0  0  0  0
   -1.1103   -0.2573   -2.6871 H   0  0  0  0  0  0  0  0  0  0  0  0
   -0.1152    0.9814   -3.4551 H   0  0  0  0  0  0  0  0  0  0  0  0
    1.2460   -0.8264   -2.5686 S   0  0  0  0  0  0  0  0  0  0  0  0
    2.6867    0.3038   -2.7167 C   0  0  0  0  0  0  0  0  0  0  0  0
    2.7757    0.9308   -1.8252 H   0  0  0  0  0  0  0  0  0  0  0  0
    3.6074   -0.2771   -2.8255 H   0  0  0  0  0  0  0  0  0  0  0  0
    2.5749    0.9489   -3.5931 H   0  0  0  0  0  0  0  0  0  0  0  0
   -0.3094    1.2447    1.2271 C   0  0  0  0  0  0  0  0  0  0  0  0
   -0.8905    2.3225    1.2859 O   0  0  0  0  0  0  0  0  0  0  0  0
    0.4735    0.8285    2.2863 N   0  0  0  0  0  0  0  0  0  0  0  0
    0.7699   -0.1457    2.2671 H   0  0  0  0  0  0  0  0  0  0  0  0
    0.5595    1.5592    3.5442 C   0  0  0  0  0  0  0  0  0  0  0  0
   -0.4243    1.6175    4.0215 H   0  0  0  0  0  0  0  0  0  0  0  0
    1.2483    1.0536    4.2279 H   0  0  0  0  0  0  0  0  0  0  0  0
    0.9293    2.5757    3.3730 H   0  0  0  0  0  0  0  0  0  0  0  0
  1  2  1  0  0  0  0
  2  3  1  0  0  0  0
  2  4  1  0  0  0  0
  2  5  1  0  0  0  0
  5  6  2  0  0  0  0
  5  7  1  0  0  0  0
  7  8  1  0  0  0  0
  7  9  1  0  0  0  0
  9 10  1  0  0  0  0
  9 11  1  0  0  0  0
  9 22  1  0  0  0  0
 11 12  1  0  0  0  0
 11 13  1  0  0  0  0
 11 14  1  0  0  0  0
 14 15  1  0  0  0  0
 14 16  1  0  0  0  0
 14 17  1  0  0  0  0
 17 18  1  0  0  0  0
 18 19  1  0  0  0  0
 18 20  1  0  0  0  0
 18 21  1  0  0  0  0
 22 23  2  0  0  0  0
 22 24  1  0  0  0  0
 24 25  1  0  0  0  0
 24 26  1  0  0  0  0
 26 27  1  0  0  0  0
 26 28  1  0  0  0  0
 26 29  1  0  0  0  0
M  END
$$$$

  -OEChem-01062216093D

 29 28  0     1  0  0  0  0  0999 V2000
   -3.3858   -3.0871    1.0833 H   0  0  0  0  0  0  0  0  0  0  0  0
   -3.3822   -2.1228    0.5674 C   0  0  0  0  0  0  0  0  0  0  0  0
   -4.0302   -1.4305    1.1101 H   0  0  0  0  0  0  0  0  0  0  0  0
   -3.7733   -2.2626   -0.4432 H   0  0  0  0  0  0  0  0  0  0  0  0
   -1.9713   -1.5697    0.5037 C   0  0  0  0  0  0  0  0  0  0  0  0
   -1.0480   -2.1901    1.0074 O   0  0  0  0  0  0  0  0  0  0  0  0
   -1.7440   -0.3396   -0.0779 N   0  0  0  0  0  0  0  0  0  0  0  0
   -2.5623    0.2303   -0.2740 H   0  0  0  0  0  0  0  0  0  0  0  0
   -0.4371    0.3328   -0.0375 C   0  0  1  0  0  0  0  0  0  0  0  0
    0.3704   -0.4047    0.0066 H   0  0  0  0  0  0  0  0  0  0  0  0
   -0.2660    1.1737   -1.3173 C   0  0  0  0  0  0  0  0  0  0  0  0
   -1.1102    1.8653   -1.4093 H   0  0  0  0  0  0  0  0  0  0  0  0
    0.6398    1.7809   -1.2289 H   0  0  0  0  0  0  0  0  0  0  0  0
   -0.1774    0.3258   -2.5944 C   0  0  0  0  0  0  0  0  0  0  0  0
   -1.0939   -0.2614   -2.7079 H   0  0  0  0  0  0  0  0  0  0  0  0
   -0.1004    0.9857   -3.4640 H   0  0  0  0  0  0  0  0  0  0  0  0
    1.2647   -0.8182   -2.5750 S   0  0  0  0  0  0  0  0  0  0  0  0
    2.7004    0.3200   -2.7072 C   0  0  0  0  0  0  0  0  0  0  0  0
    2.7699    0.9552   -1.8198 H   0  0  0  0  0  0  0  0  0  0  0  0
    3.6263   -0.2561   -2.7950 H   0  0  0  0  0  0  0  0  0  0  0  0
    2.5995    0.9565   -3.5912 H   0  0  0  0  0  0  0  0  0  0  0  0
   -0.3213    1.2333    1.2078 C   0  0  0  0  0  0  0  0  0  0  0  0
   -1.0947    2.1718    1.3639 O   0  0  0  0  0  0  0  0  0  0  0  0
    0.6741    1.0026    2.1381 N   0  0  0  0  0  0  0  0  0  0  0  0
    1.1770    0.1220    2.0546 H   0  0  0  0  0  0  0  0  0  0  0  0
    0.7902    1.7578    3.3790 C   0  0  0  0  0  0  0  0  0  0  0  0
   -0.1064    1.6254    3.9936 H   0  0  0  0  0  0  0  0  0  0  0  0
    1.6572    1.4133    3.9509 H   0  0  0  0  0  0  0  0  0  0  0  0
    0.9194    2.8247    3.1682 H   0  0  0  0  0  0  0  0  0  0  0  0
  1  2  1  0  0  0  0
  2  3  1  0  0  0  0
  2  4  1  0  0  0  0
  2  5  1  0  0  0  0
  5  6  2  0  0  0  0
  5  7  1  0  0  0  0
  7  8  1  0  0  0  0
  7  9  1  0  0  0  0
  9 10  1  0  0  0  0
  9 11  1  0  0  0  0
  9 22  1  0  0  0  0
 11 12  1  0  0  0  0
 11 13  1  0  0  0  0
 11 14  1  0  0  0  0
 14 15  1  0  0  0  0
 14 16  1  0  0  0  0
 14 17  1  0  0  0  0
 17 18  1  0  0  0  0
 18 19  1  0  0  0  0
 18 20  1  0  0  0  0
 18 21  1  0  0  0  0
 22 23  2  0  0  0  0
 22 24  1  0  0  0  0
 24 25  1  0  0  0  0
 24 26  1  0  0  0  0
 26 27  1  0  0  0  0
 26 28  1  0  0  0  0
 26 29  1  0  0  0  0
M  END
$$$$

  -OEChem-01062216093D

 29 28  0     1  0  0  0  0  0999 V2000
   -3.3887   -3.0781    1.1122 H   0  0  0  0  0  0  0  0  0  0  0  0
   -3.3888   -2.1108    0.6020 C   0  0  0  0  0  0  0  0  0  0  0  0
   -4.0002   -1.4103    1.1760 H   0  0  0  0  0  0  0  0  0  0  0  0
   -3.8250   -2.2370   -0.3917 H   0  0  0  0  0  0  0  0  0  0  0  0
   -1.9717   -1.5836    0.4816 C   0  0  0  0  0  0  0  0  0  0  0  0
   -1.0411   -2.2294    0.9374 O   0  0  0  0  0  0  0  0  0  0  0  0
   -1.7484   -0.3539   -0.1034 N   0  0  0  0  0  0  0  0  0  0  0  0
   -2.5685    0.2334   -0.2291 H   0  0  0  0  0  0  0  0  0  0  0  0
   -0.4429    0.3224   -0.0520 C   0  0  1  0  0  0  0  0  0  0  0  0
    0.3660   -0.4134    0.0001 H   0  0  0  0  0  0  0  0  0  0  0  0
   -0.2658    1.1698   -1.3260 C   0  0  0  0  0  0  0  0  0  0  0  0
   -1.1100    1.8613   -1.4174 H   0  0  0  0  0  0  0  0  0  0  0  0
    0.6391    1.7771   -1.2306 H   0  0  0  0  0  0  0  0  0  0  0  0
   -0.1671    0.3290   -2.6071 C   0  0  0  0  0  0  0  0  0  0  0  0
   -1.0813   -0.2605   -2.7295 H   0  0  0  0  0  0  0  0  0  0  0  0
   -0.0863    0.9934   -3.4730 H   0  0  0  0  0  0  0  0  0  0  0  0
    1.2781   -0.8114   -2.5841 S   0  0  0  0  0  0  0  0  0  0  0  0
    2.7148    0.3273   -2.7011 C   0  0  0  0  0  0  0  0  0  0  0  0
    2.7773    0.9603   -1.8115 H   0  0  0  0  0  0  0  0  0  0  0  0
    3.6412   -0.2490   -2.7825 H   0  0  0  0  0  0  0  0  0  0  0  0
    2.6218    0.9660   -3.5843 H   0  0  0  0  0  0  0  0  0  0  0  0
   -0.3370    1.2285    1.1902 C   0  0  0  0  0  0  0  0  0  0  0  0
   -1.2491    2.0012    1.4638 O   0  0  0  0  0  0  0  0  0  0  0  0
    0.8074    1.2180    1.9650 N   0  0  0  0  0  0  0  0  0  0  0  0
    1.4751    0.4727    1.7850 H   0  0  0  0  0  0  0  0  0  0  0  0
    0.9433    1.9975    3.1891 C   0  0  0  0  0  0  0  0  0  0  0  0
    0.1878    1.6953    3.9219 H   0  0  0  0  0  0  0  0  0  0  0  0
    1.9337    1.8425    3.6278 H   0  0  0  0  0  0  0  0  0  0  0  0
    0.8234    3.0657    2.9793 H   0  0  0  0  0  0  0  0  0  0  0  0
  1  2  1  0  0  0  0
  2  3  1  0  0  0  0
  2  4  1  0  0  0  0
  2  5  1  0  0  0  0
  5  6  2  0  0  0  0
  5  7  1  0  0  0  0
  7  8  1  0  0  0  0
  7  9  1  0  0  0  0
  9 10  1  0  0  0  0
  9 11  1  0  0  0  0
  9 22  1  0  0  0  0
 11 12  1  0  0  0  0
 11 13  1  0  0  0  0
 11 14  1  0  0  0  0
 14 15  1  0  0  0  0
 14 16  1  0  0  0  0
 14 17  1  0  0  0  0
 17 18  1  0  0  0  0
 18 19  1  0  0  0  0
 18 20  1  0  0  0  0
 18 21  1  0  0  0  0
 22 23  2  0  0  0  0
 22 24  1  0  0  0  0
 24 25  1  0  0  0  0
 24 26  1  0  0  0  0
 26 27  1  0  0  0  0
 26 28  1  0  0  0  0
 26 29  1  0  0  0  0
M  END
$$$$

  -OEChem-01062216093D

 29 28  0     1  0  0  0  0  0999 V2000
   -3.3923   -3.0735    1.1274 H   0  0  0  0  0  0  0  0  0  0  0  0
   -3.3957   -2.1062    0.6174 C   0  0  0  0  0  0  0  0  0  0  0  0
   -3.9849   -1.3998    1.2072 H   0  0  0  0  0  0  0  0  0  0  0  0
   -3.8589   -2.2276   -0.3644 H   0  0  0  0  0  0  0  0  0  0  0  0
   -1.9765   -1.5937    0.4608 C   0  0  0  0  0  0  0  0  0  0  0  0
   -1.0418   -2.2559    0.8832 O   0  0  0  0  0  0  0  0  0  0  0  0
   -1.7557   -0.3633   -0.1242 N   0  0  0  0  0  0  0  0  0  0  0  0
   -2.5753    0.2329   -0.2027 H   0  0  0  0  0  0  0  0  0  0  0  0
   -0.4516    0.3164   -0.0581 C   0  0  1  0  0  0  0  0  0  0  0  0
    0.3586   -0.4174    0.0017 H   0  0  0  0  0  0  0  0  0  0  0  0
   -0.2701    1.1656   -1.3303 C   0  0  0  0  0  0  0  0  0  0  0  0
   -1.1181    1.8519   -1.4272 H   0  0  0  0  0  0  0  0  0  0  0  0
    0.6306    1.7783   -1.2298 H   0  0  0  0  0  0  0  0  0  0  0  0
   -0.1594    0.3252   -2.6107 C   0  0  0  0  0  0  0  0  0  0  0  0
   -1.0699   -0.2688   -2.7385 H   0  0  0  0  0  0  0  0  0  0  0  0
   -0.0762    0.9897   -3.4762 H   0  0  0  0  0  0  0  0  0  0  0  0
    1.2907   -0.8083   -2.5785 S   0  0  0  0  0  0  0  0  0  0  0  0
    2.7218    0.3379   -2.6868 C   0  0  0  0  0  0  0  0  0  0  0  0
    2.7751    0.9712   -1.7970 H   0  0  0  0  0  0  0  0  0  0  0  0
    3.6517   -0.2337   -2.7625 H   0  0  0  0  0  0  0  0  0  0  0  0
    2.6305    0.9760   -3.5709 H   0  0  0  0  0  0  0  0  0  0  0  0
   -0.3523    1.2264    1.1827 C   0  0  0  0  0  0  0  0  0  0  0  0
   -1.3438    1.8249    1.5866 O   0  0  0  0  0  0  0  0  0  0  0  0
    0.8725    1.4540    1.7825 N   0  0  0  0  0  0  0  0  0  0  0  0
    1.6454    0.8625    1.4899 H   0  0  0  0  0  0  0  0  0  0  0  0
    1.0295    2.2700    2.9802 C   0  0  0  0  0  0  0  0  0  0  0  0
    0.4551    1.8457    3.8104 H   0  0  0  0  0  0  0  0  0  0  0  0
    2.0828    2.3128    3.2734 H   0  0  0  0  0  0  0  0  0  0  0  0
    0.6817    3.2920    2.7965 H   0  0  0  0  0  0  0  0  0  0  0  0
  1  2  1  0  0  0  0
  2  3  1  0  0  0  0
  2  4  1  0  0  0  0
  2  5  1  0  0  0  0
  5  6  2  0  0  0  0
  5  7  1  0  0  0  0
  7  8  1  0  0  0  0
  7  9  1  0  0  0  0
  9 10  1  0  0  0  0
  9 11  1  0  0  0  0
  9 22  1  0  0  0  0
 11 12  1  0  0  0  0
 11 13  1  0  0  0  0
 11 14  1  0  0  0  0
 14 15  1  0  0  0  0
 14 16  1  0  0  0  0
 14 17  1  0  0  0  0
 17 18  1  0  0  0  0
 18 19  1  0  0  0  0
 18 20  1  0  0  0  0
 18 21  1  0  0  0  0
 22 23  2  0  0  0  0
 22 24  1  0  0  0  0
 24 25  1  0  0  0  0
 24 26  1  0  0  0  0
 26 27  1  0  0  0  0
 26 28  1  0  0  0  0
 26 29  1  0  0  0  0
M  END
$$$$

  -OEChem-01062216093D

 29 28  0     1  0  0  0  0  0999 V2000
   -3.3984   -3.0634    1.1408 H   0  0  0  0  0  0  0  0  0  0  0  0
   -3.4004   -2.0957    0.6312 C   0  0  0  0  0  0  0  0  0  0  0  0
   -3.9643   -1.3810    1.2358 H   0  0  0  0  0  0  0  0  0  0  0  0
   -3.8892   -2.2092   -0.3393 H   0  0  0  0  0  0  0  0  0  0  0  0
   -1.9782   -1.6035    0.4405 C   0  0  0  0  0  0  0  0  0  0  0  0
   -1.0429   -2.2854    0.8287 O   0  0  0  0  0  0  0  0  0  0  0  0
   -1.7584   -0.3718   -0.1425 N   0  0  0  0  0  0  0  0  0  0  0  0
   -2.5775    0.2286   -0.1848 H   0  0  0  0  0  0  0  0  0  0  0  0
   -0.4555    0.3100   -0.0606 C   0  0  1  0  0  0  0  0  0  0  0  0
    0.3576   -0.4202    0.0058 H   0  0  0  0  0  0  0  0  0  0  0  0
   -0.2745    1.1590   -1.3342 C   0  0  0  0  0  0  0  0  0  0  0  0
   -1.1266    1.8397   -1.4344 H   0  0  0  0  0  0  0  0  0  0  0  0
    0.6222    1.7775   -1.2345 H   0  0  0  0  0  0  0  0  0  0  0  0
   -0.1540    0.3186   -2.6139 C   0  0  0  0  0  0  0  0  0  0  0  0
   -1.0600   -0.2820   -2.7441 H   0  0  0  0  0  0  0  0  0  0  0  0
   -0.0726    0.9827   -3.4798 H   0  0  0  0  0  0  0  0  0  0  0  0
    1.3032   -0.8057   -2.5756 S   0  0  0  0  0  0  0  0  0  0  0  0
    2.7290    0.3475   -2.6794 C   0  0  0  0  0  0  0  0  0  0  0  0
    2.7763    0.9825   -1.7907 H   0  0  0  0  0  0  0  0  0  0  0  0
    3.6619   -0.2197   -2.7504 H   0  0  0  0  0  0  0  0  0  0  0  0
    2.6385    0.9837   -3.5647 H   0  0  0  0  0  0  0  0  0  0  0  0
   -0.3656    1.2219    1.1819 C   0  0  0  0  0  0  0  0  0  0  0  0
   -1.3865    1.6334    1.7232 O   0  0  0  0  0  0  0  0  0  0  0  0
    0.8617    1.6981    1.6058 N   0  0  0  0  0  0  0  0  0  0  0  0
    1.6886    1.2778    1.1912 H   0  0  0  0  0  0  0  0  0  0  0  0
    1.0209    2.5539    2.7752 C   0  0  0  0  0  0  0  0  0  0  0  0
    0.6610    2.0430    3.6747 H   0  0  0  0  0  0  0  0  0  0  0  0
    2.0760    2.8064    2.9185 H   0  0  0  0  0  0  0  0  0  0  0  0
    0.4582    3.4850    2.6492 H   0  0  0  0  0  0  0  0  0  0  0  0
  1  2  1  0  0  0  0
  2  3  1  0  0  0  0
  2  4  1  0  0  0  0
  2  5  1  0  0  0  0
  5  6  2  0  0  0  0
  5  7  1  0  0  0  0
  7  8  1  0  0  0  0
  7  9  1  0  0  0  0
  9 10  1  0  0  0  0
  9 11  1  0  0  0  0
  9 22  1  0  0  0  0
 11 12  1  0  0  0  0
 11 13  1  0  0  0  0
 11 14  1  0  0  0  0
 14 15  1  0  0  0  0
 14 16  1  0  0  0  0
 14 17  1  0  0  0  0
 17 18  1  0  0  0  0
 18 19  1  0  0  0  0
 18 20  1  0  0  0  0
 18 21  1  0  0  0  0
 22 23  2  0  0  0  0
 22 24  1  0  0  0  0
 24 25  1  0  0  0  0
 24 26  1  0  0  0  0
 26 27  1  0  0  0  0
 26 28  1  0  0  0  0
 26 29  1  0  0  0  0
M  END
$$$$

  -OEChem-01062216093D

 29 28  0     1  0  0  0  0  0999 V2000
   -3.3341   -3.0747    1.1730 H   0  0  0  0  0  0  0  0  0  0  0  0
   -3.3690   -2.0982    0.6819 C   0  0  0  0  0  0  0  0  0  0  0  0
   -3.8817   -1.3921    1.3398 H   0  0  0  0  0  0  0  0  0  0  0  0
   -3.9285   -2.1917   -0.2519 H   0  0  0  0  0  0  0  0  0  0  0  0
   -1.9626   -1.6078    0.3972 C   0  0  0  0  0  0  0  0  0  0  0  0
   -1.0038   -2.3097    0.6800 O   0  0  0  0  0  0  0  0  0  0  0  0
   -1.7764   -0.3663   -0.1790 N   0  0  0  0  0  0  0  0  0  0  0  0
   -2.6007    0.2261   -0.1617 H   0  0  0  0  0  0  0  0  0  0  0  0
   -0.4749    0.3169   -0.0790 C   0  0  1  0  0  0  0  0  0  0  0  0
    0.3357   -0.3922   -0.2770 H   0  0  0  0  0  0  0  0  0  0  0  0
   -0.4498    1.4355   -1.1423 C   0  0  0  0  0  0  0  0  0  0  0  0
   -1.3126    2.0924   -0.9910 H   0  0  0  0  0  0  0  0  0  0  0  0
    0.4471    2.0473   -1.0124 H   0  0  0  0  0  0  0  0  0  0  0  0
   -0.4703    0.9059   -2.5840 C   0  0  0  0  0  0  0  0  0  0  0  0
   -1.3800    0.3189   -2.7466 H   0  0  0  0  0  0  0  0  0  0  0  0
   -0.4950    1.7492   -3.2813 H   0  0  0  0  0  0  0  0  0  0  0  0
    0.9914   -0.1474   -2.9616 S   0  0  0  0  0  0  0  0  0  0  0  0
    2.3890    1.0443   -2.9611 C   0  0  0  0  0  0  0  0  0  0  0  0
    2.5347    1.4666   -1.9632 H   0  0  0  0  0  0  0  0  0  0  0  0
    3.3108    0.5366   -3.2611 H   0  0  0  0  0  0  0  0  0  0  0  0
    2.1931    1.8580   -3.6656 H   0  0  0  0  0  0  0  0  0  0  0  0
   -0.2293    0.9137    1.3292 C   0  0  0  0  0  0  0  0  0  0  0  0
   -1.1388    0.9708    2.1505 O   0  0  0  0  0  0  0  0  0  0  0  0
    0.9475    1.5887    1.6031 N   0  0  0  0  0  0  0  0  0  0  0  0
    1.7087    1.4769    0.9403 H   0  0  0  0  0  0  0  0  0  0  0  0
    1.2288    2.2013    2.8963 C   0  0  0  0  0  0  0  0  0  0  0  0
    1.2116    1.4466    3.6898 H   0  0  0  0  0  0  0  0  0  0  0  0
    2.2170    2.6708    2.8860 H   0  0  0  0  0  0  0  0  0  0  0  0
    0.4843    2.9708    3.1261 H   0  0  0  0  0  0  0  0  0  0  0  0
  1  2  1  0  0  0  0
  2  3  1  0  0  0  0
  2  4  1  0  0  0  0
  2  5  1  0  0  0  0
  5  6  2  0  0  0  0
  5  7  1  0  0  0  0
  7  8  1  0  0  0  0
  7  9  1  0  0  0  0
  9 10  1  0  0  0  0
  9 11  1  0  0  0  0
  9 22  1  0  0  0  0
 11 12  1  0  0  0  0
 11 13  1  0  0  0  0
 11 14  1  0  0  0  0
 14 15  1  0  0  0  0
 14 16  1  0  0  0  0
 14 17  1  0  0  0  0
 17 18  1  0  0  0  0
 18 19  1  0  0  0  0
 18 20  1  0  0  0  0
 18 21  1  0  0  0  0
 22 23  2  0  0  0  0
 22 24  1  0  0  0  0
 24 25  1  0  0  0  0
 24 26  1  0  0  0  0
 26 27  1  0  0  0  0
 26 28  1  0  0  0  0
 26 29  1  0  0  0  0
M  END
$$$$

  -OEChem-01062216093D

 29 28  0     1  0  0  0  0  0999 V2000
   -3.3252   -3.0942    1.1205 H   0  0  0  0  0  0  0  0  0  0  0  0
   -3.3616   -2.0855    0.6998 C   0  0  0  0  0  0  0  0  0  0  0  0
   -3.8254   -1.4173    1.4295 H   0  0  0  0  0  0  0  0  0  0  0  0
   -3.9678   -2.1038   -0.2087 H   0  0  0  0  0  0  0  0  0  0  0  0
   -1.9594   -1.6036    0.3798 C   0  0  0  0  0  0  0  0  0  0  0  0
   -1.0012   -2.3248    0.6109 O   0  0  0  0  0  0  0  0  0  0  0  0
   -1.7779   -0.3563   -0.1872 N   0  0  0  0  0  0  0  0  0  0  0  0
   -2.6027    0.2339   -0.1528 H   0  0  0  0  0  0  0  0  0  0  0  0
   -0.4768    0.3291   -0.0817 C   0  0  1  0  0  0  0  0  0  0  0  0
    0.3361   -0.3783   -0.2760 H   0  0  0  0  0  0  0  0  0  0  0  0
   -0.4545    1.4360   -1.1603 C   0  0  0  0  0  0  0  0  0  0  0  0
   -1.3201    2.0915   -1.0196 H   0  0  0  0  0  0  0  0  0  0  0  0
    0.4399    2.0528   -1.0427 H   0  0  0  0  0  0  0  0  0  0  0  0
   -0.4669    0.8865   -2.5955 C   0  0  0  0  0  0  0  0  0  0  0  0
   -1.3727    0.2926   -2.7540 H   0  0  0  0  0  0  0  0  0  0  0  0
   -0.4937    1.7200   -3.3044 H   0  0  0  0  0  0  0  0  0  0  0  0
    1.0009   -0.1639   -2.9570 S   0  0  0  0  0  0  0  0  0  0  0  0
    2.3938    1.0332   -2.9694 C   0  0  0  0  0  0  0  0  0  0  0  0
    2.5351    1.4688   -1.9767 H   0  0  0  0  0  0  0  0  0  0  0  0
    3.3184    0.5251   -3.2598 H   0  0  0  0  0  0  0  0  0  0  0  0
    2.1971    1.8369   -3.6852 H   0  0  0  0  0  0  0  0  0  0  0  0
   -0.2309    0.9178    1.3345 C   0  0  0  0  0  0  0  0  0  0  0  0
   -1.0453    0.7462    2.2352 O   0  0  0  0  0  0  0  0  0  0  0  0
    0.7752    1.8453    1.5480 N   0  0  0  0  0  0  0  0  0  0  0  0
    1.4709    1.9502    0.8163 H   0  0  0  0  0  0  0  0  0  0  0  0
    1.0181    2.4760    2.8407 C   0  0  0  0  0  0  0  0  0  0  0  0
    1.2352    1.7187    3.6016 H   0  0  0  0  0  0  0  0  0  0  0  0
    1.8725    3.1565    2.7755 H   0  0  0  0  0  0  0  0  0  0  0  0
    0.1423    3.0523    3.1575 H   0  0  0  0  0  0  0  0  0  0  0  0
  1  2  1  0  0  0  0
  2  3  1  0  0  0  0
  2  4  1  0  0  0  0
  2  5  1  0  0  0  0
  5  6  2  0  0  0  0
  5  7  1  0  0  0  0
  7  8  1  0  0  0  0
  7  9  1  0  0  0  0
  9 10  1  0  0  0  0
  9 11  1  0  0  0  0
  9 22  1  0  0  0  0
 11 12  1  0  0  0  0
 11 13  1  0  0  0  0
 11 14  1  0  0  0  0
 14 15  1  0  0  0  0
 14 16  1  0  0  0  0
 14 17  1  0  0  0  0
 17 18  1  0  0  0  0
 18 19  1  0  0  0  0
 18 20  1  0  0  0  0
 18 21  1  0  0  0  0
 22 23  2  0  0  0  0
 22 24  1  0  0  0  0
 24 25  1  0  0  0  0
 24 26  1  0  0  0  0
 26 27  1  0  0  0  0
 26 28  1  0  0  0  0
 26 29  1  0  0  0  0
M  END
$$$$

  -OEChem-01062216093D

 29 28  0     1  0  0  0  0  0999 V2000
   -3.3216   -3.0987    1.0952 H   0  0  0  0  0  0  0  0  0  0  0  0
   -3.3559   -2.0742    0.7143 C   0  0  0  0  0  0  0  0  0  0  0  0
   -3.7872   -1.4284    1.4833 H   0  0  0  0  0  0  0  0  0  0  0  0
   -3.9900   -2.0497   -0.1749 H   0  0  0  0  0  0  0  0  0  0  0  0
   -1.9570   -1.5997    0.3700 C   0  0  0  0  0  0  0  0  0  0  0  0
   -1.0026   -2.3391    0.5531 O   0  0  0  0  0  0  0  0  0  0  0  0
   -1.7775   -0.3476   -0.1880 N   0  0  0  0  0  0  0  0  0  0  0  0
   -2.6039    0.2396   -0.1499 H   0  0  0  0  0  0  0  0  0  0  0  0
   -0.4769    0.3406   -0.0833 C   0  0  1  0  0  0  0  0  0  0  0  0
    0.3371   -0.3664   -0.2760 H   0  0  0  0  0  0  0  0  0  0  0  0
   -0.4559    1.4369   -1.1743 C   0  0  0  0  0  0  0  0  0  0  0  0
   -1.3211    2.0945   -1.0406 H   0  0  0  0  0  0  0  0  0  0  0  0
    0.4404    2.0525   -1.0669 H   0  0  0  0  0  0  0  0  0  0  0  0
   -0.4643    0.8730   -2.6042 C   0  0  0  0  0  0  0  0  0  0  0  0
   -1.3682    0.2749   -2.7577 H   0  0  0  0  0  0  0  0  0  0  0  0
   -0.4929    1.6995   -3.3212 H   0  0  0  0  0  0  0  0  0  0  0  0
    1.0060   -0.1771   -2.9555 S   0  0  0  0  0  0  0  0  0  0  0  0
    2.3994    1.0192   -2.9793 C   0  0  0  0  0  0  0  0  0  0  0  0
    2.5427    1.4631   -1.9906 H   0  0  0  0  0  0  0  0  0  0  0  0
    3.3232    0.5077   -3.2666 H   0  0  0  0  0  0  0  0  0  0  0  0
    2.2027    1.8169   -3.7017 H   0  0  0  0  0  0  0  0  0  0  0  0
   -0.2265    0.9220    1.3385 C   0  0  0  0  0  0  0  0  0  0  0  0
   -0.8839    0.5383    2.2989 O   0  0  0  0  0  0  0  0  0  0  0  0
    0.5479    2.0566    1.5211 N   0  0  0  0  0  0  0  0  0  0  0  0
    1.1114    2.3667    0.7364 H   0  0  0  0  0  0  0  0  0  0  0  0
    0.7395    2.6986    2.8173 C   0  0  0  0  0  0  0  0  0  0  0  0
    1.1905    1.9992    3.5292 H   0  0  0  0  0  0  0  0  0  0  0  0
    1.4006    3.5647    2.7166 H   0  0  0  0  0  0  0  0  0  0  0  0
   -0.2191    3.0421    3.2206 H   0  0  0  0  0  0  0  0  0  0  0  0
  1  2  1  0  0  0  0
  2  3  1  0  0  0  0
  2  4  1  0  0  0  0
  2  5  1  0  0  0  0
  5  6  2  0  0  0  0
  5  7  1  0  0  0  0
  7  8  1  0  0  0  0
  7  9  1  0  0  0  0
  9 10  1  0  0  0  0
  9 11  1  0  0  0  0
  9 22  1  0  0  0  0
 11 12  1  0  0  0  0
 11 13  1  0  0  0  0
 11 14  1  0  0  0  0
 14 15  1  0  0  0  0
 14 16  1  0  0  0  0
 14 17  1  0  0  0  0
 17 18  1  0  0  0  0
 18 19  1  0  0  0  0
 18 20  1  0  0  0  0
 18 21  1  0  0  0  0
 22 23  2  0  0  0  0
 22 24  1  0  0  0  0
 24 25  1  0  0  0  0
 24 26  1  0  0  0  0
 26 27  1  0  0  0  0
 26 28  1  0  0  0  0
 26 29  1  0  0  0  0
M  END
$$$$

  -OEChem-01062216093D

 29 28  0     1  0  0  0  0  0999 V2000
   -3.3116   -3.0807    1.1363 H   0  0  0  0  0  0  0  0  0  0  0  0
   -3.3541   -2.0698    0.7213 C   0  0  0  0  0  0  0  0  0  0  0  0
   -3.7974   -1.4040    1.4658 H   0  0  0  0  0  0  0  0  0  0  0  0
   -3.9821   -2.0813   -0.1725 H   0  0  0  0  0  0  0  0  0  0  0  0
   -1.9578   -1.5929    0.3692 C   0  0  0  0  0  0  0  0  0  0  0  0
   -1.0066   -2.3435    0.5160 O   0  0  0  0  0  0  0  0  0  0  0  0
   -1.7836   -0.3368   -0.1827 N   0  0  0  0  0  0  0  0  0  0  0  0
   -2.6146    0.2439   -0.1525 H   0  0  0  0  0  0  0  0  0  0  0  0
   -0.4869    0.3605   -0.0862 C   0  0  1  0  0  0  0  0  0  0  0  0
    0.3279   -0.3469   -0.2739 H   0  0  0  0  0  0  0  0  0  0  0  0
   -0.4595    1.4435   -1.1901 C   0  0  0  0  0  0  0  0  0  0  0  0
   -1.3249    2.1035   -1.0716 H   0  0  0  0  0  0  0  0  0  0  0  0
    0.4396    2.0560   -1.0838 H   0  0  0  0  0  0  0  0  0  0  0  0
   -0.4579    0.8621   -2.6129 C   0  0  0  0  0  0  0  0  0  0  0  0
   -1.3605    0.2613   -2.7639 H   0  0  0  0  0  0  0  0  0  0  0  0
   -0.4825    1.6794   -3.3406 H   0  0  0  0  0  0  0  0  0  0  0  0
    1.0145   -0.1914   -2.9437 S   0  0  0  0  0  0  0  0  0  0  0  0
    2.4070    1.0057   -2.9731 C   0  0  0  0  0  0  0  0  0  0  0  0
    2.5495    1.4544   -1.9863 H   0  0  0  0  0  0  0  0  0  0  0  0
    3.3313    0.4934   -3.2570 H   0  0  0  0  0  0  0  0  0  0  0  0
    2.2100    1.7995   -3.6996 H   0  0  0  0  0  0  0  0  0  0  0  0
   -0.2299    0.9388    1.3362 C   0  0  0  0  0  0  0  0  0  0  0  0
   -0.6444    0.3638    2.3342 O   0  0  0  0  0  0  0  0  0  0  0  0
    0.2621    2.2224    1.5155 N   0  0  0  0  0  0  0  0  0  0  0  0
    0.5995    2.7144    0.6951 H   0  0  0  0  0  0  0  0  0  0  0  0
    0.4310    2.8433    2.8252 C   0  0  0  0  0  0  0  0  0  0  0  0
    1.1116    2.2503    3.4455 H   0  0  0  0  0  0  0  0  0  0  0  0
    0.8485    3.8489    2.7173 H   0  0  0  0  0  0  0  0  0  0  0  0
   -0.5331    2.9237    3.3385 H   0  0  0  0  0  0  0  0  0  0  0  0
  1  2  1  0  0  0  0
  2  3  1  0  0  0  0
  2  4  1  0  0  0  0
  2  5  1  0  0  0  0
  5  6  2  0  0  0  0
  5  7  1  0  0  0  0
  7  8  1  0  0  0  0
  7  9  1  0  0  0  0
  9 10  1  0  0  0  0
  9 11  1  0  0  0  0
  9 22  1  0  0  0  0
 11 12  1  0  0  0  0
 11 13  1  0  0  0  0
 11 14  1  0  0  0  0
 14 15  1  0  0  0  0
 14 16  1  0  0  0  0
 14 17  1  0  0  0  0
 17 18  1  0  0  0  0
 18 19  1  0  0  0  0
 18 20  1  0  0  0  0
 18 21  1  0  0  0  0
 22 23  2  0  0  0  0
 22 24  1  0  0  0  0
 24 25  1  0  0  0  0
 24 26  1  0  0  0  0
 26 27  1  0  0  0  0
 26 28  1  0  0  0  0
 26 29  1  0  0  0  0
M  END
$$$$

  -OEChem-01062216093D

 29 28  0     1  0  0  0  0  0999 V2000
   -3.3178   -3.0772    1.1453 H   0  0  0  0  0  0  0  0  0  0  0  0
   -3.3601   -2.0712    0.7182 C   0  0  0  0  0  0  0  0  0  0  0  0
   -3.8159   -1.3992    1.4493 H   0  0  0  0  0  0  0  0  0  0  0  0
   -3.9772   -2.0963   -0.1831 H   0  0  0  0  0  0  0  0  0  0  0  0
   -1.9614   -1.5922    0.3784 C   0  0  0  0  0  0  0  0  0  0  0  0
   -1.0136   -2.3460    0.5239 O   0  0  0  0  0  0  0  0  0  0  0  0
   -1.7859   -0.3365   -0.1738 N   0  0  0  0  0  0  0  0  0  0  0  0
   -2.6218    0.2375   -0.1740 H   0  0  0  0  0  0  0  0  0  0  0  0
   -0.4927    0.3680   -0.0846 C   0  0  1  0  0  0  0  0  0  0  0  0
    0.3240   -0.3387   -0.2681 H   0  0  0  0  0  0  0  0  0  0  0  0
   -0.4594    1.4477   -1.1904 C   0  0  0  0  0  0  0  0  0  0  0  0
   -1.3255    2.1080   -1.0792 H   0  0  0  0  0  0  0  0  0  0  0  0
    0.4408    2.0582   -1.0750 H   0  0  0  0  0  0  0  0  0  0  0  0
   -0.4524    0.8639   -2.6122 C   0  0  0  0  0  0  0  0  0  0  0  0
   -1.3548    0.2635   -2.7655 H   0  0  0  0  0  0  0  0  0  0  0  0
   -0.4734    1.6796   -3.3416 H   0  0  0  0  0  0  0  0  0  0  0  0
    1.0198   -0.1918   -2.9351 S   0  0  0  0  0  0  0  0  0  0  0  0
    2.4159    1.0012   -2.9611 C   0  0  0  0  0  0  0  0  0  0  0  0
    2.5534    1.4532   -1.9750 H   0  0  0  0  0  0  0  0  0  0  0  0
    3.3404    0.4851   -3.2374 H   0  0  0  0  0  0  0  0  0  0  0  0
    2.2259    1.7927   -3.6918 H   0  0  0  0  0  0  0  0  0  0  0  0
   -0.2370    0.9490    1.3348 C   0  0  0  0  0  0  0  0  0  0  0  0
   -0.3610    0.2548    2.3337 O   0  0  0  0  0  0  0  0  0  0  0  0
   -0.0538    2.3089    1.5323 N   0  0  0  0  0  0  0  0  0  0  0  0
    0.0242    2.8974    0.7097 H   0  0  0  0  0  0  0  0  0  0  0  0
    0.0998    2.9166    2.8497 C   0  0  0  0  0  0  0  0  0  0  0  0
    0.9734    2.5013    3.3634 H   0  0  0  0  0  0  0  0  0  0  0  0
    0.2360    3.9982    2.7549 H   0  0  0  0  0  0  0  0  0  0  0  0
   -0.7891    2.7329    3.4627 H   0  0  0  0  0  0  0  0  0  0  0  0
  1  2  1  0  0  0  0
  2  3  1  0  0  0  0
  2  4  1  0  0  0  0
  2  5  1  0  0  0  0
  5  6  2  0  0  0  0
  5  7  1  0  0  0  0
  7  8  1  0  0  0  0
  7  9  1  0  0  0  0
  9 10  1  0  0  0  0
  9 11  1  0  0  0  0
  9 22  1  0  0  0  0
 11 12  1  0  0  0  0
 11 13  1  0  0  0  0
 11 14  1  0  0  0  0
 14 15  1  0  0  0  0
 14 16  1  0  0  0  0
 14 17  1  0  0  0  0
 17 18  1  0  0  0  0
 18 19  1  0  0  0  0
 18 20  1  0  0  0  0
 18 21  1  0  0  0  0
 22 23  2  0  0  0  0
 22 24  1  0  0  0  0
 24 25  1  0  0  0  0
 24 26  1  0  0  0  0
 26 27  1  0  0  0  0
 26 28  1  0  0  0  0
 26 29  1  0  0  0  0
M  END
$$$$

  -OEChem-01062216093D

 29 28  0     1  0  0  0  0  0999 V2000
   -3.3462   -3.0848    1.1359 H   0  0  0  0  0  0  0  0  0  0  0  0
   -3.3817   -2.0908    0.6810 C   0  0  0  0  0  0  0  0  0  0  0  0
   -3.8842   -1.4083    1.3706 H   0  0  0  0  0  0  0  0  0  0  0  0
   -3.9522   -2.1489   -0.2490 H   0  0  0  0  0  0  0  0  0  0  0  0
   -1.9751   -1.5982    0.3977 C   0  0  0  0  0  0  0  0  0  0  0  0
   -1.0272   -2.3380    0.5955 O   0  0  0  0  0  0  0  0  0  0  0  0
   -1.7926   -0.3448   -0.1566 N   0  0  0  0  0  0  0  0  0  0  0  0
   -2.6336    0.2182   -0.2180 H   0  0  0  0  0  0  0  0  0  0  0  0
   -0.5043    0.3684   -0.0723 C   0  0  1  0  0  0  0  0  0  0  0  0
    0.3140   -0.3377   -0.2519 H   0  0  0  0  0  0  0  0  0  0  0  0
   -0.4663    1.4474   -1.1771 C   0  0  0  0  0  0  0  0  0  0  0  0
   -1.3358    2.1044   -1.0746 H   0  0  0  0  0  0  0  0  0  0  0  0
    0.4302    2.0613   -1.0480 H   0  0  0  0  0  0  0  0  0  0  0  0
   -0.4515    0.8661   -2.5997 C   0  0  0  0  0  0  0  0  0  0  0  0
   -1.3524    0.2650   -2.7583 H   0  0  0  0  0  0  0  0  0  0  0  0
   -0.4693    1.6834   -3.3274 H   0  0  0  0  0  0  0  0  0  0  0  0
    1.0226   -0.1882   -2.9183 S   0  0  0  0  0  0  0  0  0  0  0  0
    2.4156    1.0086   -2.9344 C   0  0  0  0  0  0  0  0  0  0  0  0
    2.5427    1.4628   -1.9478 H   0  0  0  0  0  0  0  0  0  0  0  0
    3.3442    0.4948   -3.2008 H   0  0  0  0  0  0  0  0  0  0  0  0
    2.2303    1.7982   -3.6682 H   0  0  0  0  0  0  0  0  0  0  0  0
   -0.2497    0.9582    1.3406 C   0  0  0  0  0  0  0  0  0  0  0  0
   -0.0279    0.2350    2.2996 O   0  0  0  0  0  0  0  0  0  0  0  0
   -0.3815    2.3173    1.5805 N   0  0  0  0  0  0  0  0  0  0  0  0
   -0.5701    2.9191    0.7861 H   0  0  0  0  0  0  0  0  0  0  0  0
   -0.2006    2.9217    2.8958 C   0  0  0  0  0  0  0  0  0  0  0  0
    0.8193    2.7533    3.2575 H   0  0  0  0  0  0  0  0  0  0  0  0
   -0.3762    4.0005    2.8444 H   0  0  0  0  0  0  0  0  0  0  0  0
   -0.9050    2.4918    3.6160 H   0  0  0  0  0  0  0  0  0  0  0  0
  1  2  1  0  0  0  0
  2  3  1  0  0  0  0
  2  4  1  0  0  0  0
  2  5  1  0  0  0  0
  5  6  2  0  0  0  0
  5  7  1  0  0  0  0
  7  8  1  0  0  0  0
  7  9  1  0  0  0  0
  9 10  1  0  0  0  0
  9 11  1  0  0  0  0
  9 22  1  0  0  0  0
 11 12  1  0  0  0  0
 11 13  1  0  0  0  0
 11 14  1  0  0  0  0
 14 15  1  0  0  0  0
 14 16  1  0  0  0  0
 14 17  1  0  0  0  0
 17 18  1  0  0  0  0
 18 19  1  0  0  0  0
 18 20  1  0  0  0  0
 18 21  1  0  0  0  0
 22 23  2  0  0  0  0
 22 24  1  0  0  0  0
 24 25  1  0  0  0  0
 24 26  1  0  0  0  0
 26 27  1  0  0  0  0
 26 28  1  0  0  0  0
 26 29  1  0  0  0  0
M  END
$$$$

  -OEChem-01062216093D

 29 28  0     1  0  0  0  0  0999 V2000
   -3.4032   -3.1405    1.0295 H   0  0  0  0  0  0  0  0  0  0  0  0
   -3.4189   -2.1569    0.5514 C   0  0  0  0  0  0  0  0  0  0  0  0
   -4.0403   -1.4864    1.1496 H   0  0  0  0  0  0  0  0  0  0  0  0
   -3.8537   -2.2575   -0.4459 H   0  0  0  0  0  0  0  0  0  0  0  0
   -2.0089   -1.6062    0.4490 C   0  0  0  0  0  0  0  0  0  0  0  0
   -1.0702   -2.2884    0.8163 O   0  0  0  0  0  0  0  0  0  0  0  0
   -1.8056   -0.3568   -0.1055 N   0  0  0  0  0  0  0  0  0  0  0  0
   -2.6420    0.1697   -0.3310 H   0  0  0  0  0  0  0  0  0  0  0  0
   -0.5212    0.3639   -0.0322 C   0  0  1  0  0  0  0  0  0  0  0  0
    0.2955   -0.3438   -0.2145 H   0  0  0  0  0  0  0  0  0  0  0  0
   -0.4870    1.4433   -1.1351 C   0  0  0  0  0  0  0  0  0  0  0  0
   -1.3579    2.0976   -1.0324 H   0  0  0  0  0  0  0  0  0  0  0  0
    0.4064    2.0613   -1.0019 H   0  0  0  0  0  0  0  0  0  0  0  0
   -0.4746    0.8640   -2.5583 C   0  0  0  0  0  0  0  0  0  0  0  0
   -1.3750    0.2628   -2.7179 H   0  0  0  0  0  0  0  0  0  0  0  0
   -0.4923    1.6824   -3.2849 H   0  0  0  0  0  0  0  0  0  0  0  0
    1.0009   -0.1876   -2.8777 S   0  0  0  0  0  0  0  0  0  0  0  0
    2.3883    1.0155   -2.8925 C   0  0  0  0  0  0  0  0  0  0  0  0
    2.5167    1.4648   -1.9037 H   0  0  0  0  0  0  0  0  0  0  0  0
    3.3183    0.5078   -3.1650 H   0  0  0  0  0  0  0  0  0  0  0  0
    2.1965    1.8085   -3.6210 H   0  0  0  0  0  0  0  0  0  0  0  0
   -0.2530    0.9681    1.3692 C   0  0  0  0  0  0  0  0  0  0  0  0
    0.3816    0.3550    2.2135 O   0  0  0  0  0  0  0  0  0  0  0  0
   -0.6779    2.2502    1.6803 N   0  0  0  0  0  0  0  0  0  0  0  0
   -1.1813    2.7662    0.9672 H   0  0  0  0  0  0  0  0  0  0  0  0
   -0.4151    2.8905    2.9642 C   0  0  0  0  0  0  0  0  0  0  0  0
    0.6631    2.9910    3.1282 H   0  0  0  0  0  0  0  0  0  0  0  0
   -0.8633    3.8882    2.9894 H   0  0  0  0  0  0  0  0  0  0  0  0
   -0.8415    2.2995    3.7819 H   0  0  0  0  0  0  0  0  0  0  0  0
  1  2  1  0  0  0  0
  2  3  1  0  0  0  0
  2  4  1  0  0  0  0
  2  5  1  0  0  0  0
  5  6  2  0  0  0  0
  5  7  1  0  0  0  0
  7  8  1  0  0  0  0
  7  9  1  0  0  0  0
  9 10  1  0  0  0  0
  9 11  1  0  0  0  0
  9 22  1  0  0  0  0
 11 12  1  0  0  0  0
 11 13  1  0  0  0  0
 11 14  1  0  0  0  0
 14 15  1  0  0  0  0
 14 16  1  0  0  0  0
 14 17  1  0  0  0  0
 17 18  1  0  0  0  0
 18 19  1  0  0  0  0
 18 20  1  0  0  0  0
 18 21  1  0  0  0  0
 22 23  2  0  0  0  0
 22 24  1  0  0  0  0
 24 25  1  0  0  0  0
 24 26  1  0  0  0  0
 26 27  1  0  0  0  0
 26 28  1  0  0  0  0
 26 29  1  0  0  0  0
M  END
$$$$

  -OEChem-01062216093D

 29 28  0     1  0  0  0  0  0999 V2000
   -3.4146   -3.2256    0.8526 H   0  0  0  0  0  0  0  0  0  0  0  0
   -3.4133   -2.2463    0.3653 C   0  0  0  0  0  0  0  0  0  0  0  0
   -4.1975   -1.6307    0.8120 H   0  0  0  0  0  0  0  0  0  0  0  0
   -3.6245   -2.3832   -0.6979 H   0  0  0  0  0  0  0  0  0  0  0  0
   -2.0632   -1.5780    0.5449 C   0  0  0  0  0  0  0  0  0  0  0  0
   -1.1925   -2.1388    1.1833 O   0  0  0  0  0  0  0  0  0  0  0  0
   -1.8362   -0.3387   -0.0204 N   0  0  0  0  0  0  0  0  0  0  0  0
   -2.5789    0.0422   -0.5960 H   0  0  0  0  0  0  0  0  0  0  0  0
   -0.5405    0.3634    0.0253 C   0  0  1  0  0  0  0  0  0  0  0  0
    0.2583   -0.3610   -0.1716 H   0  0  0  0  0  0  0  0  0  0  0  0
   -0.5036    1.4488   -1.0697 C   0  0  0  0  0  0  0  0  0  0  0  0
   -1.3559    2.1237   -0.9441 H   0  0  0  0  0  0  0  0  0  0  0  0
    0.4052    2.0460   -0.9453 H   0  0  0  0  0  0  0  0  0  0  0  0
   -0.5274    0.8829   -2.4980 C   0  0  0  0  0  0  0  0  0  0  0  0
   -1.4423    0.3024   -2.6503 H   0  0  0  0  0  0  0  0  0  0  0  0
   -0.5386    1.7091   -3.2161 H   0  0  0  0  0  0  0  0  0  0  0  0
    0.9211   -0.1948   -2.8496 S   0  0  0  0  0  0  0  0  0  0  0  0
    2.3296    0.9842   -2.8754 C   0  0  0  0  0  0  0  0  0  0  0  0
    2.4819    1.4215   -1.8844 H   0  0  0  0  0  0  0  0  0  0  0  0
    3.2463    0.4632   -3.1669 H   0  0  0  0  0  0  0  0  0  0  0  0
    2.1405    1.7881   -3.5925 H   0  0  0  0  0  0  0  0  0  0  0  0
   -0.2309    0.9781    1.4110 C   0  0  0  0  0  0  0  0  0  0  0  0
    0.7403    0.6068    2.0540 O   0  0  0  0  0  0  0  0  0  0  0  0
   -0.8859    2.1265    1.8246 N   0  0  0  0  0  0  0  0  0  0  0  0
   -1.7085    2.4039    1.3008 H   0  0  0  0  0  0  0  0  0  0  0  0
   -0.5828    2.8096    3.0769 C   0  0  0  0  0  0  0  0  0  0  0  0
    0.4608    3.1417    3.0895 H   0  0  0  0  0  0  0  0  0  0  0  0
   -1.2248    3.6877    3.1947 H   0  0  0  0  0  0  0  0  0  0  0  0
   -0.7495    2.1404    3.9277 H   0  0  0  0  0  0  0  0  0  0  0  0
  1  2  1  0  0  0  0
  2  3  1  0  0  0  0
  2  4  1  0  0  0  0
  2  5  1  0  0  0  0
  5  6  2  0  0  0  0
  5  7  1  0  0  0  0
  7  8  1  0  0  0  0
  7  9  1  0  0  0  0
  9 10  1  0  0  0  0
  9 11  1  0  0  0  0
  9 22  1  0  0  0  0
 11 12  1  0  0  0  0
 11 13  1  0  0  0  0
 11 14  1  0  0  0  0
 14 15  1  0  0  0  0
 14 16  1  0  0  0  0
 14 17  1  0  0  0  0
 17 18  1  0  0  0  0
 18 19  1  0  0  0  0
 18 20  1  0  0  0  0
 18 21  1  0  0  0  0
 22 23  2  0  0  0  0
 22 24  1  0  0  0  0
 24 25  1  0  0  0  0
 24 26  1  0  0  0  0
 26 27  1  0  0  0  0
 26 28  1  0  0  0  0
 26 29  1  0  0  0  0
M  END
$$$$

  -OEChem-01062216093D

 29 28  0     1  0  0  0  0  0999 V2000
   -3.3764   -3.2631    0.7877 H   0  0  0  0  0  0  0  0  0  0  0  0
   -3.3861   -2.2837    0.3008 C   0  0  0  0  0  0  0  0  0  0  0  0
   -4.2308   -1.7077    0.6856 H   0  0  0  0  0  0  0  0  0  0  0  0
   -3.5094   -2.4288   -0.7750 H   0  0  0  0  0  0  0  0  0  0  0  0
   -2.0882   -1.5505    0.5812 C   0  0  0  0  0  0  0  0  0  0  0  0
   -1.2611   -2.0462    1.3239 O   0  0  0  0  0  0  0  0  0  0  0  0
   -1.8606   -0.3176    0.0024 N   0  0  0  0  0  0  0  0  0  0  0  0
   -2.5337   -0.0228   -0.6966 H   0  0  0  0  0  0  0  0  0  0  0  0
   -0.5513    0.3604    0.0394 C   0  0  1  0  0  0  0  0  0  0  0  0
    0.2343   -0.3763   -0.1649 H   0  0  0  0  0  0  0  0  0  0  0  0
   -0.5007    1.4586   -1.0406 C   0  0  0  0  0  0  0  0  0  0  0  0
   -1.3356    2.1511   -0.8941 H   0  0  0  0  0  0  0  0  0  0  0  0
    0.4225    2.0340   -0.9167 H   0  0  0  0  0  0  0  0  0  0  0  0
   -0.5504    0.9126   -2.4758 C   0  0  0  0  0  0  0  0  0  0  0  0
   -1.4806    0.3578   -2.6293 H   0  0  0  0  0  0  0  0  0  0  0  0
   -0.5469    1.7494   -3.1815 H   0  0  0  0  0  0  0  0  0  0  0  0
    0.8695   -0.1929   -2.8567 S   0  0  0  0  0  0  0  0  0  0  0  0
    2.3039    0.9546   -2.8808 C   0  0  0  0  0  0  0  0  0  0  0  0
    2.4761    1.3731   -1.8849 H   0  0  0  0  0  0  0  0  0  0  0  0
    3.2056    0.4180   -3.1904 H   0  0  0  0  0  0  0  0  0  0  0  0
    2.1252    1.7735   -3.5835 H   0  0  0  0  0  0  0  0  0  0  0  0
   -0.2242    0.9739    1.4193 C   0  0  0  0  0  0  0  0  0  0  0  0
    0.8872    0.8279    1.9089 O   0  0  0  0  0  0  0  0  0  0  0  0
   -1.0609    1.9360    1.9588 N   0  0  0  0  0  0  0  0  0  0  0  0
   -1.9975    1.9874    1.5731 H   0  0  0  0  0  0  0  0  0  0  0  0
   -0.7832    2.6081    3.2226 C   0  0  0  0  0  0  0  0  0  0  0  0
    0.1714    3.1425    3.1716 H   0  0  0  0  0  0  0  0  0  0  0  0
   -1.5711    3.3334    3.4473 H   0  0  0  0  0  0  0  0  0  0  0  0
   -0.7363    1.8805    4.0398 H   0  0  0  0  0  0  0  0  0  0  0  0
  1  2  1  0  0  0  0
  2  3  1  0  0  0  0
  2  4  1  0  0  0  0
  2  5  1  0  0  0  0
  5  6  2  0  0  0  0
  5  7  1  0  0  0  0
  7  8  1  0  0  0  0
  7  9  1  0  0  0  0
  9 10  1  0  0  0  0
  9 11  1  0  0  0  0
  9 22  1  0  0  0  0
 11 12  1  0  0  0  0
 11 13  1  0  0  0  0
 11 14  1  0  0  0  0
 14 15  1  0  0  0  0
 14 16  1  0  0  0  0
 14 17  1  0  0  0  0
 17 18  1  0  0  0  0
 18 19  1  0  0  0  0
 18 20  1  0  0  0  0
 18 21  1  0  0  0  0
 22 23  2  0  0  0  0
 22 24  1  0  0  0  0
 24 25  1  0  0  0  0
 24 26  1  0  0  0  0
 26 27  1  0  0  0  0
 26 28  1  0  0  0  0
 26 29  1  0  0  0  0
M  END
$$$$

  -OEChem-01062216093D

 29 28  0     1  0  0  0  0  0999 V2000
   -3.3662   -3.2716    0.7672 H   0  0  0  0  0  0  0  0  0  0  0  0
   -3.3793   -2.2928    0.2789 C   0  0  0  0  0  0  0  0  0  0  0  0
   -4.2397   -1.7281    0.6456 H   0  0  0  0  0  0  0  0  0  0  0  0
   -3.4792   -2.4406   -0.7990 H   0  0  0  0  0  0  0  0  0  0  0  0
   -2.0979   -1.5408    0.5851 C   0  0  0  0  0  0  0  0  0  0  0  0
   -1.2881   -2.0114    1.3629 O   0  0  0  0  0  0  0  0  0  0  0  0
   -1.8675   -0.3111    0.0010 N   0  0  0  0  0  0  0  0  0  0  0  0
   -2.5179   -0.0367   -0.7277 H   0  0  0  0  0  0  0  0  0  0  0  0
   -0.5518    0.3556    0.0398 C   0  0  1  0  0  0  0  0  0  0  0  0
    0.2296   -0.3848   -0.1654 H   0  0  0  0  0  0  0  0  0  0  0  0
   -0.4974    1.4592   -1.0336 C   0  0  0  0  0  0  0  0  0  0  0  0
   -1.3260    2.1572   -0.8777 H   0  0  0  0  0  0  0  0  0  0  0  0
    0.4301    2.0279   -0.9106 H   0  0  0  0  0  0  0  0  0  0  0  0
   -0.5564    0.9215   -2.4715 C   0  0  0  0  0  0  0  0  0  0  0  0
   -1.4910    0.3746   -2.6257 H   0  0  0  0  0  0  0  0  0  0  0  0
   -0.5487    1.7628   -3.1719 H   0  0  0  0  0  0  0  0  0  0  0  0
    0.8548   -0.1918   -2.8609 S   0  0  0  0  0  0  0  0  0  0  0  0
    2.2948    0.9485   -2.8821 C   0  0  0  0  0  0  0  0  0  0  0  0
    2.4740    1.3576   -1.8833 H   0  0  0  0  0  0  0  0  0  0  0  0
    3.1920    0.4098   -3.2009 H   0  0  0  0  0  0  0  0  0  0  0  0
    2.1168    1.7743   -3.5769 H   0  0  0  0  0  0  0  0  0  0  0  0
   -0.2183    0.9704    1.4163 C   0  0  0  0  0  0  0  0  0  0  0  0
    0.9464    1.0479    1.7841 O   0  0  0  0  0  0  0  0  0  0  0  0
   -1.1801    1.6983    2.0944 N   0  0  0  0  0  0  0  0  0  0  0  0
   -2.1407    1.5344    1.8120 H   0  0  0  0  0  0  0  0  0  0  0  0
   -0.9258    2.3333    3.3818 C   0  0  0  0  0  0  0  0  0  0  0  0
   -0.1093    3.0584    3.2983 H   0  0  0  0  0  0  0  0  0  0  0  0
   -1.8197    2.8615    3.7266 H   0  0  0  0  0  0  0  0  0  0  0  0
   -0.6537    1.5824    4.1311 H   0  0  0  0  0  0  0  0  0  0  0  0
  1  2  1  0  0  0  0
  2  3  1  0  0  0  0
  2  4  1  0  0  0  0
  2  5  1  0  0  0  0
  5  6  2  0  0  0  0
  5  7  1  0  0  0  0
  7  8  1  0  0  0  0
  7  9  1  0  0  0  0
  9 10  1  0  0  0  0
  9 11  1  0  0  0  0
  9 22  1  0  0  0  0
 11 12  1  0  0  0  0
 11 13  1  0  0  0  0
 11 14  1  0  0  0  0
 14 15  1  0  0  0  0
 14 16  1  0  0  0  0
 14 17  1  0  0  0  0
 17 18  1  0  0  0  0
 18 19  1  0  0  0  0
 18 20  1  0  0  0  0
 18 21  1  0  0  0  0
 22 23  2  0  0  0  0
 22 24  1  0  0  0  0
 24 25  1  0  0  0  0
 24 26  1  0  0  0  0
 26 27  1  0  0  0  0
 26 28  1  0  0  0  0
 26 29  1  0  0  0  0
M  END
$$$$

  -OEChem-01062216093D

 29 28  0     1  0  0  0  0  0999 V2000
   -3.3913   -3.2545    0.7773 H   0  0  0  0  0  0  0  0  0  0  0  0
   -3.3766   -2.2982    0.2467 C   0  0  0  0  0  0  0  0  0  0  0  0
   -4.2539   -1.7179    0.5423 H   0  0  0  0  0  0  0  0  0  0  0  0
   -3.4209   -2.4931   -0.8274 H   0  0  0  0  0  0  0  0  0  0  0  0
   -2.1097   -1.5350    0.5837 C   0  0  0  0  0  0  0  0  0  0  0  0
   -1.3200   -1.9896    1.3916 O   0  0  0  0  0  0  0  0  0  0  0  0
   -1.8715   -0.3071   -0.0004 N   0  0  0  0  0  0  0  0  0  0  0  0
   -2.5090   -0.0376   -0.7425 H   0  0  0  0  0  0  0  0  0  0  0  0
   -0.5515    0.3526    0.0442 C   0  0  1  0  0  0  0  0  0  0  0  0
    0.2281   -0.3891   -0.1620 H   0  0  0  0  0  0  0  0  0  0  0  0
   -0.5004    1.4576   -1.0284 C   0  0  0  0  0  0  0  0  0  0  0  0
   -1.3289    2.1547   -0.8672 H   0  0  0  0  0  0  0  0  0  0  0  0
    0.4267    2.0278   -0.9098 H   0  0  0  0  0  0  0  0  0  0  0  0
   -0.5641    0.9225   -2.4670 C   0  0  0  0  0  0  0  0  0  0  0  0
   -1.4996    0.3766   -2.6196 H   0  0  0  0  0  0  0  0  0  0  0  0
   -0.5586    1.7653   -3.1656 H   0  0  0  0  0  0  0  0  0  0  0  0
    0.8455   -0.1908   -2.8637 S   0  0  0  0  0  0  0  0  0  0  0  0
    2.2864    0.9486   -2.8879 C   0  0  0  0  0  0  0  0  0  0  0  0
    2.4605    1.3663   -1.8917 H   0  0  0  0  0  0  0  0  0  0  0  0
    3.1853    0.4069   -3.1971 H   0  0  0  0  0  0  0  0  0  0  0  0
    2.1129    1.7686   -3.5909 H   0  0  0  0  0  0  0  0  0  0  0  0
   -0.2123    0.9697    1.4195 C   0  0  0  0  0  0  0  0  0  0  0  0
    0.9469    1.2588    1.6878 O   0  0  0  0  0  0  0  0  0  0  0  0
   -1.2252    1.4350    2.2384 N   0  0  0  0  0  0  0  0  0  0  0  0
   -2.1501    1.0671    2.0404 H   0  0  0  0  0  0  0  0  0  0  0  0
   -0.9726    2.0252    3.5468 C   0  0  0  0  0  0  0  0  0  0  0  0
   -0.3378    2.9125    3.4520 H   0  0  0  0  0  0  0  0  0  0  0  0
   -1.9152    2.3258    4.0139 H   0  0  0  0  0  0  0  0  0  0  0  0
   -0.4736    1.3031    4.2017 H   0  0  0  0  0  0  0  0  0  0  0  0
  1  2  1  0  0  0  0
  2  3  1  0  0  0  0
  2  4  1  0  0  0  0
  2  5  1  0  0  0  0
  5  6  2  0  0  0  0
  5  7  1  0  0  0  0
  7  8  1  0  0  0  0
  7  9  1  0  0  0  0
  9 10  1  0  0  0  0
  9 11  1  0  0  0  0
  9 22  1  0  0  0  0
 11 12  1  0  0  0  0
 11 13  1  0  0  0  0
 11 14  1  0  0  0  0
 14 15  1  0  0  0  0
 14 16  1  0  0  0  0
 14 17  1  0  0  0  0
 17 18  1  0  0  0  0
 18 19  1  0  0  0  0
 18 20  1  0  0  0  0
 18 21  1  0  0  0  0
 22 23  2  0  0  0  0
 22 24  1  0  0  0  0
 24 25  1  0  0  0  0
 24 26  1  0  0  0  0
 26 27  1  0  0  0  0
 26 28  1  0  0  0  0
 26 29  1  0  0  0  0
M  END
$$$$

  -OEChem-01062216093D

 29 28  0     1  0  0  0  0  0999 V2000
   -3.3899   -3.2671    0.7224 H   0  0  0  0  0  0  0  0  0  0  0  0
   -3.3861   -2.2949    0.2214 C   0  0  0  0  0  0  0  0  0  0  0  0
   -4.2641   -1.7295    0.5426 H   0  0  0  0  0  0  0  0  0  0  0  0
   -3.4395   -2.4577   -0.8578 H   0  0  0  0  0  0  0  0  0  0  0  0
   -2.1209   -1.5338    0.5699 C   0  0  0  0  0  0  0  0  0  0  0  0
   -1.3452   -1.9821    1.3949 O   0  0  0  0  0  0  0  0  0  0  0  0
   -1.8742   -0.3052   -0.0082 N   0  0  0  0  0  0  0  0  0  0  0  0
   -2.5149   -0.0205   -0.7419 H   0  0  0  0  0  0  0  0  0  0  0  0
   -0.5554    0.3580    0.0468 C   0  0  1  0  0  0  0  0  0  0  0  0
    0.2269   -0.3820   -0.1540 H   0  0  0  0  0  0  0  0  0  0  0  0
   -0.5109    1.4541   -1.0373 C   0  0  0  0  0  0  0  0  0  0  0  0
   -1.3459    2.1452   -0.8841 H   0  0  0  0  0  0  0  0  0  0  0  0
    0.4100    2.0349   -0.9254 H   0  0  0  0  0  0  0  0  0  0  0  0
   -0.5645    0.9045   -2.4712 C   0  0  0  0  0  0  0  0  0  0  0  0
   -1.4943    0.3488   -2.6226 H   0  0  0  0  0  0  0  0  0  0  0  0
   -0.5643    1.7406   -3.1779 H   0  0  0  0  0  0  0  0  0  0  0  0
    0.8575   -0.1990   -2.8512 S   0  0  0  0  0  0  0  0  0  0  0  0
    2.2879    0.9539   -2.8812 C   0  0  0  0  0  0  0  0  0  0  0  0
    2.4572    1.3799   -1.8877 H   0  0  0  0  0  0  0  0  0  0  0  0
    3.1921    0.4187   -3.1861 H   0  0  0  0  0  0  0  0  0  0  0  0
    2.1071    1.7677   -3.5894 H   0  0  0  0  0  0  0  0  0  0  0  0
   -0.2145    0.9798    1.4224 C   0  0  0  0  0  0  0  0  0  0  0  0
    0.8920    1.4701    1.6117 O   0  0  0  0  0  0  0  0  0  0  0  0
   -1.2009    1.1672    2.3732 N   0  0  0  0  0  0  0  0  0  0  0  0
   -2.0329    0.5994    2.2448 H   0  0  0  0  0  0  0  0  0  0  0  0
   -0.9234    1.7027    3.7000 C   0  0  0  0  0  0  0  0  0  0  0  0
   -0.4894    2.7055    3.6264 H   0  0  0  0  0  0  0  0  0  0  0  0
   -1.8481    1.7704    4.2809 H   0  0  0  0  0  0  0  0  0  0  0  0
   -0.2221    1.0538    4.2353 H   0  0  0  0  0  0  0  0  0  0  0  0
  1  2  1  0  0  0  0
  2  3  1  0  0  0  0
  2  4  1  0  0  0  0
  2  5  1  0  0  0  0
  5  6  2  0  0  0  0
  5  7  1  0  0  0  0
  7  8  1  0  0  0  0
  7  9  1  0  0  0  0
  9 10  1  0  0  0  0
  9 11  1  0  0  0  0
  9 22  1  0  0  0  0
 11 12  1  0  0  0  0
 11 13  1  0  0  0  0
 11 14  1  0  0  0  0
 14 15  1  0  0  0  0
 14 16  1  0  0  0  0
 14 17  1  0  0  0  0
 17 18  1  0  0  0  0
 18 19  1  0  0  0  0
 18 20  1  0  0  0  0
 18 21  1  0  0  0  0
 22 23  2  0  0  0  0
 22 24  1  0  0  0  0
 24 25  1  0  0  0  0
 24 26  1  0  0  0  0
 26 27  1  0  0  0  0
 26 28  1  0  0  0  0
 26 29  1  0  0  0  0
M  END
$$$$

  -OEChem-01062216093D

 29 28  0     1  0  0  0  0  0999 V2000
   -3.4319   -3.2433    0.7146 H   0  0  0  0  0  0  0  0  0  0  0  0
   -3.3958   -2.2888    0.1818 C   0  0  0  0  0  0  0  0  0  0  0  0
   -4.2800   -1.7040    0.4465 H   0  0  0  0  0  0  0  0  0  0  0  0
   -3.4050   -2.4874   -0.8926 H   0  0  0  0  0  0  0  0  0  0  0  0
   -2.1376   -1.5297    0.5576 C   0  0  0  0  0  0  0  0  0  0  0  0
   -1.3863   -1.9714    1.4091 O   0  0  0  0  0  0  0  0  0  0  0  0
   -1.8791   -0.2979   -0.0066 N   0  0  0  0  0  0  0  0  0  0  0  0
   -2.5214    0.0028   -0.7325 H   0  0  0  0  0  0  0  0  0  0  0  0
   -0.5599    0.3658    0.0546 C   0  0  1  0  0  0  0  0  0  0  0  0
    0.2210   -0.3752   -0.1465 H   0  0  0  0  0  0  0  0  0  0  0  0
   -0.5211    1.4550   -1.0399 C   0  0  0  0  0  0  0  0  0  0  0  0
   -1.3596    2.1431   -0.8918 H   0  0  0  0  0  0  0  0  0  0  0  0
    0.3963    2.0428   -0.9376 H   0  0  0  0  0  0  0  0  0  0  0  0
   -0.5704    0.8930   -2.4692 C   0  0  0  0  0  0  0  0  0  0  0  0
   -1.4968    0.3306   -2.6166 H   0  0  0  0  0  0  0  0  0  0  0  0
   -0.5740    1.7232   -3.1827 H   0  0  0  0  0  0  0  0  0  0  0  0
    0.8585   -0.2051   -2.8389 S   0  0  0  0  0  0  0  0  0  0  0  0
    2.2803    0.9577   -2.8774 C   0  0  0  0  0  0  0  0  0  0  0  0
    2.4431    1.3981   -1.8891 H   0  0  0  0  0  0  0  0  0  0  0  0
    3.1895    0.4257   -3.1725 H   0  0  0  0  0  0  0  0  0  0  0  0
    2.0959    1.7611   -3.5964 H   0  0  0  0  0  0  0  0  0  0  0  0
   -0.2131    0.9807    1.4358 C   0  0  0  0  0  0  0  0  0  0  0  0
    0.7900    1.6728    1.5645 O   0  0  0  0  0  0  0  0  0  0  0  0
   -1.0969    0.8880    2.4950 N   0  0  0  0  0  0  0  0  0  0  0  0
   -1.7525    0.1133    2.4204 H   0  0  0  0  0  0  0  0  0  0  0  0
   -0.7805    1.3903    3.8262 C   0  0  0  0  0  0  0  0  0  0  0  0
   -0.5658    2.4636    3.7910 H   0  0  0  0  0  0  0  0  0  0  0  0
   -1.6273    1.2320    4.5005 H   0  0  0  0  0  0  0  0  0  0  0  0
    0.0920    0.8693    4.2341 H   0  0  0  0  0  0  0  0  0  0  0  0
  1  2  1  0  0  0  0
  2  3  1  0  0  0  0
  2  4  1  0  0  0  0
  2  5  1  0  0  0  0
  5  6  2  0  0  0  0
  5  7  1  0  0  0  0
  7  8  1  0  0  0  0
  7  9  1  0  0  0  0
  9 10  1  0  0  0  0
  9 11  1  0  0  0  0
  9 22  1  0  0  0  0
 11 12  1  0  0  0  0
 11 13  1  0  0  0  0
 11 14  1  0  0  0  0
 14 15  1  0  0  0  0
 14 16  1  0  0  0  0
 14 17  1  0  0  0  0
 17 18  1  0  0  0  0
 18 19  1  0  0  0  0
 18 20  1  0  0  0  0
 18 21  1  0  0  0  0
 22 23  2  0  0  0  0
 22 24  1  0  0  0  0
 24 25  1  0  0  0  0
 24 26  1  0  0  0  0
 26 27  1  0  0  0  0
 26 28  1  0  0  0  0
 26 29  1  0  0  0  0
M  END
$$$$

  -OEChem-01062216093D

 29 28  0     1  0  0  0  0  0999 V2000
   -3.4459   -3.2404    0.6838 H   0  0  0  0  0  0  0  0  0  0  0  0
   -3.4258   -2.2568    0.2058 C   0  0  0  0  0  0  0  0  0  0  0  0
   -4.2761   -1.6724    0.5655 H   0  0  0  0  0  0  0  0  0  0  0  0
   -3.5141   -2.3912   -0.8751 H   0  0  0  0  0  0  0  0  0  0  0  0
   -2.1289   -1.5432    0.5355 C   0  0  0  0  0  0  0  0  0  0  0  0
   -1.3504   -2.0275    1.3393 O   0  0  0  0  0  0  0  0  0  0  0  0
   -1.8627   -0.3056   -0.0123 N   0  0  0  0  0  0  0  0  0  0  0  0
   -2.5458    0.0519   -0.6722 H   0  0  0  0  0  0  0  0  0  0  0  0
   -0.5496    0.3700    0.0527 C   0  0  1  0  0  0  0  0  0  0  0  0
    0.2362   -0.3659   -0.1467 H   0  0  0  0  0  0  0  0  0  0  0  0
   -0.5196    1.4504   -1.0523 C   0  0  0  0  0  0  0  0  0  0  0  0
   -1.3656    2.1310   -0.9125 H   0  0  0  0  0  0  0  0  0  0  0  0
    0.3915    2.0489   -0.9564 H   0  0  0  0  0  0  0  0  0  0  0  0
   -0.5575    0.8733   -2.4761 C   0  0  0  0  0  0  0  0  0  0  0  0
   -1.4765    0.2982   -2.6205 H   0  0  0  0  0  0  0  0  0  0  0  0
   -0.5689    1.6960   -3.1982 H   0  0  0  0  0  0  0  0  0  0  0  0
    0.8856   -0.2117   -2.8298 S   0  0  0  0  0  0  0  0  0  0  0  0
    2.2918    0.9696   -2.8750 C   0  0  0  0  0  0  0  0  0  0  0  0
    2.4489    1.4162   -1.8888 H   0  0  0  0  0  0  0  0  0  0  0  0
    3.2079    0.4483   -3.1679 H   0  0  0  0  0  0  0  0  0  0  0  0
    2.0960    1.7677   -3.5972 H   0  0  0  0  0  0  0  0  0  0  0  0
   -0.2089    0.9777    1.4414 C   0  0  0  0  0  0  0  0  0  0  0  0
    0.6320    1.8634    1.5452 O   0  0  0  0  0  0  0  0  0  0  0  0
   -0.9256    0.6147    2.5664 N   0  0  0  0  0  0  0  0  0  0  0  0
   -1.3979   -0.2861    2.4837 H   0  0  0  0  0  0  0  0  0  0  0  0
   -0.5931    1.0930    3.9020 C   0  0  0  0  0  0  0  0  0  0  0  0
   -0.6526    2.1856    3.9440 H   0  0  0  0  0  0  0  0  0  0  0  0
   -1.2943    0.6828    4.6348 H   0  0  0  0  0  0  0  0  0  0  0  0
    0.4202    0.7837    4.1785 H   0  0  0  0  0  0  0  0  0  0  0  0
  1  2  1  0  0  0  0
  2  3  1  0  0  0  0
  2  4  1  0  0  0  0
  2  5  1  0  0  0  0
  5  6  2  0  0  0  0
  5  7  1  0  0  0  0
  7  8  1  0  0  0  0
  7  9  1  0  0  0  0
  9 10  1  0  0  0  0
  9 11  1  0  0  0  0
  9 22  1  0  0  0  0
 11 12  1  0  0  0  0
 11 13  1  0  0  0  0
 11 14  1  0  0  0  0
 14 15  1  0  0  0  0
 14 16  1  0  0  0  0
 14 17  1  0  0  0  0
 17 18  1  0  0  0  0
 18 19  1  0  0  0  0
 18 20  1  0  0  0  0
 18 21  1  0  0  0  0
 22 23  2  0  0  0  0
 22 24  1  0  0  0  0
 24 25  1  0  0  0  0
 24 26  1  0  0  0  0
 26 27  1  0  0  0  0
 26 28  1  0  0  0  0
 26 29  1  0  0  0  0
M  END
$$$$

  -OEChem-01062216093D

 29 28  0     1  0  0  0  0  0999 V2000
   -3.4728   -3.2148    0.7223 H   0  0  0  0  0  0  0  0  0  0  0  0
   -3.4473   -2.2262    0.2554 C   0  0  0  0  0  0  0  0  0  0  0  0
   -4.2551   -1.6192    0.6713 H   0  0  0  0  0  0  0  0  0  0  0  0
   -3.6033   -2.3428   -0.8198 H   0  0  0  0  0  0  0  0  0  0  0  0
   -2.1101   -1.5598    0.5162 C   0  0  0  0  0  0  0  0  0  0  0  0
   -1.2896   -2.0963    1.2428 O   0  0  0  0  0  0  0  0  0  0  0  0
   -1.8450   -0.3169   -0.0204 N   0  0  0  0  0  0  0  0  0  0  0  0
   -2.5729    0.0964   -0.5944 H   0  0  0  0  0  0  0  0  0  0  0  0
   -0.5397    0.3727    0.0464 C   0  0  1  0  0  0  0  0  0  0  0  0
    0.2533   -0.3555   -0.1514 H   0  0  0  0  0  0  0  0  0  0  0  0
   -0.5163    1.4459   -1.0664 C   0  0  0  0  0  0  0  0  0  0  0  0
   -1.3695    2.1190   -0.9352 H   0  0  0  0  0  0  0  0  0  0  0  0
    0.3888    2.0533   -0.9708 H   0  0  0  0  0  0  0  0  0  0  0  0
   -0.5412    0.8581   -2.4863 C   0  0  0  0  0  0  0  0  0  0  0  0
   -1.4531    0.2711   -2.6293 H   0  0  0  0  0  0  0  0  0  0  0  0
   -0.5596    1.6751   -3.2145 H   0  0  0  0  0  0  0  0  0  0  0  0
    0.9157   -0.2133   -2.8273 S   0  0  0  0  0  0  0  0  0  0  0  0
    2.3076    0.9854   -2.8750 C   0  0  0  0  0  0  0  0  0  0  0  0
    2.4585    1.4379   -1.8904 H   0  0  0  0  0  0  0  0  0  0  0  0
    3.2309    0.4756   -3.1661 H   0  0  0  0  0  0  0  0  0  0  0  0
    2.1016    1.7781   -3.6003 H   0  0  0  0  0  0  0  0  0  0  0  0
   -0.2115    0.9745    1.4418 C   0  0  0  0  0  0  0  0  0  0  0  0
    0.4274    2.0154    1.5466 O   0  0  0  0  0  0  0  0  0  0  0  0
   -0.6987    0.3874    2.5943 N   0  0  0  0  0  0  0  0  0  0  0  0
   -1.0324   -0.5717    2.4768 H   0  0  0  0  0  0  0  0  0  0  0  0
   -0.3429    0.8396    3.9331 C   0  0  0  0  0  0  0  0  0  0  0  0
   -0.6468    1.8812    4.0795 H   0  0  0  0  0  0  0  0  0  0  0  0
   -0.8474    0.2251    4.6849 H   0  0  0  0  0  0  0  0  0  0  0  0
    0.7382    0.7622    4.0885 H   0  0  0  0  0  0  0  0  0  0  0  0
  1  2  1  0  0  0  0
  2  3  1  0  0  0  0
  2  4  1  0  0  0  0
  2  5  1  0  0  0  0
  5  6  2  0  0  0  0
  5  7  1  0  0  0  0
  7  8  1  0  0  0  0
  7  9  1  0  0  0  0
  9 10  1  0  0  0  0
  9 11  1  0  0  0  0
  9 22  1  0  0  0  0
 11 12  1  0  0  0  0
 11 13  1  0  0  0  0
 11 14  1  0  0  0  0
 14 15  1  0  0  0  0
 14 16  1  0  0  0  0
 14 17  1  0  0  0  0
 17 18  1  0  0  0  0
 18 19  1  0  0  0  0
 18 20  1  0  0  0  0
 18 21  1  0  0  0  0
 22 23  2  0  0  0  0
 22 24  1  0  0  0  0
 24 25  1  0  0  0  0
 24 26  1  0  0  0  0
 26 27  1  0  0  0  0
 26 28  1  0  0  0  0
 26 29  1  0  0  0  0
M  END
$$$$

  -OEChem-01062216093D

 29 28  0     1  0  0  0  0  0999 V2000
   -3.4716   -3.1797    0.8236 H   0  0  0  0  0  0  0  0  0  0  0  0
   -3.4473   -2.1957    0.3468 C   0  0  0  0  0  0  0  0  0  0  0  0
   -4.2006   -1.5584    0.8161 H   0  0  0  0  0  0  0  0  0  0  0  0
   -3.6866   -2.3132   -0.7129 H   0  0  0  0  0  0  0  0  0  0  0  0
   -2.0724   -1.5747    0.5016 C   0  0  0  0  0  0  0  0  0  0  0  0
   -1.2059   -2.1577    1.1340 O   0  0  0  0  0  0  0  0  0  0  0  0
   -1.8166   -0.3283   -0.0328 N   0  0  0  0  0  0  0  0  0  0  0  0
   -2.5891    0.1414   -0.4942 H   0  0  0  0  0  0  0  0  0  0  0  0
   -0.5147    0.3658    0.0285 C   0  0  1  0  0  0  0  0  0  0  0  0
    0.2828   -0.3563   -0.1748 H   0  0  0  0  0  0  0  0  0  0  0  0
   -0.4950    1.4450   -1.0779 C   0  0  0  0  0  0  0  0  0  0  0  0
   -1.3480    2.1175   -0.9414 H   0  0  0  0  0  0  0  0  0  0  0  0
    0.4107    2.0509   -0.9773 H   0  0  0  0  0  0  0  0  0  0  0  0
   -0.5231    0.8661   -2.5010 C   0  0  0  0  0  0  0  0  0  0  0  0
   -1.4349    0.2783   -2.6433 H   0  0  0  0  0  0  0  0  0  0  0  0
   -0.5462    1.6872   -3.2245 H   0  0  0  0  0  0  0  0  0  0  0  0
    0.9336   -0.2019   -2.8529 S   0  0  0  0  0  0  0  0  0  0  0  0
    2.3238    0.9984   -2.8972 C   0  0  0  0  0  0  0  0  0  0  0  0
    2.4767    1.4440   -1.9101 H   0  0  0  0  0  0  0  0  0  0  0  0
    3.2460    0.4907   -3.1948 H   0  0  0  0  0  0  0  0  0  0  0  0
    2.1153    1.7956   -3.6167 H   0  0  0  0  0  0  0  0  0  0  0  0
   -0.1998    0.9565    1.4305 C   0  0  0  0  0  0  0  0  0  0  0  0
    0.1994    2.1077    1.5637 O   0  0  0  0  0  0  0  0  0  0  0  0
   -0.4187    0.2030    2.5675 N   0  0  0  0  0  0  0  0  0  0  0  0
   -0.6471   -0.7819    2.4103 H   0  0  0  0  0  0  0  0  0  0  0  0
   -0.0912    0.6495    3.9148 C   0  0  0  0  0  0  0  0  0  0  0  0
   -0.6458    1.5609    4.1614 H   0  0  0  0  0  0  0  0  0  0  0  0
   -0.3564   -0.1231    4.6426 H   0  0  0  0  0  0  0  0  0  0  0  0
    0.9810    0.8540    4.0005 H   0  0  0  0  0  0  0  0  0  0  0  0
  1  2  1  0  0  0  0
  2  3  1  0  0  0  0
  2  4  1  0  0  0  0
  2  5  1  0  0  0  0
  5  6  2  0  0  0  0
  5  7  1  0  0  0  0
  7  8  1  0  0  0  0
  7  9  1  0  0  0  0
  9 10  1  0  0  0  0
  9 11  1  0  0  0  0
  9 22  1  0  0  0  0
 11 12  1  0  0  0  0
 11 13  1  0  0  0  0
 11 14  1  0  0  0  0
 14 15  1  0  0  0  0
 14 16  1  0  0  0  0
 14 17  1  0  0  0  0
 17 18  1  0  0  0  0
 18 19  1  0  0  0  0
 18 20  1  0  0  0  0
 18 21  1  0  0  0  0
 22 23  2  0  0  0  0
 22 24  1  0  0  0  0
 24 25  1  0  0  0  0
 24 26  1  0  0  0  0
 26 27  1  0  0  0  0
 26 28  1  0  0  0  0
 26 29  1  0  0  0  0
M  END
$$$$

  -OEChem-01062216093D

 29 28  0     1  0  0  0  0  0999 V2000
   -3.4344   -3.1498    0.9202 H   0  0  0  0  0  0  0  0  0  0  0  0
   -3.4161   -2.1754    0.4237 C   0  0  0  0  0  0  0  0  0  0  0  0
   -4.1419   -1.5193    0.9100 H   0  0  0  0  0  0  0  0  0  0  0  0
   -3.6984   -2.3090   -0.6234 H   0  0  0  0  0  0  0  0  0  0  0  0
   -2.0283   -1.5705    0.5124 C   0  0  0  0  0  0  0  0  0  0  0  0
   -1.1356   -2.1708    1.0910 O   0  0  0  0  0  0  0  0  0  0  0  0
   -1.7856   -0.3239   -0.0284 N   0  0  0  0  0  0  0  0  0  0  0  0
   -2.5778    0.1690   -0.4285 H   0  0  0  0  0  0  0  0  0  0  0  0
   -0.4820    0.3647    0.0144 C   0  0  1  0  0  0  0  0  0  0  0  0
    0.3133   -0.3555   -0.2026 H   0  0  0  0  0  0  0  0  0  0  0  0
   -0.4693    1.4530   -1.0816 C   0  0  0  0  0  0  0  0  0  0  0  0
   -1.3176    2.1284   -0.9298 H   0  0  0  0  0  0  0  0  0  0  0  0
    0.4407    2.0529   -0.9823 H   0  0  0  0  0  0  0  0  0  0  0  0
   -0.5207    0.8863   -2.5088 C   0  0  0  0  0  0  0  0  0  0  0  0
   -1.4386    0.3061   -2.6425 H   0  0  0  0  0  0  0  0  0  0  0  0
   -0.5479    1.7134   -3.2254 H   0  0  0  0  0  0  0  0  0  0  0  0
    0.9240   -0.1893   -2.8882 S   0  0  0  0  0  0  0  0  0  0  0  0
    2.3263    0.9962   -2.9424 C   0  0  0  0  0  0  0  0  0  0  0  0
    2.4940    1.4375   -1.9556 H   0  0  0  0  0  0  0  0  0  0  0  0
    3.2401    0.4792   -3.2503 H   0  0  0  0  0  0  0  0  0  0  0  0
    2.1199    1.7972   -3.6580 H   0  0  0  0  0  0  0  0  0  0  0  0
   -0.1639    0.9449    1.4168 C   0  0  0  0  0  0  0  0  0  0  0  0
   -0.0087    2.1478    1.5951 O   0  0  0  0  0  0  0  0  0  0  0  0
   -0.0838    0.0969    2.5035 N   0  0  0  0  0  0  0  0  0  0  0  0
   -0.2672   -0.8931    2.3181 H   0  0  0  0  0  0  0  0  0  0  0  0
    0.1666    0.5356    3.8691 C   0  0  0  0  0  0  0  0  0  0  0  0
   -0.6094    1.2362    4.1946 H   0  0  0  0  0  0  0  0  0  0  0  0
    0.1640   -0.3233    4.5471 H   0  0  0  0  0  0  0  0  0  0  0  0
    1.1413    1.0294    3.9394 H   0  0  0  0  0  0  0  0  0  0  0  0
  1  2  1  0  0  0  0
  2  3  1  0  0  0  0
  2  4  1  0  0  0  0
  2  5  1  0  0  0  0
  5  6  2  0  0  0  0
  5  7  1  0  0  0  0
  7  8  1  0  0  0  0
  7  9  1  0  0  0  0
  9 10  1  0  0  0  0
  9 11  1  0  0  0  0
  9 22  1  0  0  0  0
 11 12  1  0  0  0  0
 11 13  1  0  0  0  0
 11 14  1  0  0  0  0
 14 15  1  0  0  0  0
 14 16  1  0  0  0  0
 14 17  1  0  0  0  0
 17 18  1  0  0  0  0
 18 19  1  0  0  0  0
 18 20  1  0  0  0  0
 18 21  1  0  0  0  0
 22 23  2  0  0  0  0
 22 24  1  0  0  0  0
 24 25  1  0  0  0  0
 24 26  1  0  0  0  0
 26 27  1  0  0  0  0
 26 28  1  0  0  0  0
 26 29  1  0  0  0  0
M  END
$$$$

  -OEChem-01062216093D

 29 28  0     1  0  0  0  0  0999 V2000
   -3.3811   -3.1353    0.9895 H   0  0  0  0  0  0  0  0  0  0  0  0
   -3.3814   -2.1634    0.4879 C   0  0  0  0  0  0  0  0  0  0  0  0
   -4.0913   -1.5058    0.9951 H   0  0  0  0  0  0  0  0  0  0  0  0
   -3.6990   -2.3030   -0.5482 H   0  0  0  0  0  0  0  0  0  0  0  0
   -1.9920   -1.5564    0.5262 C   0  0  0  0  0  0  0  0  0  0  0  0
   -1.0781   -2.1516    1.0779 O   0  0  0  0  0  0  0  0  0  0  0  0
   -1.7661   -0.3137   -0.0306 N   0  0  0  0  0  0  0  0  0  0  0  0
   -2.5723    0.1952   -0.3797 H   0  0  0  0  0  0  0  0  0  0  0  0
   -0.4608    0.3680   -0.0014 C   0  0  1  0  0  0  0  0  0  0  0  0
    0.3331   -0.3525   -0.2233 H   0  0  0  0  0  0  0  0  0  0  0  0
   -0.4464    1.4608   -1.0915 C   0  0  0  0  0  0  0  0  0  0  0  0
   -1.2903    2.1404   -0.9331 H   0  0  0  0  0  0  0  0  0  0  0  0
    0.4674    2.0547   -0.9906 H   0  0  0  0  0  0  0  0  0  0  0  0
   -0.5126    0.9002   -2.5200 C   0  0  0  0  0  0  0  0  0  0  0  0
   -1.4363    0.3280   -2.6483 H   0  0  0  0  0  0  0  0  0  0  0  0
   -0.5384    1.7301   -3.2331 H   0  0  0  0  0  0  0  0  0  0  0  0
    0.9196   -0.1860   -2.9150 S   0  0  0  0  0  0  0  0  0  0  0  0
    2.3273    0.9928   -2.9735 C   0  0  0  0  0  0  0  0  0  0  0  0
    2.5140    1.4164   -1.9825 H   0  0  0  0  0  0  0  0  0  0  0  0
    3.2329    0.4769   -3.3060 H   0  0  0  0  0  0  0  0  0  0  0  0
    2.1121    1.8072   -3.6715 H   0  0  0  0  0  0  0  0  0  0  0  0
   -0.1490    0.9473    1.3992 C   0  0  0  0  0  0  0  0  0  0  0  0
   -0.2279    2.1486    1.6301 O   0  0  0  0  0  0  0  0  0  0  0  0
    0.2287    0.0872    2.4112 N   0  0  0  0  0  0  0  0  0  0  0  0
    0.1068   -0.9090    2.2100 H   0  0  0  0  0  0  0  0  0  0  0  0
    0.4439    0.5074    3.7890 C   0  0  0  0  0  0  0  0  0  0  0  0
   -0.4764    0.9244    4.2110 H   0  0  0  0  0  0  0  0  0  0  0  0
    0.7502   -0.3477    4.3993 H   0  0  0  0  0  0  0  0  0  0  0  0
    1.2315    1.2664    3.8394 H   0  0  0  0  0  0  0  0  0  0  0  0
  1  2  1  0  0  0  0
  2  3  1  0  0  0  0
  2  4  1  0  0  0  0
  2  5  1  0  0  0  0
  5  6  2  0  0  0  0
  5  7  1  0  0  0  0
  7  8  1  0  0  0  0
  7  9  1  0  0  0  0
  9 10  1  0  0  0  0
  9 11  1  0  0  0  0
  9 22  1  0  0  0  0
 11 12  1  0  0  0  0
 11 13  1  0  0  0  0
 11 14  1  0  0  0  0
 14 15  1  0  0  0  0
 14 16  1  0  0  0  0
 14 17  1  0  0  0  0
 17 18  1  0  0  0  0
 18 19  1  0  0  0  0
 18 20  1  0  0  0  0
 18 21  1  0  0  0  0
 22 23  2  0  0  0  0
 22 24  1  0  0  0  0
 24 25  1  0  0  0  0
 24 26  1  0  0  0  0
 26 27  1  0  0  0  0
 26 28  1  0  0  0  0
 26 29  1  0  0  0  0
M  END
$$$$

  -OEChem-01062216093D

 29 28  0     1  0  0  0  0  0999 V2000
   -3.3389   -3.1173    1.0637 H   0  0  0  0  0  0  0  0  0  0  0  0
   -3.3540   -2.1507    0.5523 C   0  0  0  0  0  0  0  0  0  0  0  0
   -4.0342   -1.4815    1.0848 H   0  0  0  0  0  0  0  0  0  0  0  0
   -3.7205   -2.2975   -0.4665 H   0  0  0  0  0  0  0  0  0  0  0  0
   -1.9597   -1.5549    0.5203 C   0  0  0  0  0  0  0  0  0  0  0  0
   -1.0251   -2.1470    1.0408 O   0  0  0  0  0  0  0  0  0  0  0  0
   -1.7523   -0.3162   -0.0520 N   0  0  0  0  0  0  0  0  0  0  0  0
   -2.5722    0.2135   -0.3318 H   0  0  0  0  0  0  0  0  0  0  0  0
   -0.4482    0.3632   -0.0236 C   0  0  1  0  0  0  0  0  0  0  0  0
    0.3492   -0.3533   -0.2467 H   0  0  0  0  0  0  0  0  0  0  0  0
   -0.4327    1.4644   -1.1041 C   0  0  0  0  0  0  0  0  0  0  0  0
   -1.2769    2.1423   -0.9409 H   0  0  0  0  0  0  0  0  0  0  0  0
    0.4806    2.0574   -0.9965 H   0  0  0  0  0  0  0  0  0  0  0  0
   -0.5031    0.9150   -2.5368 C   0  0  0  0  0  0  0  0  0  0  0  0
   -1.4287    0.3461   -2.6673 H   0  0  0  0  0  0  0  0  0  0  0  0
   -0.5286    1.7505   -3.2436 H   0  0  0  0  0  0  0  0  0  0  0  0
    0.9258   -0.1722   -2.9432 S   0  0  0  0  0  0  0  0  0  0  0  0
    2.3380    1.0016   -2.9962 C   0  0  0  0  0  0  0  0  0  0  0  0
    2.5213    1.4267   -2.0053 H   0  0  0  0  0  0  0  0  0  0  0  0
    3.2435    0.4819   -3.3233 H   0  0  0  0  0  0  0  0  0  0  0  0
    2.1295    1.8153   -3.6972 H   0  0  0  0  0  0  0  0  0  0  0  0
   -0.1596    0.9439    1.3786 C   0  0  0  0  0  0  0  0  0  0  0  0
   -0.4771    2.0913    1.6712 O   0  0  0  0  0  0  0  0  0  0  0  0
    0.4964    0.1564    2.3039 N   0  0  0  0  0  0  0  0  0  0  0  0
    0.5075   -0.8423    2.0883 H   0  0  0  0  0  0  0  0  0  0  0  0
    0.7151    0.5706    3.6833 C   0  0  0  0  0  0  0  0  0  0  0  0
   -0.2413    0.7272    4.1928 H   0  0  0  0  0  0  0  0  0  0  0  0
    1.2754   -0.1989    4.2231 H   0  0  0  0  0  0  0  0  0  0  0  0
    1.2901    1.5020    3.7177 H   0  0  0  0  0  0  0  0  0  0  0  0
  1  2  1  0  0  0  0
  2  3  1  0  0  0  0
  2  4  1  0  0  0  0
  2  5  1  0  0  0  0
  5  6  2  0  0  0  0
  5  7  1  0  0  0  0
  7  8  1  0  0  0  0
  7  9  1  0  0  0  0
  9 10  1  0  0  0  0
  9 11  1  0  0  0  0
  9 22  1  0  0  0  0
 11 12  1  0  0  0  0
 11 13  1  0  0  0  0
 11 14  1  0  0  0  0
 14 15  1  0  0  0  0
 14 16  1  0  0  0  0
 14 17  1  0  0  0  0
 17 18  1  0  0  0  0
 18 19  1  0  0  0  0
 18 20  1  0  0  0  0
 18 21  1  0  0  0  0
 22 23  2  0  0  0  0
 22 24  1  0  0  0  0
 24 25  1  0  0  0  0
 24 26  1  0  0  0  0
 26 27  1  0  0  0  0
 26 28  1  0  0  0  0
 26 29  1  0  0  0  0
M  END
$$$$

  -OEChem-01062216093D

 29 28  0     1  0  0  0  0  0999 V2000
   -3.3209   -3.1041    1.1138 H   0  0  0  0  0  0  0  0  0  0  0  0
   -3.3470   -2.1382    0.6019 C   0  0  0  0  0  0  0  0  0  0  0  0
   -3.9874   -1.4573    1.1677 H   0  0  0  0  0  0  0  0  0  0  0  0
   -3.7676   -2.2802   -0.3963 H   0  0  0  0  0  0  0  0  0  0  0  0
   -1.9470   -1.5652    0.4962 C   0  0  0  0  0  0  0  0  0  0  0  0
   -0.9957   -2.1751    0.9622 O   0  0  0  0  0  0  0  0  0  0  0  0
   -1.7516   -0.3283   -0.0835 N   0  0  0  0  0  0  0  0  0  0  0  0
   -2.5801    0.2297   -0.2670 H   0  0  0  0  0  0  0  0  0  0  0  0
   -0.4489    0.3514   -0.0477 C   0  0  1  0  0  0  0  0  0  0  0  0
    0.3501   -0.3629   -0.2710 H   0  0  0  0  0  0  0  0  0  0  0  0
   -0.4275    1.4617   -1.1172 C   0  0  0  0  0  0  0  0  0  0  0  0
   -1.2721    2.1386   -0.9519 H   0  0  0  0  0  0  0  0  0  0  0  0
    0.4855    2.0531   -0.9996 H   0  0  0  0  0  0  0  0  0  0  0  0
   -0.4930    0.9255   -2.5547 C   0  0  0  0  0  0  0  0  0  0  0  0
   -1.4185    0.3581   -2.6933 H   0  0  0  0  0  0  0  0  0  0  0  0
   -0.5153    1.7666   -3.2546 H   0  0  0  0  0  0  0  0  0  0  0  0
    0.9372   -0.1597   -2.9627 S   0  0  0  0  0  0  0  0  0  0  0  0
    2.3510    1.0127   -2.9989 C   0  0  0  0  0  0  0  0  0  0  0  0
    2.5274    1.4326   -2.0046 H   0  0  0  0  0  0  0  0  0  0  0  0
    3.2582    0.4930   -3.3214 H   0  0  0  0  0  0  0  0  0  0  0  0
    2.1488    1.8302   -3.6972 H   0  0  0  0  0  0  0  0  0  0  0  0
   -0.1735    0.9358    1.3538 C   0  0  0  0  0  0  0  0  0  0  0  0
   -0.7231    1.9689    1.7193 O   0  0  0  0  0  0  0  0  0  0  0  0
    0.7309    0.3058    2.1861 N   0  0  0  0  0  0  0  0  0  0  0  0
    0.9604   -0.6542    1.9322 H   0  0  0  0  0  0  0  0  0  0  0  0
    0.9648    0.7307    3.5602 C   0  0  0  0  0  0  0  0  0  0  0  0
    0.0463    0.6432    4.1501 H   0  0  0  0  0  0  0  0  0  0  0  0
    1.7356    0.1059    4.0216 H   0  0  0  0  0  0  0  0  0  0  0  0
    1.3041    1.7716    3.5881 H   0  0  0  0  0  0  0  0  0  0  0  0
  1  2  1  0  0  0  0
  2  3  1  0  0  0  0
  2  4  1  0  0  0  0
  2  5  1  0  0  0  0
  5  6  2  0  0  0  0
  5  7  1  0  0  0  0
  7  8  1  0  0  0  0
  7  9  1  0  0  0  0
  9 10  1  0  0  0  0
  9 11  1  0  0  0  0
  9 22  1  0  0  0  0
 11 12  1  0  0  0  0
 11 13  1  0  0  0  0
 11 14  1  0  0  0  0
 14 15  1  0  0  0  0
 14 16  1  0  0  0  0
 14 17  1  0  0  0  0
 17 18  1  0  0  0  0
 18 19  1  0  0  0  0
 18 20  1  0  0  0  0
 18 21  1  0  0  0  0
 22 23  2  0  0  0  0
 22 24  1  0  0  0  0
 24 25  1  0  0  0  0
 24 26  1  0  0  0  0
 26 27  1  0  0  0  0
 26 28  1  0  0  0  0
 26 29  1  0  0  0  0
M  END
$$$$

  -OEChem-01062216093D

 29 28  0     1  0  0  0  0  0999 V2000
   -3.3177   -3.0987    1.1366 H   0  0  0  0  0  0  0  0  0  0  0  0
   -3.3492   -2.1282    0.6337 C   0  0  0  0  0  0  0  0  0  0  0  0
   -3.9546   -1.4419    1.2307 H   0  0  0  0  0  0  0  0  0  0  0  0
   -3.8128   -2.2549   -0.3475 H   0  0  0  0  0  0  0  0  0  0  0  0
   -1.9453   -1.5765    0.4753 C   0  0  0  0  0  0  0  0  0  0  0  0
   -0.9874   -2.2072    0.8970 O   0  0  0  0  0  0  0  0  0  0  0  0
   -1.7543   -0.3410   -0.1093 N   0  0  0  0  0  0  0  0  0  0  0  0
   -2.5837    0.2344   -0.2222 H   0  0  0  0  0  0  0  0  0  0  0  0
   -0.4523    0.3403   -0.0652 C   0  0  1  0  0  0  0  0  0  0  0  0
    0.3478   -0.3734   -0.2855 H   0  0  0  0  0  0  0  0  0  0  0  0
   -0.4269    1.4579   -1.1256 C   0  0  0  0  0  0  0  0  0  0  0  0
   -1.2728    2.1328   -0.9578 H   0  0  0  0  0  0  0  0  0  0  0  0
    0.4855    2.0485   -1.0010 H   0  0  0  0  0  0  0  0  0  0  0  0
   -0.4866    0.9316   -2.5671 C   0  0  0  0  0  0  0  0  0  0  0  0
   -1.4115    0.3648   -2.7127 H   0  0  0  0  0  0  0  0  0  0  0  0
   -0.5070    1.7773   -3.2616 H   0  0  0  0  0  0  0  0  0  0  0  0
    0.9456   -0.1505   -2.9769 S   0  0  0  0  0  0  0  0  0  0  0  0
    2.3625    1.0185   -3.0007 C   0  0  0  0  0  0  0  0  0  0  0  0
    2.5322    1.4369   -2.0046 H   0  0  0  0  0  0  0  0  0  0  0  0
    3.2708    0.4967   -3.3169 H   0  0  0  0  0  0  0  0  0  0  0  0
    2.1681    1.8369   -3.7001 H   0  0  0  0  0  0  0  0  0  0  0  0
   -0.1850    0.9314    1.3345 C   0  0  0  0  0  0  0  0  0  0  0  0
   -0.9222    1.8016    1.7849 O   0  0  0  0  0  0  0  0  0  0  0  0
    0.9152    0.5199    2.0621 N   0  0  0  0  0  0  0  0  0  0  0  0
    1.3651   -0.3346    1.7417 H   0  0  0  0  0  0  0  0  0  0  0  0
    1.1661    0.9631    3.4276 C   0  0  0  0  0  0  0  0  0  0  0  0
    0.3501    0.6508    4.0877 H   0  0  0  0  0  0  0  0  0  0  0  0
    2.0994    0.5297    3.7995 H   0  0  0  0  0  0  0  0  0  0  0  0
    1.2539    2.0539    3.4674 H   0  0  0  0  0  0  0  0  0  0  0  0
  1  2  1  0  0  0  0
  2  3  1  0  0  0  0
  2  4  1  0  0  0  0
  2  5  1  0  0  0  0
  5  6  2  0  0  0  0
  5  7  1  0  0  0  0
  7  8  1  0  0  0  0
  7  9  1  0  0  0  0
  9 10  1  0  0  0  0
  9 11  1  0  0  0  0
  9 22  1  0  0  0  0
 11 12  1  0  0  0  0
 11 13  1  0  0  0  0
 11 14  1  0  0  0  0
 14 15  1  0  0  0  0
 14 16  1  0  0  0  0
 14 17  1  0  0  0  0
 17 18  1  0  0  0  0
 18 19  1  0  0  0  0
 18 20  1  0  0  0  0
 18 21  1  0  0  0  0
 22 23  2  0  0  0  0
 22 24  1  0  0  0  0
 24 25  1  0  0  0  0
 24 26  1  0  0  0  0
 26 27  1  0  0  0  0
 26 28  1  0  0  0  0
 26 29  1  0  0  0  0
M  END
$$$$

  -OEChem-01062216093D

 29 28  0     1  0  0  0  0  0999 V2000
   -3.3245   -3.0930    1.1515 H   0  0  0  0  0  0  0  0  0  0  0  0
   -3.3566   -2.1200    0.6533 C   0  0  0  0  0  0  0  0  0  0  0  0
   -3.9337   -1.4275    1.2711 H   0  0  0  0  0  0  0  0  0  0  0  0
   -3.8511   -2.2355   -0.3141 H   0  0  0  0  0  0  0  0  0  0  0  0
   -1.9501   -1.5878    0.4546 C   0  0  0  0  0  0  0  0  0  0  0  0
   -0.9899   -2.2379    0.8388 O   0  0  0  0  0  0  0  0  0  0  0  0
   -1.7612   -0.3528   -0.1320 N   0  0  0  0  0  0  0  0  0  0  0  0
   -2.5890    0.2330   -0.1903 H   0  0  0  0  0  0  0  0  0  0  0  0
   -0.4605    0.3314   -0.0755 C   0  0  1  0  0  0  0  0  0  0  0  0
    0.3413   -0.3827   -0.2895 H   0  0  0  0  0  0  0  0  0  0  0  0
   -0.4315    1.4516   -1.1323 C   0  0  0  0  0  0  0  0  0  0  0  0
   -1.2813    2.1228   -0.9682 H   0  0  0  0  0  0  0  0  0  0  0  0
    0.4782    2.0451   -1.0010 H   0  0  0  0  0  0  0  0  0  0  0  0
   -0.4796    0.9279   -2.5750 C   0  0  0  0  0  0  0  0  0  0  0  0
   -1.4008    0.3564   -2.7265 H   0  0  0  0  0  0  0  0  0  0  0  0
   -0.4998    1.7740   -3.2690 H   0  0  0  0  0  0  0  0  0  0  0  0
    0.9597   -0.1478   -2.9759 S   0  0  0  0  0  0  0  0  0  0  0  0
    2.3718    1.0275   -2.9876 C   0  0  0  0  0  0  0  0  0  0  0  0
    2.5344    1.4432   -1.9894 H   0  0  0  0  0  0  0  0  0  0  0  0
    3.2841    0.5110   -3.3006 H   0  0  0  0  0  0  0  0  0  0  0  0
    2.1777    1.8476   -3.6852 H   0  0  0  0  0  0  0  0  0  0  0  0
   -0.2006    0.9290    1.3228 C   0  0  0  0  0  0  0  0  0  0  0  0
   -1.0626    1.6130    1.8644 O   0  0  0  0  0  0  0  0  0  0  0  0
    1.0307    0.7719    1.9307 N   0  0  0  0  0  0  0  0  0  0  0  0
    1.6503    0.0757    1.5243 H   0  0  0  0  0  0  0  0  0  0  0  0
    1.3094    1.2473    3.2801 C   0  0  0  0  0  0  0  0  0  0  0  0
    0.6480    0.7576    4.0027 H   0  0  0  0  0  0  0  0  0  0  0  0
    2.3459    1.0258    3.5521 H   0  0  0  0  0  0  0  0  0  0  0  0
    1.1610    2.3304    3.3437 H   0  0  0  0  0  0  0  0  0  0  0  0
  1  2  1  0  0  0  0
  2  3  1  0  0  0  0
  2  4  1  0  0  0  0
  2  5  1  0  0  0  0
  5  6  2  0  0  0  0
  5  7  1  0  0  0  0
  7  8  1  0  0  0  0
  7  9  1  0  0  0  0
  9 10  1  0  0  0  0
  9 11  1  0  0  0  0
  9 22  1  0  0  0  0
 11 12  1  0  0  0  0
 11 13  1  0  0  0  0
 11 14  1  0  0  0  0
 14 15  1  0  0  0  0
 14 16  1  0  0  0  0
 14 17  1  0  0  0  0
 17 18  1  0  0  0  0
 18 19  1  0  0  0  0
 18 20  1  0  0  0  0
 18 21  1  0  0  0  0
 22 23  2  0  0  0  0
 22 24  1  0  0  0  0
 24 25  1  0  0  0  0
 24 26  1  0  0  0  0
 26 27  1  0  0  0  0
 26 28  1  0  0  0  0
 26 29  1  0  0  0  0
M  END
$$$$

  -OEChem-01062216093D

 29 28  0     1  0  0  0  0  0999 V2000
   -3.3306   -3.0916    1.1556 H   0  0  0  0  0  0  0  0  0  0  0  0
   -3.3639   -2.1161    0.6623 C   0  0  0  0  0  0  0  0  0  0  0  0
   -3.9202   -1.4206    1.2955 H   0  0  0  0  0  0  0  0  0  0  0  0
   -3.8800   -2.2224   -0.2948 H   0  0  0  0  0  0  0  0  0  0  0  0
   -1.9568   -1.5973    0.4363 C   0  0  0  0  0  0  0  0  0  0  0  0
   -0.9962   -2.2624    0.7926 O   0  0  0  0  0  0  0  0  0  0  0  0
   -1.7692   -0.3619   -0.1500 N   0  0  0  0  0  0  0  0  0  0  0  0
   -2.5961    0.2272   -0.1800 H   0  0  0  0  0  0  0  0  0  0  0  0
   -0.4692    0.3240   -0.0784 C   0  0  1  0  0  0  0  0  0  0  0  0
    0.3359   -0.3885   -0.2852 H   0  0  0  0  0  0  0  0  0  0  0  0
   -0.4386    1.4461   -1.1330 C   0  0  0  0  0  0  0  0  0  0  0  0
   -1.2926    2.1125   -0.9726 H   0  0  0  0  0  0  0  0  0  0  0  0
    0.4669    2.0446   -0.9968 H   0  0  0  0  0  0  0  0  0  0  0  0
   -0.4751    0.9237   -2.5765 C   0  0  0  0  0  0  0  0  0  0  0  0
   -1.3927    0.3482   -2.7344 H   0  0  0  0  0  0  0  0  0  0  0  0
   -0.4946    1.7705   -3.2697 H   0  0  0  0  0  0  0  0  0  0  0  0
    0.9713   -0.1451   -2.9698 S   0  0  0  0  0  0  0  0  0  0  0  0
    2.3798    1.0341   -2.9722 C   0  0  0  0  0  0  0  0  0  0  0  0
    2.5349    1.4504   -1.9732 H   0  0  0  0  0  0  0  0  0  0  0  0
    3.2953    0.5200   -3.2798 H   0  0  0  0  0  0  0  0  0  0  0  0
    2.1877    1.8533   -3.6713 H   0  0  0  0  0  0  0  0  0  0  0  0
   -0.2160    0.9261    1.3200 C   0  0  0  0  0  0  0  0  0  0  0  0
   -1.1452    1.4113    1.9569 O   0  0  0  0  0  0  0  0  0  0  0  0
    1.0743    1.0443    1.8025 N   0  0  0  0  0  0  0  0  0  0  0  0
    1.7971    0.5314    1.3054 H   0  0  0  0  0  0  0  0  0  0  0  0
    1.3760    1.5652    3.1302 C   0  0  0  0  0  0  0  0  0  0  0  0
    0.9062    0.9446    3.9006 H   0  0  0  0  0  0  0  0  0  0  0  0
    2.4572    1.5682    3.2986 H   0  0  0  0  0  0  0  0  0  0  0  0
    1.0087    2.5918    3.2323 H   0  0  0  0  0  0  0  0  0  0  0  0
  1  2  1  0  0  0  0
  2  3  1  0  0  0  0
  2  4  1  0  0  0  0
  2  5  1  0  0  0  0
  5  6  2  0  0  0  0
  5  7  1  0  0  0  0
  7  8  1  0  0  0  0
  7  9  1  0  0  0  0
  9 10  1  0  0  0  0
  9 11  1  0  0  0  0
  9 22  1  0  0  0  0
 11 12  1  0  0  0  0
 11 13  1  0  0  0  0
 11 14  1  0  0  0  0
 14 15  1  0  0  0  0
 14 16  1  0  0  0  0
 14 17  1  0  0  0  0
 17 18  1  0  0  0  0
 18 19  1  0  0  0  0
 18 20  1  0  0  0  0
 18 21  1  0  0  0  0
 22 23  2  0  0  0  0
 22 24  1  0  0  0  0
 24 25  1  0  0  0  0
 24 26  1  0  0  0  0
 26 27  1  0  0  0  0
 26 28  1  0  0  0  0
 26 29  1  0  0  0  0
M  END
$$$$

  -OEChem-01062216093D

 29 28  0     1  0  0  0  0  0999 V2000
   -3.3360   -3.0872    1.1638 H   0  0  0  0  0  0  0  0  0  0  0  0
   -3.3699   -2.1126    0.6687 C   0  0  0  0  0  0  0  0  0  0  0  0
   -3.9089   -1.4111    1.3102 H   0  0  0  0  0  0  0  0  0  0  0  0
   -3.9039   -2.2164   -0.2787 H   0  0  0  0  0  0  0  0  0  0  0  0
   -1.9627   -1.6056    0.4175 C   0  0  0  0  0  0  0  0  0  0  0  0
   -1.0023   -2.2878    0.7404 O   0  0  0  0  0  0  0  0  0  0  0  0
   -1.7759   -0.3675   -0.1650 N   0  0  0  0  0  0  0  0  0  0  0  0
   -2.6014    0.2239   -0.1694 H   0  0  0  0  0  0  0  0  0  0  0  0
   -0.4753    0.3174   -0.0783 C   0  0  1  0  0  0  0  0  0  0  0  0
    0.3324   -0.3938   -0.2798 H   0  0  0  0  0  0  0  0  0  0  0  0
   -0.4446    1.4411   -1.1329 C   0  0  0  0  0  0  0  0  0  0  0  0
   -1.3023    2.1036   -0.9759 H   0  0  0  0  0  0  0  0  0  0  0  0
    0.4575    2.0443   -0.9955 H   0  0  0  0  0  0  0  0  0  0  0  0
   -0.4722    0.9195   -2.5770 C   0  0  0  0  0  0  0  0  0  0  0  0
   -1.3867    0.3401   -2.7397 H   0  0  0  0  0  0  0  0  0  0  0  0
   -0.4925    1.7667   -3.2698 H   0  0  0  0  0  0  0  0  0  0  0  0
    0.9809   -0.1427   -2.9640 S   0  0  0  0  0  0  0  0  0  0  0  0
    2.3858    1.0404   -2.9598 C   0  0  0  0  0  0  0  0  0  0  0  0
    2.5348    1.4572   -1.9601 H   0  0  0  0  0  0  0  0  0  0  0  0
    3.3040    0.5285   -3.2628 H   0  0  0  0  0  0  0  0  0  0  0  0
    2.1946    1.8587   -3.6602 H   0  0  0  0  0  0  0  0  0  0  0  0
   -0.2261    0.9187    1.3235 C   0  0  0  0  0  0  0  0  0  0  0  0
   -1.1701    1.1958    2.0563 O   0  0  0  0  0  0  0  0  0  0  0  0
    1.0466    1.3185    1.6889 N   0  0  0  0  0  0  0  0  0  0  0  0
    1.8141    1.0029    1.1029 H   0  0  0  0  0  0  0  0  0  0  0  0
    1.3520    1.8935    2.9935 C   0  0  0  0  0  0  0  0  0  0  0  0
    1.1011    1.1868    3.7917 H   0  0  0  0  0  0  0  0  0  0  0  0
    2.4180    2.1305    3.0625 H   0  0  0  0  0  0  0  0  0  0  0  0
    0.7832    2.8163    3.1487 H   0  0  0  0  0  0  0  0  0  0  0  0
  1  2  1  0  0  0  0
  2  3  1  0  0  0  0
  2  4  1  0  0  0  0
  2  5  1  0  0  0  0
  5  6  2  0  0  0  0
  5  7  1  0  0  0  0
  7  8  1  0  0  0  0
  7  9  1  0  0  0  0
  9 10  1  0  0  0  0
  9 11  1  0  0  0  0
  9 22  1  0  0  0  0
 11 12  1  0  0  0  0
 11 13  1  0  0  0  0
 11 14  1  0  0  0  0
 14 15  1  0  0  0  0
 14 16  1  0  0  0  0
 14 17  1  0  0  0  0
 17 18  1  0  0  0  0
 18 19  1  0  0  0  0
 18 20  1  0  0  0  0
 18 21  1  0  0  0  0
 22 23  2  0  0  0  0
 22 24  1  0  0  0  0
 24 25  1  0  0  0  0
 24 26  1  0  0  0  0
 26 27  1  0  0  0  0
 26 28  1  0  0  0  0
 26 29  1  0  0  0  0
M  END
$$$$

  -OEChem-01062216093D

 29 28  0     1  0  0  0  0  0999 V2000
   -3.3141   -3.1297    1.1123 H   0  0  0  0  0  0  0  0  0  0  0  0
   -3.3593   -2.1211    0.6921 C   0  0  0  0  0  0  0  0  0  0  0  0
   -3.8249   -1.4566    1.4240 H   0  0  0  0  0  0  0  0  0  0  0  0
   -3.9692   -2.1431   -0.2140 H   0  0  0  0  0  0  0  0  0  0  0  0
   -1.9623   -1.6291    0.3656 C   0  0  0  0  0  0  0  0  0  0  0  0
   -0.9976   -2.3548    0.5542 O   0  0  0  0  0  0  0  0  0  0  0  0
   -1.7874   -0.3775   -0.1940 N   0  0  0  0  0  0  0  0  0  0  0  0
   -2.6150    0.2079   -0.1570 H   0  0  0  0  0  0  0  0  0  0  0  0
   -0.4898    0.3128   -0.0786 C   0  0  1  0  0  0  0  0  0  0  0  0
    0.2876   -0.3123   -0.5294 H   0  0  0  0  0  0  0  0  0  0  0  0
   -0.5984    1.6455   -0.8505 C   0  0  0  0  0  0  0  0  0  0  0  0
   -1.4446    2.2186   -0.4577 H   0  0  0  0  0  0  0  0  0  0  0  0
    0.3003    2.2448   -0.6814 H   0  0  0  0  0  0  0  0  0  0  0  0
   -0.7761    1.4570   -2.3650 C   0  0  0  0  0  0  0  0  0  0  0  0
   -1.6914    0.8890   -2.5597 H   0  0  0  0  0  0  0  0  0  0  0  0
   -0.8891    2.4353   -2.8429 H   0  0  0  0  0  0  0  0  0  0  0  0
    0.6449    0.5725   -3.1314 S   0  0  0  0  0  0  0  0  0  0  0  0
    2.0189    1.7852   -3.0073 C   0  0  0  0  0  0  0  0  0  0  0  0
    2.2677    1.9804   -1.9607 H   0  0  0  0  0  0  0  0  0  0  0  0
    2.9088    1.3918   -3.5077 H   0  0  0  0  0  0  0  0  0  0  0  0
    1.7371    2.7275   -3.4863 H   0  0  0  0  0  0  0  0  0  0  0  0
   -0.0561    0.5808    1.3872 C   0  0  0  0  0  0  0  0  0  0  0  0
   -0.8615    0.4807    2.3071 O   0  0  0  0  0  0  0  0  0  0  0  0
    1.1455    1.2184    1.6447 N   0  0  0  0  0  0  0  0  0  0  0  0
    1.8190    1.2539    0.8857 H   0  0  0  0  0  0  0  0  0  0  0  0
    1.5892    1.5675    2.9894 C   0  0  0  0  0  0  0  0  0  0  0  0
    1.6626    0.6703    3.6133 H   0  0  0  0  0  0  0  0  0  0  0  0
    2.5732    2.0445    2.9514 H   0  0  0  0  0  0  0  0  0  0  0  0
    0.8861    2.2653    3.4566 H   0  0  0  0  0  0  0  0  0  0  0  0
  1  2  1  0  0  0  0
  2  3  1  0  0  0  0
  2  4  1  0  0  0  0
  2  5  1  0  0  0  0
  5  6  2  0  0  0  0
  5  7  1  0  0  0  0
  7  8  1  0  0  0  0
  7  9  1  0  0  0  0
  9 10  1  0  0  0  0
  9 11  1  0  0  0  0
  9 22  1  0  0  0  0
 11 12  1  0  0  0  0
 11 13  1  0  0  0  0
 11 14  1  0  0  0  0
 14 15  1  0  0  0  0
 14 16  1  0  0  0  0
 14 17  1  0  0  0  0
 17 18  1  0  0  0  0
 18 19  1  0  0  0  0
 18 20  1  0  0  0  0
 18 21  1  0  0  0  0
 22 23  2  0  0  0  0
 22 24  1  0  0  0  0
 24 25  1  0  0  0  0
 24 26  1  0  0  0  0
 26 27  1  0  0  0  0
 26 28  1  0  0  0  0
 26 29  1  0  0  0  0
M  END
$$$$

  -OEChem-01062216093D

 29 28  0     1  0  0  0  0  0999 V2000
   -3.3082   -3.1353    1.0830 H   0  0  0  0  0  0  0  0  0  0  0  0
   -3.3508   -2.1066    0.7147 C   0  0  0  0  0  0  0  0  0  0  0  0
   -3.7645   -1.4698    1.5005 H   0  0  0  0  0  0  0  0  0  0  0  0
   -4.0043   -2.0718   -0.1599 H   0  0  0  0  0  0  0  0  0  0  0  0
   -1.9597   -1.6282    0.3448 C   0  0  0  0  0  0  0  0  0  0  0  0
   -1.0014   -2.3751    0.4725 O   0  0  0  0  0  0  0  0  0  0  0  0
   -1.7858   -0.3702   -0.2019 N   0  0  0  0  0  0  0  0  0  0  0  0
   -2.6132    0.2139   -0.1480 H   0  0  0  0  0  0  0  0  0  0  0  0
   -0.4885    0.3219   -0.0774 C   0  0  1  0  0  0  0  0  0  0  0  0
    0.2917   -0.3013   -0.5264 H   0  0  0  0  0  0  0  0  0  0  0  0
   -0.6076    1.6461   -0.8676 C   0  0  0  0  0  0  0  0  0  0  0  0
   -1.4605    2.2163   -0.4851 H   0  0  0  0  0  0  0  0  0  0  0  0
    0.2840    2.2577   -0.7103 H   0  0  0  0  0  0  0  0  0  0  0  0
   -0.7756    1.4378   -2.3812 C   0  0  0  0  0  0  0  0  0  0  0  0
   -1.6841    0.8587   -2.5748 H   0  0  0  0  0  0  0  0  0  0  0  0
   -0.8960    2.4091   -2.8712 H   0  0  0  0  0  0  0  0  0  0  0  0
    0.6581    0.5596   -3.1314 S   0  0  0  0  0  0  0  0  0  0  0  0
    2.0221    1.7845   -3.0176 C   0  0  0  0  0  0  0  0  0  0  0  0
    2.2691    1.9897   -1.9726 H   0  0  0  0  0  0  0  0  0  0  0  0
    2.9154    1.3944   -3.5149 H   0  0  0  0  0  0  0  0  0  0  0  0
    1.7323    2.7204   -3.5045 H   0  0  0  0  0  0  0  0  0  0  0  0
   -0.0485    0.5826    1.3935 C   0  0  0  0  0  0  0  0  0  0  0  0
   -0.7606    0.2500    2.3347 O   0  0  0  0  0  0  0  0  0  0  0  0
    0.9745    1.4755    1.6688 N   0  0  0  0  0  0  0  0  0  0  0  0
    1.5821    1.7321    0.8975 H   0  0  0  0  0  0  0  0  0  0  0  0
    1.3740    1.8418    3.0236 C   0  0  0  0  0  0  0  0  0  0  0  0
    1.6658    0.9517    3.5913 H   0  0  0  0  0  0  0  0  0  0  0  0
    2.2257    2.5282    2.9945 H   0  0  0  0  0  0  0  0  0  0  0  0
    0.5491    2.3376    3.5464 H   0  0  0  0  0  0  0  0  0  0  0  0
  1  2  1  0  0  0  0
  2  3  1  0  0  0  0
  2  4  1  0  0  0  0
  2  5  1  0  0  0  0
  5  6  2  0  0  0  0
  5  7  1  0  0  0  0
  7  8  1  0  0  0  0
  7  9  1  0  0  0  0
  9 10  1  0  0  0  0
  9 11  1  0  0  0  0
  9 22  1  0  0  0  0
 11 12  1  0  0  0  0
 11 13  1  0  0  0  0
 11 14  1  0  0  0  0
 14 15  1  0  0  0  0
 14 16  1  0  0  0  0
 14 17  1  0  0  0  0
 17 18  1  0  0  0  0
 18 19  1  0  0  0  0
 18 20  1  0  0  0  0
 18 21  1  0  0  0  0
 22 23  2  0  0  0  0
 22 24  1  0  0  0  0
 24 25  1  0  0  0  0
 24 26  1  0  0  0  0
 26 27  1  0  0  0  0
 26 28  1  0  0  0  0
 26 29  1  0  0  0  0
M  END
$$$$

  -OEChem-01062216093D

 29 28  0     1  0  0  0  0  0999 V2000
   -3.3057   -3.1310    1.0802 H   0  0  0  0  0  0  0  0  0  0  0  0
   -3.3460   -2.0950    0.7324 C   0  0  0  0  0  0  0  0  0  0  0  0
   -3.7267   -1.4681    1.5422 H   0  0  0  0  0  0  0  0  0  0  0  0
   -4.0252   -2.0351   -0.1211 H   0  0  0  0  0  0  0  0  0  0  0  0
   -1.9603   -1.6277    0.3303 C   0  0  0  0  0  0  0  0  0  0  0  0
   -1.0140   -2.3972    0.3910 O   0  0  0  0  0  0  0  0  0  0  0  0
   -1.7861   -0.3626   -0.2005 N   0  0  0  0  0  0  0  0  0  0  0  0
   -2.6143    0.2188   -0.1368 H   0  0  0  0  0  0  0  0  0  0  0  0
   -0.4908    0.3351   -0.0743 C   0  0  1  0  0  0  0  0  0  0  0  0
    0.2899   -0.2881   -0.5228 H   0  0  0  0  0  0  0  0  0  0  0  0
   -0.6140    1.6502   -0.8817 C   0  0  0  0  0  0  0  0  0  0  0  0
   -1.4694    2.2230   -0.5085 H   0  0  0  0  0  0  0  0  0  0  0  0
    0.2770    2.2655   -0.7360 H   0  0  0  0  0  0  0  0  0  0  0  0
   -0.7738    1.4236   -2.3938 C   0  0  0  0  0  0  0  0  0  0  0  0
   -1.6780    0.8369   -2.5851 H   0  0  0  0  0  0  0  0  0  0  0  0
   -0.8978    2.3886   -2.8953 H   0  0  0  0  0  0  0  0  0  0  0  0
    0.6673    0.5451   -3.1281 S   0  0  0  0  0  0  0  0  0  0  0  0
    2.0267    1.7759   -3.0240 C   0  0  0  0  0  0  0  0  0  0  0  0
    2.2722    1.9913   -1.9806 H   0  0  0  0  0  0  0  0  0  0  0  0
    2.9217    1.3831   -3.5160 H   0  0  0  0  0  0  0  0  0  0  0  0
    1.7354    2.7066   -3.5196 H   0  0  0  0  0  0  0  0  0  0  0  0
   -0.0370    0.5886    1.3978 C   0  0  0  0  0  0  0  0  0  0  0  0
   -0.5776    0.0236    2.3408 O   0  0  0  0  0  0  0  0  0  0  0  0
    0.7494    1.6855    1.7150 N   0  0  0  0  0  0  0  0  0  0  0  0
    1.2121    2.1620    0.9483 H   0  0  0  0  0  0  0  0  0  0  0  0
    1.0996    2.0584    3.0818 C   0  0  0  0  0  0  0  0  0  0  0  0
    1.6303    1.2396    3.5791 H   0  0  0  0  0  0  0  0  0  0  0  0
    1.7479    2.9399    3.0798 H   0  0  0  0  0  0  0  0  0  0  0  0
    0.1983    2.2951    3.6574 H   0  0  0  0  0  0  0  0  0  0  0  0
  1  2  1  0  0  0  0
  2  3  1  0  0  0  0
  2  4  1  0  0  0  0
  2  5  1  0  0  0  0
  5  6  2  0  0  0  0
  5  7  1  0  0  0  0
  7  8  1  0  0  0  0
  7  9  1  0  0  0  0
  9 10  1  0  0  0  0
  9 11  1  0  0  0  0
  9 22  1  0  0  0  0
 11 12  1  0  0  0  0
 11 13  1  0  0  0  0
 11 14  1  0  0  0  0
 14 15  1  0  0  0  0
 14 16  1  0  0  0  0
 14 17  1  0  0  0  0
 17 18  1  0  0  0  0
 18 19  1  0  0  0  0
 18 20  1  0  0  0  0
 18 21  1  0  0  0  0
 22 23  2  0  0  0  0
 22 24  1  0  0  0  0
 24 25  1  0  0  0  0
 24 26  1  0  0  0  0
 26 27  1  0  0  0  0
 26 28  1  0  0  0  0
 26 29  1  0  0  0  0
M  END
$$$$

  -OEChem-01062216093D

 29 28  0     1  0  0  0  0  0999 V2000
   -3.2959   -3.1166    1.1197 H   0  0  0  0  0  0  0  0  0  0  0  0
   -3.3421   -2.0863    0.7559 C   0  0  0  0  0  0  0  0  0  0  0  0
   -3.7122   -1.4475    1.5614 H   0  0  0  0  0  0  0  0  0  0  0  0
   -4.0338   -2.0407   -0.0882 H   0  0  0  0  0  0  0  0  0  0  0  0
   -1.9627   -1.6250    0.3257 C   0  0  0  0  0  0  0  0  0  0  0  0
   -1.0283   -2.4099    0.3342 O   0  0  0  0  0  0  0  0  0  0  0  0
   -1.7930   -0.3570   -0.1993 N   0  0  0  0  0  0  0  0  0  0  0  0
   -2.6270    0.2163   -0.1409 H   0  0  0  0  0  0  0  0  0  0  0  0
   -0.5056    0.3569   -0.0746 C   0  0  1  0  0  0  0  0  0  0  0  0
    0.2808   -0.2665   -0.5132 H   0  0  0  0  0  0  0  0  0  0  0  0
   -0.6236    1.6591   -0.9029 C   0  0  0  0  0  0  0  0  0  0  0  0
   -1.4835    2.2368   -0.5488 H   0  0  0  0  0  0  0  0  0  0  0  0
    0.2681    2.2735   -0.7572 H   0  0  0  0  0  0  0  0  0  0  0  0
   -0.7639    1.4114   -2.4136 C   0  0  0  0  0  0  0  0  0  0  0  0
   -1.6630    0.8176   -2.6067 H   0  0  0  0  0  0  0  0  0  0  0  0
   -0.8863    2.3686   -2.9303 H   0  0  0  0  0  0  0  0  0  0  0  0
    0.6887    0.5286   -3.1201 S   0  0  0  0  0  0  0  0  0  0  0  0
    2.0429    1.7654   -3.0165 C   0  0  0  0  0  0  0  0  0  0  0  0
    2.2853    1.9824   -1.9725 H   0  0  0  0  0  0  0  0  0  0  0  0
    2.9406    1.3762   -3.5064 H   0  0  0  0  0  0  0  0  0  0  0  0
    1.7487    2.6944   -3.5138 H   0  0  0  0  0  0  0  0  0  0  0  0
   -0.0506    0.6157    1.3969 C   0  0  0  0  0  0  0  0  0  0  0  0
   -0.3166   -0.1616    2.3033 O   0  0  0  0  0  0  0  0  0  0  0  0
    0.4468    1.8516    1.7825 N   0  0  0  0  0  0  0  0  0  0  0  0
    0.6629    2.5188    1.0500 H   0  0  0  0  0  0  0  0  0  0  0  0
    0.7961    2.1870    3.1591 C   0  0  0  0  0  0  0  0  0  0  0  0
    1.5542    1.4951    3.5413 H   0  0  0  0  0  0  0  0  0  0  0  0
    1.1982    3.2033    3.2109 H   0  0  0  0  0  0  0  0  0  0  0  0
   -0.0878    2.1322    3.8033 H   0  0  0  0  0  0  0  0  0  0  0  0
  1  2  1  0  0  0  0
  2  3  1  0  0  0  0
  2  4  1  0  0  0  0
  2  5  1  0  0  0  0
  5  6  2  0  0  0  0
  5  7  1  0  0  0  0
  7  8  1  0  0  0  0
  7  9  1  0  0  0  0
  9 10  1  0  0  0  0
  9 11  1  0  0  0  0
  9 22  1  0  0  0  0
 11 12  1  0  0  0  0
 11 13  1  0  0  0  0
 11 14  1  0  0  0  0
 14 15  1  0  0  0  0
 14 16  1  0  0  0  0
 14 17  1  0  0  0  0
 17 18  1  0  0  0  0
 18 19  1  0  0  0  0
 18 20  1  0  0  0  0
 18 21  1  0  0  0  0
 22 23  2  0  0  0  0
 22 24  1  0  0  0  0
 24 25  1  0  0  0  0
 24 26  1  0  0  0  0
 26 27  1  0  0  0  0
 26 28  1  0  0  0  0
 26 29  1  0  0  0  0
M  END
$$$$

  -OEChem-01062216093D

 29 28  0     1  0  0  0  0  0999 V2000
   -3.3204   -3.1196    1.0963 H   0  0  0  0  0  0  0  0  0  0  0  0
   -3.3568   -2.0870    0.7376 C   0  0  0  0  0  0  0  0  0  0  0  0
   -3.7473   -1.4523    1.5365 H   0  0  0  0  0  0  0  0  0  0  0  0
   -4.0265   -2.0366   -0.1240 H   0  0  0  0  0  0  0  0  0  0  0  0
   -1.9665   -1.6249    0.3442 C   0  0  0  0  0  0  0  0  0  0  0  0
   -1.0375   -2.4137    0.3682 O   0  0  0  0  0  0  0  0  0  0  0  0
   -1.7904   -0.3591   -0.1829 N   0  0  0  0  0  0  0  0  0  0  0  0
   -2.6301    0.2084   -0.1675 H   0  0  0  0  0  0  0  0  0  0  0  0
   -0.5093    0.3659   -0.0658 C   0  0  1  0  0  0  0  0  0  0  0  0
    0.2807   -0.2578   -0.4977 H   0  0  0  0  0  0  0  0  0  0  0  0
   -0.6244    1.6623   -0.9008 C   0  0  0  0  0  0  0  0  0  0  0  0
   -1.4876    2.2410   -0.5565 H   0  0  0  0  0  0  0  0  0  0  0  0
    0.2685    2.2749   -0.7472 H   0  0  0  0  0  0  0  0  0  0  0  0
   -0.7589    1.4066   -2.4106 C   0  0  0  0  0  0  0  0  0  0  0  0
   -1.6572    0.8112   -2.6031 H   0  0  0  0  0  0  0  0  0  0  0  0
   -0.8799    2.3607   -2.9329 H   0  0  0  0  0  0  0  0  0  0  0  0
    0.6950    0.5205   -3.1089 S   0  0  0  0  0  0  0  0  0  0  0  0
    2.0486    1.7576   -3.0074 C   0  0  0  0  0  0  0  0  0  0  0  0
    2.2846    1.9843   -1.9641 H   0  0  0  0  0  0  0  0  0  0  0  0
    2.9489    1.3631   -3.4879 H   0  0  0  0  0  0  0  0  0  0  0  0
    1.7581    2.6820   -3.5150 H   0  0  0  0  0  0  0  0  0  0  0  0
   -0.0588    0.6340    1.4027 C   0  0  0  0  0  0  0  0  0  0  0  0
    0.0129   -0.2579    2.2344 O   0  0  0  0  0  0  0  0  0  0  0  0
    0.1300    1.9284    1.8639 N   0  0  0  0  0  0  0  0  0  0  0  0
    0.0520    2.6832    1.1910 H   0  0  0  0  0  0  0  0  0  0  0  0
    0.4825    2.2507    3.2429 C   0  0  0  0  0  0  0  0  0  0  0  0
    1.4269    1.7701    3.5197 H   0  0  0  0  0  0  0  0  0  0  0  0
    0.5978    3.3323    3.3614 H   0  0  0  0  0  0  0  0  0  0  0  0
   -0.3002    1.9097    3.9287 H   0  0  0  0  0  0  0  0  0  0  0  0
  1  2  1  0  0  0  0
  2  3  1  0  0  0  0
  2  4  1  0  0  0  0
  2  5  1  0  0  0  0
  5  6  2  0  0  0  0
  5  7  1  0  0  0  0
  7  8  1  0  0  0  0
  7  9  1  0  0  0  0
  9 10  1  0  0  0  0
  9 11  1  0  0  0  0
  9 22  1  0  0  0  0
 11 12  1  0  0  0  0
 11 13  1  0  0  0  0
 11 14  1  0  0  0  0
 14 15  1  0  0  0  0
 14 16  1  0  0  0  0
 14 17  1  0  0  0  0
 17 18  1  0  0  0  0
 18 19  1  0  0  0  0
 18 20  1  0  0  0  0
 18 21  1  0  0  0  0
 22 23  2  0  0  0  0
 22 24  1  0  0  0  0
 24 25  1  0  0  0  0
 24 26  1  0  0  0  0
 26 27  1  0  0  0  0
 26 28  1  0  0  0  0
 26 29  1  0  0  0  0
M  END
$$$$

  -OEChem-01062216093D

 29 28  0     1  0  0  0  0  0999 V2000
   -3.3998   -3.1262    1.0571 H   0  0  0  0  0  0  0  0  0  0  0  0
   -3.4181   -2.1271    0.6125 C   0  0  0  0  0  0  0  0  0  0  0  0
   -3.9547   -1.4544    1.2854 H   0  0  0  0  0  0  0  0  0  0  0  0
   -3.9443   -2.1768   -0.3436 H   0  0  0  0  0  0  0  0  0  0  0  0
   -2.0015   -1.6279    0.3987 C   0  0  0  0  0  0  0  0  0  0  0  0
   -1.0657   -2.3802    0.5961 O   0  0  0  0  0  0  0  0  0  0  0  0
   -1.7987   -0.3681   -0.1324 N   0  0  0  0  0  0  0  0  0  0  0  0
   -2.6415    0.1822   -0.2521 H   0  0  0  0  0  0  0  0  0  0  0  0
   -0.5221    0.3660   -0.0275 C   0  0  1  0  0  0  0  0  0  0  0  0
    0.2690   -0.2596   -0.4554 H   0  0  0  0  0  0  0  0  0  0  0  0
   -0.6346    1.6595   -0.8655 C   0  0  0  0  0  0  0  0  0  0  0  0
   -1.4983    2.2399   -0.5264 H   0  0  0  0  0  0  0  0  0  0  0  0
    0.2588    2.2702   -0.7032 H   0  0  0  0  0  0  0  0  0  0  0  0
   -0.7699    1.4022   -2.3750 C   0  0  0  0  0  0  0  0  0  0  0  0
   -1.6701    0.8101   -2.5670 H   0  0  0  0  0  0  0  0  0  0  0  0
   -0.8871    2.3568   -2.8977 H   0  0  0  0  0  0  0  0  0  0  0  0
    0.6804    0.5121   -3.0748 S   0  0  0  0  0  0  0  0  0  0  0  0
    2.0353    1.7481   -2.9747 C   0  0  0  0  0  0  0  0  0  0  0  0
    2.2667    1.9814   -1.9317 H   0  0  0  0  0  0  0  0  0  0  0  0
    2.9376    1.3497   -3.4484 H   0  0  0  0  0  0  0  0  0  0  0  0
    1.7480    2.6694   -3.4898 H   0  0  0  0  0  0  0  0  0  0  0  0
   -0.0718    0.6520    1.4334 C   0  0  0  0  0  0  0  0  0  0  0  0
    0.4292   -0.2106    2.1370 O   0  0  0  0  0  0  0  0  0  0  0  0
   -0.1884    1.9235    1.9747 N   0  0  0  0  0  0  0  0  0  0  0  0
   -0.5834    2.6508    1.3886 H   0  0  0  0  0  0  0  0  0  0  0  0
    0.2534    2.2660    3.3223 C   0  0  0  0  0  0  0  0  0  0  0  0
    1.3337    2.1152    3.4201 H   0  0  0  0  0  0  0  0  0  0  0  0
    0.0288    3.3144    3.5402 H   0  0  0  0  0  0  0  0  0  0  0  0
   -0.2576    1.6426    4.0638 H   0  0  0  0  0  0  0  0  0  0  0  0
  1  2  1  0  0  0  0
  2  3  1  0  0  0  0
  2  4  1  0  0  0  0
  2  5  1  0  0  0  0
  5  6  2  0  0  0  0
  5  7  1  0  0  0  0
  7  8  1  0  0  0  0
  7  9  1  0  0  0  0
  9 10  1  0  0  0  0
  9 11  1  0  0  0  0
  9 22  1  0  0  0  0
 11 12  1  0  0  0  0
 11 13  1  0  0  0  0
 11 14  1  0  0  0  0
 14 15  1  0  0  0  0
 14 16  1  0  0  0  0
 14 17  1  0  0  0  0
 17 18  1  0  0  0  0
 18 19  1  0  0  0  0
 18 20  1  0  0  0  0
 18 21  1  0  0  0  0
 22 23  2  0  0  0  0
 22 24  1  0  0  0  0
 24 25  1  0  0  0  0
 24 26  1  0  0  0  0
 26 27  1  0  0  0  0
 26 28  1  0  0  0  0
 26 29  1  0  0  0  0
M  END
$$$$

  -OEChem-01062216093D

 29 28  0     1  0  0  0  0  0999 V2000
   -3.4790   -3.2026    0.8362 H   0  0  0  0  0  0  0  0  0  0  0  0
   -3.4570   -2.2131    0.3705 C   0  0  0  0  0  0  0  0  0  0  0  0
   -4.2009   -1.5787    0.8581 H   0  0  0  0  0  0  0  0  0  0  0  0
   -3.7101   -2.3172   -0.6873 H   0  0  0  0  0  0  0  0  0  0  0  0
   -2.0768   -1.6006    0.5164 C   0  0  0  0  0  0  0  0  0  0  0  0
   -1.2036   -2.2236    1.0883 O   0  0  0  0  0  0  0  0  0  0  0  0
   -1.8296   -0.3544   -0.0261 N   0  0  0  0  0  0  0  0  0  0  0  0
   -2.5938    0.0727   -0.5374 H   0  0  0  0  0  0  0  0  0  0  0  0
   -0.5421    0.3636    0.0426 C   0  0  1  0  0  0  0  0  0  0  0  0
    0.2284   -0.2781   -0.3991 H   0  0  0  0  0  0  0  0  0  0  0  0
   -0.6467    1.6590   -0.7911 C   0  0  0  0  0  0  0  0  0  0  0  0
   -1.4923    2.2548   -0.4340 H   0  0  0  0  0  0  0  0  0  0  0  0
    0.2599    2.2532   -0.6393 H   0  0  0  0  0  0  0  0  0  0  0  0
   -0.8202    1.4105   -2.2979 C   0  0  0  0  0  0  0  0  0  0  0  0
   -1.7367    0.8401   -2.4758 H   0  0  0  0  0  0  0  0  0  0  0  0
   -0.9251    2.3702   -2.8140 H   0  0  0  0  0  0  0  0  0  0  0  0
    0.5977    0.4927   -3.0268 S   0  0  0  0  0  0  0  0  0  0  0  0
    1.9755    1.7051   -2.9465 C   0  0  0  0  0  0  0  0  0  0  0  0
    2.2300    1.9276   -1.9062 H   0  0  0  0  0  0  0  0  0  0  0  0
    2.8622    1.2942   -3.4385 H   0  0  0  0  0  0  0  0  0  0  0  0
    1.6947    2.6346   -3.4500 H   0  0  0  0  0  0  0  0  0  0  0  0
   -0.0524    0.6663    1.4836 C   0  0  0  0  0  0  0  0  0  0  0  0
    0.8502    0.0134    1.9865 O   0  0  0  0  0  0  0  0  0  0  0  0
   -0.4157    1.8453    2.1157 N   0  0  0  0  0  0  0  0  0  0  0  0
   -1.1617    2.3884    1.6958 H   0  0  0  0  0  0  0  0  0  0  0  0
    0.1008    2.2448    3.4200 C   0  0  0  0  0  0  0  0  0  0  0  0
    1.1866    2.3810    3.3762 H   0  0  0  0  0  0  0  0  0  0  0  0
   -0.3531    3.1892    3.7348 H   0  0  0  0  0  0  0  0  0  0  0  0
   -0.1282    1.4824    4.1722 H   0  0  0  0  0  0  0  0  0  0  0  0
  1  2  1  0  0  0  0
  2  3  1  0  0  0  0
  2  4  1  0  0  0  0
  2  5  1  0  0  0  0
  5  6  2  0  0  0  0
  5  7  1  0  0  0  0
  7  8  1  0  0  0  0
  7  9  1  0  0  0  0
  9 10  1  0  0  0  0
  9 11  1  0  0  0  0
  9 22  1  0  0  0  0
 11 12  1  0  0  0  0
 11 13  1  0  0  0  0
 11 14  1  0  0  0  0
 14 15  1  0  0  0  0
 14 16  1  0  0  0  0
 14 17  1  0  0  0  0
 17 18  1  0  0  0  0
 18 19  1  0  0  0  0
 18 20  1  0  0  0  0
 18 21  1  0  0  0  0
 22 23  2  0  0  0  0
 22 24  1  0  0  0  0
 24 25  1  0  0  0  0
 24 26  1  0  0  0  0
 26 27  1  0  0  0  0
 26 28  1  0  0  0  0
 26 29  1  0  0  0  0
M  END
$$$$

  -OEChem-01062216093D

 29 28  0     1  0  0  0  0  0999 V2000
   -3.4492   -3.2369    0.7812 H   0  0  0  0  0  0  0  0  0  0  0  0
   -3.4346   -2.2527    0.3039 C   0  0  0  0  0  0  0  0  0  0  0  0
   -4.2501   -1.6517    0.7131 H   0  0  0  0  0  0  0  0  0  0  0  0
   -3.5863   -2.3819   -0.7704 H   0  0  0  0  0  0  0  0  0  0  0  0
   -2.1054   -1.5686    0.5627 C   0  0  0  0  0  0  0  0  0  0  0  0
   -1.2749   -2.1156    1.2628 O   0  0  0  0  0  0  0  0  0  0  0  0
   -1.8584   -0.3300    0.0031 N   0  0  0  0  0  0  0  0  0  0  0  0
   -2.5531    0.0057   -0.6550 H   0  0  0  0  0  0  0  0  0  0  0  0
   -0.5568    0.3636    0.0516 C   0  0  1  0  0  0  0  0  0  0  0  0
    0.1952   -0.2915   -0.4019 H   0  0  0  0  0  0  0  0  0  0  0  0
   -0.6372    1.6713   -0.7628 C   0  0  0  0  0  0  0  0  0  0  0  0
   -1.4592    2.2863   -0.3836 H   0  0  0  0  0  0  0  0  0  0  0  0
    0.2874    2.2383   -0.6144 H   0  0  0  0  0  0  0  0  0  0  0  0
   -0.8401    1.4490   -2.2693 C   0  0  0  0  0  0  0  0  0  0  0  0
   -1.7762    0.9101   -2.4421 H   0  0  0  0  0  0  0  0  0  0  0  0
   -0.9227    2.4191   -2.7699 H   0  0  0  0  0  0  0  0  0  0  0  0
    0.5402    0.5010   -3.0303 S   0  0  0  0  0  0  0  0  0  0  0  0
    1.9523    1.6733   -2.9530 C   0  0  0  0  0  0  0  0  0  0  0  0
    2.2263    1.8738   -1.9131 H   0  0  0  0  0  0  0  0  0  0  0  0
    2.8207    1.2448   -3.4623 H   0  0  0  0  0  0  0  0  0  0  0  0
    1.6910    2.6174   -3.4397 H   0  0  0  0  0  0  0  0  0  0  0  0
   -0.0483    0.6619    1.4836 C   0  0  0  0  0  0  0  0  0  0  0  0
    1.0328    0.2254    1.8539 O   0  0  0  0  0  0  0  0  0  0  0  0
   -0.6246    1.6816    2.2229 N   0  0  0  0  0  0  0  0  0  0  0  0
   -1.5440    1.9921    1.9284 H   0  0  0  0  0  0  0  0  0  0  0  0
   -0.1405    2.0753    3.5407 C   0  0  0  0  0  0  0  0  0  0  0  0
    0.9016    2.4073    3.4830 H   0  0  0  0  0  0  0  0  0  0  0  0
   -0.7426    2.8996    3.9346 H   0  0  0  0  0  0  0  0  0  0  0  0
   -0.2036    1.2336    4.2385 H   0  0  0  0  0  0  0  0  0  0  0  0
  1  2  1  0  0  0  0
  2  3  1  0  0  0  0
  2  4  1  0  0  0  0
  2  5  1  0  0  0  0
  5  6  2  0  0  0  0
  5  7  1  0  0  0  0
  7  8  1  0  0  0  0
  7  9  1  0  0  0  0
  9 10  1  0  0  0  0
  9 11  1  0  0  0  0
  9 22  1  0  0  0  0
 11 12  1  0  0  0  0
 11 13  1  0  0  0  0
 11 14  1  0  0  0  0
 14 15  1  0  0  0  0
 14 16  1  0  0  0  0
 14 17  1  0  0  0  0
 17 18  1  0  0  0  0
 18 19  1  0  0  0  0
 18 20  1  0  0  0  0
 18 21  1  0  0  0  0
 22 23  2  0  0  0  0
 22 24  1  0  0  0  0
 24 25  1  0  0  0  0
 24 26  1  0  0  0  0
 26 27  1  0  0  0  0
 26 28  1  0  0  0  0
 26 29  1  0  0  0  0
M  END
$$$$

  -OEChem-01062216093D

 29 28  0     1  0  0  0  0  0999 V2000
   -3.4406   -3.2426    0.7693 H   0  0  0  0  0  0  0  0  0  0  0  0
   -3.4262   -2.2638    0.2813 C   0  0  0  0  0  0  0  0  0  0  0  0
   -4.2658   -1.6724    0.6543 H   0  0  0  0  0  0  0  0  0  0  0  0
   -3.5383   -2.4086   -0.7959 H   0  0  0  0  0  0  0  0  0  0  0  0
   -2.1183   -1.5540    0.5769 C   0  0  0  0  0  0  0  0  0  0  0  0
   -1.3070   -2.0715    1.3217 O   0  0  0  0  0  0  0  0  0  0  0  0
   -1.8670   -0.3212    0.0064 N   0  0  0  0  0  0  0  0  0  0  0  0
   -2.5317   -0.0178   -0.6971 H   0  0  0  0  0  0  0  0  0  0  0  0
   -0.5558    0.3558    0.0500 C   0  0  1  0  0  0  0  0  0  0  0  0
    0.1886   -0.3049   -0.4077 H   0  0  0  0  0  0  0  0  0  0  0  0
   -0.6263    1.6718   -0.7491 C   0  0  0  0  0  0  0  0  0  0  0  0
   -1.4357    2.2931   -0.3529 H   0  0  0  0  0  0  0  0  0  0  0  0
    0.3072    2.2253   -0.6035 H   0  0  0  0  0  0  0  0  0  0  0  0
   -0.8457    1.4676   -2.2557 C   0  0  0  0  0  0  0  0  0  0  0  0
   -1.7899    0.9427   -2.4253 H   0  0  0  0  0  0  0  0  0  0  0  0
   -0.9214    2.4438   -2.7451 H   0  0  0  0  0  0  0  0  0  0  0  0
    0.5148    0.5098   -3.0399 S   0  0  0  0  0  0  0  0  0  0  0  0
    1.9412    1.6650   -2.9627 C   0  0  0  0  0  0  0  0  0  0  0  0
    2.2272    1.8510   -1.9233 H   0  0  0  0  0  0  0  0  0  0  0  0
    2.7999    1.2330   -3.4852 H   0  0  0  0  0  0  0  0  0  0  0  0
    1.6864    2.6174   -3.4364 H   0  0  0  0  0  0  0  0  0  0  0  0
   -0.0421    0.6550    1.4778 C   0  0  0  0  0  0  0  0  0  0  0  0
    1.1304    0.4457    1.7598 O   0  0  0  0  0  0  0  0  0  0  0  0
   -0.7907    1.4589    2.3200 N   0  0  0  0  0  0  0  0  0  0  0  0
   -1.7764    1.5429    2.0952 H   0  0  0  0  0  0  0  0  0  0  0  0
   -0.3467    1.8221    3.6603 C   0  0  0  0  0  0  0  0  0  0  0  0
    0.6002    2.3706    3.6166 H   0  0  0  0  0  0  0  0  0  0  0  0
   -1.0910    2.4605    4.1455 H   0  0  0  0  0  0  0  0  0  0  0  0
   -0.2057    0.9245    4.2717 H   0  0  0  0  0  0  0  0  0  0  0  0
  1  2  1  0  0  0  0
  2  3  1  0  0  0  0
  2  4  1  0  0  0  0
  2  5  1  0  0  0  0
  5  6  2  0  0  0  0
  5  7  1  0  0  0  0
  7  8  1  0  0  0  0
  7  9  1  0  0  0  0
  9 10  1  0  0  0  0
  9 11  1  0  0  0  0
  9 22  1  0  0  0  0
 11 12  1  0  0  0  0
 11 13  1  0  0  0  0
 11 14  1  0  0  0  0
 14 15  1  0  0  0  0
 14 16  1  0  0  0  0
 14 17  1  0  0  0  0
 17 18  1  0  0  0  0
 18 19  1  0  0  0  0
 18 20  1  0  0  0  0
 18 21  1  0  0  0  0
 22 23  2  0  0  0  0
 22 24  1  0  0  0  0
 24 25  1  0  0  0  0
 24 26  1  0  0  0  0
 26 27  1  0  0  0  0
 26 28  1  0  0  0  0
 26 29  1  0  0  0  0
M  END
$$$$

  -OEChem-01062216093D

 29 28  0     1  0  0  0  0  0999 V2000
   -3.4429   -3.2487    0.7428 H   0  0  0  0  0  0  0  0  0  0  0  0
   -3.4281   -2.2675    0.2598 C   0  0  0  0  0  0  0  0  0  0  0  0
   -4.2761   -1.6829    0.6240 H   0  0  0  0  0  0  0  0  0  0  0  0
   -3.5253   -2.4072   -0.8197 H   0  0  0  0  0  0  0  0  0  0  0  0
   -2.1293   -1.5500    0.5761 C   0  0  0  0  0  0  0  0  0  0  0  0
   -1.3325   -2.0524    1.3471 O   0  0  0  0  0  0  0  0  0  0  0  0
   -1.8720   -0.3206    0.0017 N   0  0  0  0  0  0  0  0  0  0  0  0
   -2.5223   -0.0278   -0.7198 H   0  0  0  0  0  0  0  0  0  0  0  0
   -0.5566    0.3492    0.0483 C   0  0  1  0  0  0  0  0  0  0  0  0
    0.1863   -0.3130   -0.4094 H   0  0  0  0  0  0  0  0  0  0  0  0
   -0.6258    1.6684   -0.7449 C   0  0  0  0  0  0  0  0  0  0  0  0
   -1.4310    2.2907   -0.3414 H   0  0  0  0  0  0  0  0  0  0  0  0
    0.3094    2.2193   -0.6012 H   0  0  0  0  0  0  0  0  0  0  0  0
   -0.8495    1.4696   -2.2517 C   0  0  0  0  0  0  0  0  0  0  0  0
   -1.7961    0.9490   -2.4220 H   0  0  0  0  0  0  0  0  0  0  0  0
   -0.9216    2.4478   -2.7380 H   0  0  0  0  0  0  0  0  0  0  0  0
    0.5082    0.5107   -3.0392 S   0  0  0  0  0  0  0  0  0  0  0  0
    1.9353    1.6647   -2.9591 C   0  0  0  0  0  0  0  0  0  0  0  0
    2.2251    1.8441   -1.9194 H   0  0  0  0  0  0  0  0  0  0  0  0
    2.7920    1.2360   -3.4874 H   0  0  0  0  0  0  0  0  0  0  0  0
    1.6789    2.6200   -3.4259 H   0  0  0  0  0  0  0  0  0  0  0  0
   -0.0387    0.6542    1.4726 C   0  0  0  0  0  0  0  0  0  0  0  0
    1.1666    0.6802    1.6861 O   0  0  0  0  0  0  0  0  0  0  0  0
   -0.8954    1.1958    2.4144 N   0  0  0  0  0  0  0  0  0  0  0  0
   -1.8844    1.0491    2.2413 H   0  0  0  0  0  0  0  0  0  0  0  0
   -0.4662    1.5202    3.7691 C   0  0  0  0  0  0  0  0  0  0  0  0
    0.3446    2.2561    3.7499 H   0  0  0  0  0  0  0  0  0  0  0  0
   -1.2993    1.9422    4.3393 H   0  0  0  0  0  0  0  0  0  0  0  0
   -0.1124    0.6202    4.2830 H   0  0  0  0  0  0  0  0  0  0  0  0
  1  2  1  0  0  0  0
  2  3  1  0  0  0  0
  2  4  1  0  0  0  0
  2  5  1  0  0  0  0
  5  6  2  0  0  0  0
  5  7  1  0  0  0  0
  7  8  1  0  0  0  0
  7  9  1  0  0  0  0
  9 10  1  0  0  0  0
  9 11  1  0  0  0  0
  9 22  1  0  0  0  0
 11 12  1  0  0  0  0
 11 13  1  0  0  0  0
 11 14  1  0  0  0  0
 14 15  1  0  0  0  0
 14 16  1  0  0  0  0
 14 17  1  0  0  0  0
 17 18  1  0  0  0  0
 18 19  1  0  0  0  0
 18 20  1  0  0  0  0
 18 21  1  0  0  0  0
 22 23  2  0  0  0  0
 22 24  1  0  0  0  0
 24 25  1  0  0  0  0
 24 26  1  0  0  0  0
 26 27  1  0  0  0  0
 26 28  1  0  0  0  0
 26 29  1  0  0  0  0
M  END
$$$$

  -OEChem-01062216093D

 29 28  0     1  0  0  0  0  0999 V2000
   -3.4687   -3.2438    0.7255 H   0  0  0  0  0  0  0  0  0  0  0  0
   -3.4401   -2.2706    0.2268 C   0  0  0  0  0  0  0  0  0  0  0  0
   -4.2979   -1.6802    0.5575 H   0  0  0  0  0  0  0  0  0  0  0  0
   -3.5076   -2.4287   -0.8523 H   0  0  0  0  0  0  0  0  0  0  0  0
   -2.1496   -1.5488    0.5663 C   0  0  0  0  0  0  0  0  0  0  0  0
   -1.3699   -2.0425    1.3604 O   0  0  0  0  0  0  0  0  0  0  0  0
   -1.8807   -0.3210   -0.0058 N   0  0  0  0  0  0  0  0  0  0  0  0
   -2.5233   -0.0239   -0.7329 H   0  0  0  0  0  0  0  0  0  0  0  0
   -0.5622    0.3450    0.0509 C   0  0  1  0  0  0  0  0  0  0  0  0
    0.1818   -0.3168   -0.4050 H   0  0  0  0  0  0  0  0  0  0  0  0
   -0.6345    1.6638   -0.7442 C   0  0  0  0  0  0  0  0  0  0  0  0
   -1.4434    2.2818   -0.3413 H   0  0  0  0  0  0  0  0  0  0  0  0
    0.2973    2.2205   -0.6005 H   0  0  0  0  0  0  0  0  0  0  0  0
   -0.8535    1.4648   -2.2517 C   0  0  0  0  0  0  0  0  0  0  0  0
   -1.7986    0.9428   -2.4254 H   0  0  0  0  0  0  0  0  0  0  0  0
   -0.9266    2.4432   -2.7373 H   0  0  0  0  0  0  0  0  0  0  0  0
    0.5098    0.5106   -3.0361 S   0  0  0  0  0  0  0  0  0  0  0  0
    1.9341    1.6683   -2.9525 C   0  0  0  0  0  0  0  0  0  0  0  0
    2.2175    1.8520   -1.9118 H   0  0  0  0  0  0  0  0  0  0  0  0
    2.7948    1.2395   -3.4742 H   0  0  0  0  0  0  0  0  0  0  0  0
    1.6786    2.6217   -3.4239 H   0  0  0  0  0  0  0  0  0  0  0  0
   -0.0394    0.6570    1.4737 C   0  0  0  0  0  0  0  0  0  0  0  0
    1.1484    0.9078    1.6368 O   0  0  0  0  0  0  0  0  0  0  0  0
   -0.9258    0.9115    2.5046 N   0  0  0  0  0  0  0  0  0  0  0  0
   -1.8572    0.5306    2.3716 H   0  0  0  0  0  0  0  0  0  0  0  0
   -0.4829    1.1923    3.8645 C   0  0  0  0  0  0  0  0  0  0  0  0
    0.1516    2.0846    3.8854 H   0  0  0  0  0  0  0  0  0  0  0  0
   -1.3455    1.3694    4.5139 H   0  0  0  0  0  0  0  0  0  0  0  0
    0.0858    0.3457    4.2636 H   0  0  0  0  0  0  0  0  0  0  0  0
  1  2  1  0  0  0  0
  2  3  1  0  0  0  0
  2  4  1  0  0  0  0
  2  5  1  0  0  0  0
  5  6  2  0  0  0  0
  5  7  1  0  0  0  0
  7  8  1  0  0  0  0
  7  9  1  0  0  0  0
  9 10  1  0  0  0  0
  9 11  1  0  0  0  0
  9 22  1  0  0  0  0
 11 12  1  0  0  0  0
 11 13  1  0  0  0  0
 11 14  1  0  0  0  0
 14 15  1  0  0  0  0
 14 16  1  0  0  0  0
 14 17  1  0  0  0  0
 17 18  1  0  0  0  0
 18 19  1  0  0  0  0
 18 20  1  0  0  0  0
 18 21  1  0  0  0  0
 22 23  2  0  0  0  0
 22 24  1  0  0  0  0
 24 25  1  0  0  0  0
 24 26  1  0  0  0  0
 26 27  1  0  0  0  0
 26 28  1  0  0  0  0
 26 29  1  0  0  0  0
M  END
$$$$

  -OEChem-01062216093D

 29 28  0     1  0  0  0  0  0999 V2000
   -3.5156   -3.2401    0.6645 H   0  0  0  0  0  0  0  0  0  0  0  0
   -3.4738   -2.2566    0.1875 C   0  0  0  0  0  0  0  0  0  0  0  0
   -4.3212   -1.6605    0.5345 H   0  0  0  0  0  0  0  0  0  0  0  0
   -3.5476   -2.3894   -0.8946 H   0  0  0  0  0  0  0  0  0  0  0  0
   -2.1717   -1.5618    0.5380 C   0  0  0  0  0  0  0  0  0  0  0  0
   -1.4102   -2.0683    1.3420 O   0  0  0  0  0  0  0  0  0  0  0  0
   -1.8808   -0.3320   -0.0172 N   0  0  0  0  0  0  0  0  0  0  0  0
   -2.5317   -0.0015   -0.7219 H   0  0  0  0  0  0  0  0  0  0  0  0
   -0.5647    0.3390    0.0583 C   0  0  1  0  0  0  0  0  0  0  0  0
    0.1854   -0.3188   -0.3926 H   0  0  0  0  0  0  0  0  0  0  0  0
   -0.6509    1.6519   -0.7494 C   0  0  0  0  0  0  0  0  0  0  0  0
   -1.4731    2.2594   -0.3575 H   0  0  0  0  0  0  0  0  0  0  0  0
    0.2685    2.2283   -0.6060 H   0  0  0  0  0  0  0  0  0  0  0  0
   -0.8532    1.4384   -2.2576 C   0  0  0  0  0  0  0  0  0  0  0  0
   -1.7880    0.9002   -2.4372 H   0  0  0  0  0  0  0  0  0  0  0  0
   -0.9366    2.4123   -2.7506 H   0  0  0  0  0  0  0  0  0  0  0  0
    0.5322    0.5004   -3.0225 S   0  0  0  0  0  0  0  0  0  0  0  0
    1.9355    1.6831   -2.9337 C   0  0  0  0  0  0  0  0  0  0  0  0
    2.2059    1.8783   -1.8916 H   0  0  0  0  0  0  0  0  0  0  0  0
    2.8083    1.2658   -3.4448 H   0  0  0  0  0  0  0  0  0  0  0  0
    1.6677    2.6291   -3.4133 H   0  0  0  0  0  0  0  0  0  0  0  0
   -0.0388    0.6565    1.4827 C   0  0  0  0  0  0  0  0  0  0  0  0
    1.0832    1.1307    1.6168 O   0  0  0  0  0  0  0  0  0  0  0  0
   -0.8774    0.6109    2.5813 N   0  0  0  0  0  0  0  0  0  0  0  0
   -1.6690   -0.0173    2.4694 H   0  0  0  0  0  0  0  0  0  0  0  0
   -0.4010    0.8672    3.9348 C   0  0  0  0  0  0  0  0  0  0  0  0
    0.0183    1.8762    4.0101 H   0  0  0  0  0  0  0  0  0  0  0  0
   -1.2270    0.7850    4.6477 H   0  0  0  0  0  0  0  0  0  0  0  0
    0.3719    0.1426    4.2120 H   0  0  0  0  0  0  0  0  0  0  0  0
  1  2  1  0  0  0  0
  2  3  1  0  0  0  0
  2  4  1  0  0  0  0
  2  5  1  0  0  0  0
  5  6  2  0  0  0  0
  5  7  1  0  0  0  0
  7  8  1  0  0  0  0
  7  9  1  0  0  0  0
  9 10  1  0  0  0  0
  9 11  1  0  0  0  0
  9 22  1  0  0  0  0
 11 12  1  0  0  0  0
 11 13  1  0  0  0  0
 11 14  1  0  0  0  0
 14 15  1  0  0  0  0
 14 16  1  0  0  0  0
 14 17  1  0  0  0  0
 17 18  1  0  0  0  0
 18 19  1  0  0  0  0
 18 20  1  0  0  0  0
 18 21  1  0  0  0  0
 22 23  2  0  0  0  0
 22 24  1  0  0  0  0
 24 25  1  0  0  0  0
 24 26  1  0  0  0  0
 26 27  1  0  0  0  0
 26 28  1  0  0  0  0
 26 29  1  0  0  0  0
M  END
$$$$

  -OEChem-01062216093D

 29 28  0     1  0  0  0  0  0999 V2000
   -3.5702   -3.2210    0.6352 H   0  0  0  0  0  0  0  0  0  0  0  0
   -3.5126   -2.2284    0.1793 C   0  0  0  0  0  0  0  0  0  0  0  0
   -4.3298   -1.6154    0.5669 H   0  0  0  0  0  0  0  0  0  0  0  0
   -3.6246   -2.3334   -0.9025 H   0  0  0  0  0  0  0  0  0  0  0  0
   -2.1789   -1.5820    0.5020 C   0  0  0  0  0  0  0  0  0  0  0  0
   -1.4025   -2.1371    1.2594 O   0  0  0  0  0  0  0  0  0  0  0  0
   -1.8716   -0.3462   -0.0299 N   0  0  0  0  0  0  0  0  0  0  0  0
   -2.5539    0.0409   -0.6734 H   0  0  0  0  0  0  0  0  0  0  0  0
   -0.5606    0.3353    0.0619 C   0  0  1  0  0  0  0  0  0  0  0  0
    0.1959   -0.3168   -0.3864 H   0  0  0  0  0  0  0  0  0  0  0  0
   -0.6620    1.6413   -0.7592 C   0  0  0  0  0  0  0  0  0  0  0  0
   -1.4958    2.2400   -0.3788 H   0  0  0  0  0  0  0  0  0  0  0  0
    0.2464    2.2352   -0.6194 H   0  0  0  0  0  0  0  0  0  0  0  0
   -0.8471    1.4105   -2.2673 C   0  0  0  0  0  0  0  0  0  0  0  0
   -1.7704    0.8536   -2.4501 H   0  0  0  0  0  0  0  0  0  0  0  0
   -0.9435    2.3783   -2.7699 H   0  0  0  0  0  0  0  0  0  0  0  0
    0.5617    0.4899   -3.0108 S   0  0  0  0  0  0  0  0  0  0  0  0
    1.9404    1.7010   -2.9188 C   0  0  0  0  0  0  0  0  0  0  0  0
    2.1996    1.9081   -1.8762 H   0  0  0  0  0  0  0  0  0  0  0  0
    2.8249    1.2993   -3.4218 H   0  0  0  0  0  0  0  0  0  0  0  0
    1.6567    2.6384   -3.4059 H   0  0  0  0  0  0  0  0  0  0  0  0
   -0.0358    0.6494    1.4921 C   0  0  0  0  0  0  0  0  0  0  0  0
    0.9736    1.3310    1.6305 O   0  0  0  0  0  0  0  0  0  0  0  0
   -0.7557    0.3081    2.6220 N   0  0  0  0  0  0  0  0  0  0  0  0
   -1.3748   -0.4900    2.4828 H   0  0  0  0  0  0  0  0  0  0  0  0
   -0.2535    0.5439    3.9701 C   0  0  0  0  0  0  0  0  0  0  0  0
   -0.0809    1.6126    4.1345 H   0  0  0  0  0  0  0  0  0  0  0  0
   -0.9815    0.1960    4.7091 H   0  0  0  0  0  0  0  0  0  0  0  0
    0.6876    0.0068    4.1284 H   0  0  0  0  0  0  0  0  0  0  0  0
  1  2  1  0  0  0  0
  2  3  1  0  0  0  0
  2  4  1  0  0  0  0
  2  5  1  0  0  0  0
  5  6  2  0  0  0  0
  5  7  1  0  0  0  0
  7  8  1  0  0  0  0
  7  9  1  0  0  0  0
  9 10  1  0  0  0  0
  9 11  1  0  0  0  0
  9 22  1  0  0  0  0
 11 12  1  0  0  0  0
 11 13  1  0  0  0  0
 11 14  1  0  0  0  0
 14 15  1  0  0  0  0
 14 16  1  0  0  0  0
 14 17  1  0  0  0  0
 17 18  1  0  0  0  0
 18 19  1  0  0  0  0
 18 20  1  0  0  0  0
 18 21  1  0  0  0  0
 22 23  2  0  0  0  0
 22 24  1  0  0  0  0
 24 25  1  0  0  0  0
 24 26  1  0  0  0  0
 26 27  1  0  0  0  0
 26 28  1  0  0  0  0
 26 29  1  0  0  0  0
M  END
$$$$

  -OEChem-01062216093D

 29 28  0     1  0  0  0  0  0999 V2000
   -3.6073   -3.1894    0.6782 H   0  0  0  0  0  0  0  0  0  0  0  0
   -3.5407   -2.1946    0.2286 C   0  0  0  0  0  0  0  0  0  0  0  0
   -4.2984   -1.5520    0.6834 H   0  0  0  0  0  0  0  0  0  0  0  0
   -3.7385   -2.2801   -0.8428 H   0  0  0  0  0  0  0  0  0  0  0  0
   -2.1597   -1.6100    0.4556 C   0  0  0  0  0  0  0  0  0  0  0  0
   -1.3354   -2.2343    1.1015 O   0  0  0  0  0  0  0  0  0  0  0  0
   -1.8545   -0.3638   -0.0529 N   0  0  0  0  0  0  0  0  0  0  0  0
   -2.5933    0.0982   -0.5731 H   0  0  0  0  0  0  0  0  0  0  0  0
   -0.5548    0.3368    0.0546 C   0  0  1  0  0  0  0  0  0  0  0  0
    0.2129   -0.3048   -0.3889 H   0  0  0  0  0  0  0  0  0  0  0  0
   -0.6698    1.6353   -0.7792 C   0  0  0  0  0  0  0  0  0  0  0  0
   -1.5173    2.2237   -0.4133 H   0  0  0  0  0  0  0  0  0  0  0  0
    0.2269    2.2462   -0.6388 H   0  0  0  0  0  0  0  0  0  0  0  0
   -0.8312    1.3870   -2.2875 C   0  0  0  0  0  0  0  0  0  0  0  0
   -1.7410    0.8096   -2.4753 H   0  0  0  0  0  0  0  0  0  0  0  0
   -0.9406    2.3475   -2.8012 H   0  0  0  0  0  0  0  0  0  0  0  0
    0.6040    0.4860   -3.0051 S   0  0  0  0  0  0  0  0  0  0  0  0
    1.9596    1.7226   -2.9080 C   0  0  0  0  0  0  0  0  0  0  0  0
    2.2048    1.9415   -1.8644 H   0  0  0  0  0  0  0  0  0  0  0  0
    2.8562    1.3336   -3.3994 H   0  0  0  0  0  0  0  0  0  0  0  0
    1.6635    2.6515   -3.4039 H   0  0  0  0  0  0  0  0  0  0  0  0
   -0.0418    0.6426    1.4944 C   0  0  0  0  0  0  0  0  0  0  0  0
    0.8038    1.5122    1.6724 O   0  0  0  0  0  0  0  0  0  0  0  0
   -0.5802    0.0308    2.6111 N   0  0  0  0  0  0  0  0  0  0  0  0
   -1.0525   -0.8531    2.4141 H   0  0  0  0  0  0  0  0  0  0  0  0
   -0.0567    0.2359    3.9560 C   0  0  0  0  0  0  0  0  0  0  0  0
   -0.1223    1.2923    4.2370 H   0  0  0  0  0  0  0  0  0  0  0  0
   -0.6355   -0.3480    4.6782 H   0  0  0  0  0  0  0  0  0  0  0  0
    0.9903   -0.0800    4.0124 H   0  0  0  0  0  0  0  0  0  0  0  0
  1  2  1  0  0  0  0
  2  3  1  0  0  0  0
  2  4  1  0  0  0  0
  2  5  1  0  0  0  0
  5  6  2  0  0  0  0
  5  7  1  0  0  0  0
  7  8  1  0  0  0  0
  7  9  1  0  0  0  0
  9 10  1  0  0  0  0
  9 11  1  0  0  0  0
  9 22  1  0  0  0  0
 11 12  1  0  0  0  0
 11 13  1  0  0  0  0
 11 14  1  0  0  0  0
 14 15  1  0  0  0  0
 14 16  1  0  0  0  0
 14 17  1  0  0  0  0
 17 18  1  0  0  0  0
 18 19  1  0  0  0  0
 18 20  1  0  0  0  0
 18 21  1  0  0  0  0
 22 23  2  0  0  0  0
 22 24  1  0  0  0  0
 24 25  1  0  0  0  0
 24 26  1  0  0  0  0
 26 27  1  0  0  0  0
 26 28  1  0  0  0  0
 26 29  1  0  0  0  0
M  END
$$$$

  -OEChem-01062216093D

 29 28  0     1  0  0  0  0  0999 V2000
   -3.6081   -3.1652    0.7447 H   0  0  0  0  0  0  0  0  0  0  0  0
   -3.5446   -2.1694    0.2966 C   0  0  0  0  0  0  0  0  0  0  0  0
   -4.2458   -1.5075    0.8106 H   0  0  0  0  0  0  0  0  0  0  0  0
   -3.8246   -2.2403   -0.7574 H   0  0  0  0  0  0  0  0  0  0  0  0
   -2.1331   -1.6286    0.4225 C   0  0  0  0  0  0  0  0  0  0  0  0
   -1.2682   -2.3082    0.9504 O   0  0  0  0  0  0  0  0  0  0  0  0
   -1.8379   -0.3735   -0.0707 N   0  0  0  0  0  0  0  0  0  0  0  0
   -2.6190    0.1426   -0.4626 H   0  0  0  0  0  0  0  0  0  0  0  0
   -0.5448    0.3377    0.0436 C   0  0  1  0  0  0  0  0  0  0  0  0
    0.2289   -0.2963   -0.4002 H   0  0  0  0  0  0  0  0  0  0  0  0
   -0.6656    1.6344   -0.7929 C   0  0  0  0  0  0  0  0  0  0  0  0
   -1.5193    2.2176   -0.4330 H   0  0  0  0  0  0  0  0  0  0  0  0
    0.2268    2.2511   -0.6497 H   0  0  0  0  0  0  0  0  0  0  0  0
   -0.8161    1.3802   -2.3014 C   0  0  0  0  0  0  0  0  0  0  0  0
   -1.7196    0.7936   -2.4912 H   0  0  0  0  0  0  0  0  0  0  0  0
   -0.9327    2.3384   -2.8176 H   0  0  0  0  0  0  0  0  0  0  0  0
    0.6290    0.4896   -3.0124 S   0  0  0  0  0  0  0  0  0  0  0  0
    1.9748    1.7364   -2.9139 C   0  0  0  0  0  0  0  0  0  0  0  0
    2.2086    1.9679   -1.8707 H   0  0  0  0  0  0  0  0  0  0  0  0
    2.8785    1.3488   -3.3933 H   0  0  0  0  0  0  0  0  0  0  0  0
    1.6768    2.6578   -3.4226 H   0  0  0  0  0  0  0  0  0  0  0  0
   -0.0415    0.6279    1.4913 C   0  0  0  0  0  0  0  0  0  0  0  0
    0.5976    1.6451    1.7353 O   0  0  0  0  0  0  0  0  0  0  0  0
   -0.3486   -0.2003    2.5541 N   0  0  0  0  0  0  0  0  0  0  0  0
   -0.6980   -1.1255    2.2942 H   0  0  0  0  0  0  0  0  0  0  0  0
    0.1785   -0.0129    3.8998 C   0  0  0  0  0  0  0  0  0  0  0  0
   -0.1186    0.9637    4.2960 H   0  0  0  0  0  0  0  0  0  0  0  0
   -0.2108   -0.7878    4.5670 H   0  0  0  0  0  0  0  0  0  0  0  0
    1.2717   -0.0744    3.8955 H   0  0  0  0  0  0  0  0  0  0  0  0
  1  2  1  0  0  0  0
  2  3  1  0  0  0  0
  2  4  1  0  0  0  0
  2  5  1  0  0  0  0
  5  6  2  0  0  0  0
  5  7  1  0  0  0  0
  7  8  1  0  0  0  0
  7  9  1  0  0  0  0
  9 10  1  0  0  0  0
  9 11  1  0  0  0  0
  9 22  1  0  0  0  0
 11 12  1  0  0  0  0
 11 13  1  0  0  0  0
 11 14  1  0  0  0  0
 14 15  1  0  0  0  0
 14 16  1  0  0  0  0
 14 17  1  0  0  0  0
 17 18  1  0  0  0  0
 18 19  1  0  0  0  0
 18 20  1  0  0  0  0
 18 21  1  0  0  0  0
 22 23  2  0  0  0  0
 22 24  1  0  0  0  0
 24 25  1  0  0  0  0
 24 26  1  0  0  0  0
 26 27  1  0  0  0  0
 26 28  1  0  0  0  0
 26 29  1  0  0  0  0
M  END
$$$$

  -OEChem-01062216093D

 29 28  0     1  0  0  0  0  0999 V2000
   -3.5763   -3.1482    0.8306 H   0  0  0  0  0  0  0  0  0  0  0  0
   -3.5251   -2.1545    0.3764 C   0  0  0  0  0  0  0  0  0  0  0  0
   -4.1823   -1.4807    0.9313 H   0  0  0  0  0  0  0  0  0  0  0  0
   -3.8713   -2.2226   -0.6579 H   0  0  0  0  0  0  0  0  0  0  0  0
   -2.1001   -1.6362    0.4115 C   0  0  0  0  0  0  0  0  0  0  0  0
   -1.2080   -2.3446    0.8497 O   0  0  0  0  0  0  0  0  0  0  0  0
   -1.8211   -0.3764   -0.0797 N   0  0  0  0  0  0  0  0  0  0  0  0
   -2.6242    0.1650   -0.3836 H   0  0  0  0  0  0  0  0  0  0  0  0
   -0.5287    0.3358    0.0257 C   0  0  1  0  0  0  0  0  0  0  0  0
    0.2430   -0.2949   -0.4266 H   0  0  0  0  0  0  0  0  0  0  0  0
   -0.6483    1.6374   -0.8024 C   0  0  0  0  0  0  0  0  0  0  0  0
   -1.4976    2.2223   -0.4350 H   0  0  0  0  0  0  0  0  0  0  0  0
    0.2481    2.2477   -0.6565 H   0  0  0  0  0  0  0  0  0  0  0  0
   -0.8076    1.3935   -2.3114 C   0  0  0  0  0  0  0  0  0  0  0  0
   -1.7145    0.8112   -2.4987 H   0  0  0  0  0  0  0  0  0  0  0  0
   -0.9239    2.3546   -2.8222 H   0  0  0  0  0  0  0  0  0  0  0  0
    0.6313    0.5014   -3.0334 S   0  0  0  0  0  0  0  0  0  0  0  0
    1.9824    1.7426   -2.9331 C   0  0  0  0  0  0  0  0  0  0  0  0
    2.2222    1.9657   -1.8894 H   0  0  0  0  0  0  0  0  0  0  0  0
    2.8825    1.3550   -3.4194 H   0  0  0  0  0  0  0  0  0  0  0  0
    1.6853    2.6689   -3.4332 H   0  0  0  0  0  0  0  0  0  0  0  0
   -0.0251    0.6095    1.4755 C   0  0  0  0  0  0  0  0  0  0  0  0
    0.3821    1.7194    1.7996 O   0  0  0  0  0  0  0  0  0  0  0  0
   -0.0644   -0.3647    2.4536 N   0  0  0  0  0  0  0  0  0  0  0  0
   -0.3341   -1.3016    2.1425 H   0  0  0  0  0  0  0  0  0  0  0  0
    0.4340   -0.1855    3.8109 C   0  0  0  0  0  0  0  0  0  0  0  0
   -0.1004    0.6285    4.3115 H   0  0  0  0  0  0  0  0  0  0  0  0
    0.2861   -1.1026    4.3893 H   0  0  0  0  0  0  0  0  0  0  0  0
    1.5034    0.0488    3.7991 H   0  0  0  0  0  0  0  0  0  0  0  0
  1  2  1  0  0  0  0
  2  3  1  0  0  0  0
  2  4  1  0  0  0  0
  2  5  1  0  0  0  0
  5  6  2  0  0  0  0
  5  7  1  0  0  0  0
  7  8  1  0  0  0  0
  7  9  1  0  0  0  0
  9 10  1  0  0  0  0
  9 11  1  0  0  0  0
  9 22  1  0  0  0  0
 11 12  1  0  0  0  0
 11 13  1  0  0  0  0
 11 14  1  0  0  0  0
 14 15  1  0  0  0  0
 14 16  1  0  0  0  0
 14 17  1  0  0  0  0
 17 18  1  0  0  0  0
 18 19  1  0  0  0  0
 18 20  1  0  0  0  0
 18 21  1  0  0  0  0
 22 23  2  0  0  0  0
 22 24  1  0  0  0  0
 24 25  1  0  0  0  0
 24 26  1  0  0  0  0
 26 27  1  0  0  0  0
 26 28  1  0  0  0  0
 26 29  1  0  0  0  0
M  END
$$$$

  -OEChem-01062216093D

 29 28  0     1  0  0  0  0  0999 V2000
   -3.5196   -3.1240    0.9337 H   0  0  0  0  0  0  0  0  0  0  0  0
   -3.4788   -2.1461    0.4455 C   0  0  0  0  0  0  0  0  0  0  0  0
   -4.1221   -1.4531    0.9932 H   0  0  0  0  0  0  0  0  0  0  0  0
   -3.8502   -2.2477   -0.5773 H   0  0  0  0  0  0  0  0  0  0  0  0
   -2.0529   -1.6295    0.4286 C   0  0  0  0  0  0  0  0  0  0  0  0
   -1.1441   -2.3425    0.8239 O   0  0  0  0  0  0  0  0  0  0  0  0
   -1.7911   -0.3700   -0.0730 N   0  0  0  0  0  0  0  0  0  0  0  0
   -2.6046    0.1818   -0.3262 H   0  0  0  0  0  0  0  0  0  0  0  0
   -0.4959    0.3363    0.0088 C   0  0  1  0  0  0  0  0  0  0  0  0
    0.2677   -0.2929   -0.4590 H   0  0  0  0  0  0  0  0  0  0  0  0
   -0.6179    1.6452   -0.8042 C   0  0  0  0  0  0  0  0  0  0  0  0
   -1.4566    2.2336   -0.4179 H   0  0  0  0  0  0  0  0  0  0  0  0
    0.2868    2.2446   -0.6619 H   0  0  0  0  0  0  0  0  0  0  0  0
   -0.8067    1.4161   -2.3117 C   0  0  0  0  0  0  0  0  0  0  0  0
   -1.7226    0.8437   -2.4866 H   0  0  0  0  0  0  0  0  0  0  0  0
   -0.9232    2.3827   -2.8115 H   0  0  0  0  0  0  0  0  0  0  0  0
    0.6101    0.5172   -3.0686 S   0  0  0  0  0  0  0  0  0  0  0  0
    1.9725    1.7463   -2.9815 C   0  0  0  0  0  0  0  0  0  0  0  0
    2.2374    1.9521   -1.9405 H   0  0  0  0  0  0  0  0  0  0  0  0
    2.8580    1.3589   -3.4941 H   0  0  0  0  0  0  0  0  0  0  0  0
    1.6715    2.6820   -3.4615 H   0  0  0  0  0  0  0  0  0  0  0  0
    0.0152    0.5977    1.4550 C   0  0  0  0  0  0  0  0  0  0  0  0
    0.1873    1.7398    1.8663 O   0  0  0  0  0  0  0  0  0  0  0  0
    0.2600   -0.4469    2.3239 N   0  0  0  0  0  0  0  0  0  0  0  0
    0.0210   -1.3820    1.9824 H   0  0  0  0  0  0  0  0  0  0  0  0
    0.6796   -0.2815    3.7090 C   0  0  0  0  0  0  0  0  0  0  0  0
   -0.0654    0.2923    4.2700 H   0  0  0  0  0  0  0  0  0  0  0  0
    0.7955   -1.2594    4.1863 H   0  0  0  0  0  0  0  0  0  0  0  0
    1.6397    0.2428    3.7578 H   0  0  0  0  0  0  0  0  0  0  0  0
  1  2  1  0  0  0  0
  2  3  1  0  0  0  0
  2  4  1  0  0  0  0
  2  5  1  0  0  0  0
  5  6  2  0  0  0  0
  5  7  1  0  0  0  0
  7  8  1  0  0  0  0
  7  9  1  0  0  0  0
  9 10  1  0  0  0  0
  9 11  1  0  0  0  0
  9 22  1  0  0  0  0
 11 12  1  0  0  0  0
 11 13  1  0  0  0  0
 11 14  1  0  0  0  0
 14 15  1  0  0  0  0
 14 16  1  0  0  0  0
 14 17  1  0  0  0  0
 17 18  1  0  0  0  0
 18 19  1  0  0  0  0
 18 20  1  0  0  0  0
 18 21  1  0  0  0  0
 22 23  2  0  0  0  0
 22 24  1  0  0  0  0
 24 25  1  0  0  0  0
 24 26  1  0  0  0  0
 26 27  1  0  0  0  0
 26 28  1  0  0  0  0
 26 29  1  0  0  0  0
M  END
$$$$

  -OEChem-01062216093D

 29 28  0     1  0  0  0  0  0999 V2000
   -3.4243   -3.1369    0.9907 H   0  0  0  0  0  0  0  0  0  0  0  0
   -3.4188   -2.1433    0.5337 C   0  0  0  0  0  0  0  0  0  0  0  0
   -4.0298   -1.4731    1.1432 H   0  0  0  0  0  0  0  0  0  0  0  0
   -3.8526   -2.2135   -0.4667 H   0  0  0  0  0  0  0  0  0  0  0  0
   -1.9992   -1.6163    0.4461 C   0  0  0  0  0  0  0  0  0  0  0  0
   -1.0668   -2.3107    0.8212 O   0  0  0  0  0  0  0  0  0  0  0  0
   -1.7668   -0.3606   -0.0794 N   0  0  0  0  0  0  0  0  0  0  0  0
   -2.5907    0.1945   -0.2882 H   0  0  0  0  0  0  0  0  0  0  0  0
   -0.4714    0.3428   -0.0154 C   0  0  1  0  0  0  0  0  0  0  0  0
    0.2920   -0.2841   -0.4870 H   0  0  0  0  0  0  0  0  0  0  0  0
   -0.5924    1.6574   -0.8175 C   0  0  0  0  0  0  0  0  0  0  0  0
   -1.4251    2.2472   -0.4203 H   0  0  0  0  0  0  0  0  0  0  0  0
    0.3170    2.2494   -0.6742 H   0  0  0  0  0  0  0  0  0  0  0  0
   -0.8004    1.4402   -2.3243 C   0  0  0  0  0  0  0  0  0  0  0  0
   -1.7226    0.8757   -2.4919 H   0  0  0  0  0  0  0  0  0  0  0  0
   -0.9157    2.4110   -2.8166 H   0  0  0  0  0  0  0  0  0  0  0  0
    0.6011    0.5354   -3.1028 S   0  0  0  0  0  0  0  0  0  0  0  0
    1.9758    1.7518   -3.0244 C   0  0  0  0  0  0  0  0  0  0  0  0
    2.2413    1.9656   -1.9852 H   0  0  0  0  0  0  0  0  0  0  0  0
    2.8584    1.3511   -3.5316 H   0  0  0  0  0  0  0  0  0  0  0  0
    1.6849    2.6856   -3.5144 H   0  0  0  0  0  0  0  0  0  0  0  0
    0.0249    0.6016    1.4325 C   0  0  0  0  0  0  0  0  0  0  0  0
   -0.0311    1.7215    1.9288 O   0  0  0  0  0  0  0  0  0  0  0  0
    0.5444   -0.4337    2.1840 N   0  0  0  0  0  0  0  0  0  0  0  0
    0.3604   -1.3709    1.8150 H   0  0  0  0  0  0  0  0  0  0  0  0
    0.9156   -0.2982    3.5861 C   0  0  0  0  0  0  0  0  0  0  0  0
    0.0394   -0.0441    4.1916 H   0  0  0  0  0  0  0  0  0  0  0  0
    1.3349   -1.2384    3.9571 H   0  0  0  0  0  0  0  0  0  0  0  0
    1.6696    0.4864    3.7090 H   0  0  0  0  0  0  0  0  0  0  0  0
  1  2  1  0  0  0  0
  2  3  1  0  0  0  0
  2  4  1  0  0  0  0
  2  5  1  0  0  0  0
  5  6  2  0  0  0  0
  5  7  1  0  0  0  0
  7  8  1  0  0  0  0
  7  9  1  0  0  0  0
  9 10  1  0  0  0  0
  9 11  1  0  0  0  0
  9 22  1  0  0  0  0
 11 12  1  0  0  0  0
 11 13  1  0  0  0  0
 11 14  1  0  0  0  0
 14 15  1  0  0  0  0
 14 16  1  0  0  0  0
 14 17  1  0  0  0  0
 17 18  1  0  0  0  0
 18 19  1  0  0  0  0
 18 20  1  0  0  0  0
 18 21  1  0  0  0  0
 22 23  2  0  0  0  0
 22 24  1  0  0  0  0
 24 25  1  0  0  0  0
 24 26  1  0  0  0  0
 26 27  1  0  0  0  0
 26 28  1  0  0  0  0
 26 29  1  0  0  0  0
M  END
$$$$

  -OEChem-01062216093D

 29 28  0     1  0  0  0  0  0999 V2000
   -3.3443   -3.1334    1.0735 H   0  0  0  0  0  0  0  0  0  0  0  0
   -3.3687   -2.1502    0.5952 C   0  0  0  0  0  0  0  0  0  0  0  0
   -3.9715   -1.4760    1.2086 H   0  0  0  0  0  0  0  0  0  0  0  0
   -3.8318   -2.2490   -0.3896 H   0  0  0  0  0  0  0  0  0  0  0  0
   -1.9610   -1.6036    0.4531 C   0  0  0  0  0  0  0  0  0  0  0  0
   -1.0045   -2.2717    0.8176 O   0  0  0  0  0  0  0  0  0  0  0  0
   -1.7610   -0.3524   -0.0961 N   0  0  0  0  0  0  0  0  0  0  0  0
   -2.5937    0.2060   -0.2557 H   0  0  0  0  0  0  0  0  0  0  0  0
   -0.4668    0.3487   -0.0395 C   0  0  1  0  0  0  0  0  0  0  0  0
    0.2979   -0.2767   -0.5107 H   0  0  0  0  0  0  0  0  0  0  0  0
   -0.5795    1.6691   -0.8305 C   0  0  0  0  0  0  0  0  0  0  0  0
   -1.4093    2.2605   -0.4291 H   0  0  0  0  0  0  0  0  0  0  0  0
    0.3331    2.2541   -0.6806 H   0  0  0  0  0  0  0  0  0  0  0  0
   -0.7941    1.4643   -2.3375 C   0  0  0  0  0  0  0  0  0  0  0  0
   -1.7213    0.9078   -2.5052 H   0  0  0  0  0  0  0  0  0  0  0  0
   -0.9031    2.4394   -2.8229 H   0  0  0  0  0  0  0  0  0  0  0  0
    0.5981    0.5536   -3.1254 S   0  0  0  0  0  0  0  0  0  0  0  0
    1.9825    1.7582   -3.0424 C   0  0  0  0  0  0  0  0  0  0  0  0
    2.2565    1.9572   -2.0024 H   0  0  0  0  0  0  0  0  0  0  0  0
    2.8584    1.3564   -3.5604 H   0  0  0  0  0  0  0  0  0  0  0  0
    1.6955    2.7001   -3.5192 H   0  0  0  0  0  0  0  0  0  0  0  0
    0.0047    0.6068    1.4130 C   0  0  0  0  0  0  0  0  0  0  0  0
   -0.2725    1.6545    1.9866 O   0  0  0  0  0  0  0  0  0  0  0  0
    0.7830   -0.3350    2.0566 N   0  0  0  0  0  0  0  0  0  0  0  0
    0.7265   -1.2730    1.6544 H   0  0  0  0  0  0  0  0  0  0  0  0
    1.1659   -0.2130    3.4571 C   0  0  0  0  0  0  0  0  0  0  0  0
    0.2783   -0.2105    4.0982 H   0  0  0  0  0  0  0  0  0  0  0  0
    1.8034   -1.0534    3.7477 H   0  0  0  0  0  0  0  0  0  0  0  0
    1.7235    0.7148    3.6231 H   0  0  0  0  0  0  0  0  0  0  0  0
  1  2  1  0  0  0  0
  2  3  1  0  0  0  0
  2  4  1  0  0  0  0
  2  5  1  0  0  0  0
  5  6  2  0  0  0  0
  5  7  1  0  0  0  0
  7  8  1  0  0  0  0
  7  9  1  0  0  0  0
  9 10  1  0  0  0  0
  9 11  1  0  0  0  0
  9 22  1  0  0  0  0
 11 12  1  0  0  0  0
 11 13  1  0  0  0  0
 11 14  1  0  0  0  0
 14 15  1  0  0  0  0
 14 16  1  0  0  0  0
 14 17  1  0  0  0  0
 17 18  1  0  0  0  0
 18 19  1  0  0  0  0
 18 20  1  0  0  0  0
 18 21  1  0  0  0  0
 22 23  2  0  0  0  0
 22 24  1  0  0  0  0
 24 25  1  0  0  0  0
 24 26  1  0  0  0  0
 26 27  1  0  0  0  0
 26 28  1  0  0  0  0
 26 29  1  0  0  0  0
M  END
$$$$

  -OEChem-01062216093D

 29 28  0     1  0  0  0  0  0999 V2000
   -3.3008   -3.1288    1.1108 H   0  0  0  0  0  0  0  0  0  0  0  0
   -3.3416   -2.1474    0.6301 C   0  0  0  0  0  0  0  0  0  0  0  0
   -3.9317   -1.4737    1.2562 H   0  0  0  0  0  0  0  0  0  0  0  0
   -3.8283   -2.2518   -0.3426 H   0  0  0  0  0  0  0  0  0  0  0  0
   -1.9403   -1.5956    0.4510 C   0  0  0  0  0  0  0  0  0  0  0  0
   -0.9712   -2.2539    0.8003 O   0  0  0  0  0  0  0  0  0  0  0  0
   -1.7583   -0.3493   -0.1144 N   0  0  0  0  0  0  0  0  0  0  0  0
   -2.5938    0.2173   -0.2223 H   0  0  0  0  0  0  0  0  0  0  0  0
   -0.4639    0.3482   -0.0594 C   0  0  1  0  0  0  0  0  0  0  0  0
    0.3009   -0.2773   -0.5307 H   0  0  0  0  0  0  0  0  0  0  0  0
   -0.5714    1.6744   -0.8390 C   0  0  0  0  0  0  0  0  0  0  0  0
   -1.3981    2.2662   -0.4323 H   0  0  0  0  0  0  0  0  0  0  0  0
    0.3439    2.2542   -0.6858 H   0  0  0  0  0  0  0  0  0  0  0  0
   -0.7913    1.4783   -2.3463 C   0  0  0  0  0  0  0  0  0  0  0  0
   -1.7215    0.9266   -2.5133 H   0  0  0  0  0  0  0  0  0  0  0  0
   -0.8980    2.4560   -2.8264 H   0  0  0  0  0  0  0  0  0  0  0  0
    0.5935    0.5648   -3.1441 S   0  0  0  0  0  0  0  0  0  0  0  0
    1.9832    1.7631   -3.0591 C   0  0  0  0  0  0  0  0  0  0  0  0
    2.2577    1.9601   -2.0190 H   0  0  0  0  0  0  0  0  0  0  0  0
    2.8573    1.3581   -3.5775 H   0  0  0  0  0  0  0  0  0  0  0  0
    1.7003    2.7067   -3.5350 H   0  0  0  0  0  0  0  0  0  0  0  0
   -0.0097    0.6084    1.3960 C   0  0  0  0  0  0  0  0  0  0  0  0
   -0.5012    1.5268    2.0431 O   0  0  0  0  0  0  0  0  0  0  0  0
    0.9969   -0.1581    1.9505 N   0  0  0  0  0  0  0  0  0  0  0  0
    1.1543   -1.0530    1.4887 H   0  0  0  0  0  0  0  0  0  0  0  0
    1.3905   -0.0350    3.3481 C   0  0  0  0  0  0  0  0  0  0  0  0
    0.5513   -0.2845    4.0055 H   0  0  0  0  0  0  0  0  0  0  0  0
    2.2191   -0.7149    3.5682 H   0  0  0  0  0  0  0  0  0  0  0  0
    1.7176    0.9870    3.5667 H   0  0  0  0  0  0  0  0  0  0  0  0
  1  2  1  0  0  0  0
  2  3  1  0  0  0  0
  2  4  1  0  0  0  0
  2  5  1  0  0  0  0
  5  6  2  0  0  0  0
  5  7  1  0  0  0  0
  7  8  1  0  0  0  0
  7  9  1  0  0  0  0
  9 10  1  0  0  0  0
  9 11  1  0  0  0  0
  9 22  1  0  0  0  0
 11 12  1  0  0  0  0
 11 13  1  0  0  0  0
 11 14  1  0  0  0  0
 14 15  1  0  0  0  0
 14 16  1  0  0  0  0
 14 17  1  0  0  0  0
 17 18  1  0  0  0  0
 18 19  1  0  0  0  0
 18 20  1  0  0  0  0
 18 21  1  0  0  0  0
 22 23  2  0  0  0  0
 22 24  1  0  0  0  0
 24 25  1  0  0  0  0
 24 26  1  0  0  0  0
 26 27  1  0  0  0  0
 26 28  1  0  0  0  0
 26 29  1  0  0  0  0
M  END
$$$$

  -OEChem-01062216093D

 29 28  0     1  0  0  0  0  0999 V2000
   -3.2812   -3.1158    1.1548 H   0  0  0  0  0  0  0  0  0  0  0  0
   -3.3308   -2.1372    0.6691 C   0  0  0  0  0  0  0  0  0  0  0  0
   -3.8902   -1.4536    1.3125 H   0  0  0  0  0  0  0  0  0  0  0  0
   -3.8545   -2.2426   -0.2840 H   0  0  0  0  0  0  0  0  0  0  0  0
   -1.9324   -1.5994    0.4347 C   0  0  0  0  0  0  0  0  0  0  0  0
   -0.9573   -2.2632    0.7541 O   0  0  0  0  0  0  0  0  0  0  0  0
   -1.7611   -0.3558   -0.1401 N   0  0  0  0  0  0  0  0  0  0  0  0
   -2.5971    0.2174   -0.1980 H   0  0  0  0  0  0  0  0  0  0  0  0
   -0.4682    0.3435   -0.0785 C   0  0  1  0  0  0  0  0  0  0  0  0
    0.2993   -0.2821   -0.5449 H   0  0  0  0  0  0  0  0  0  0  0  0
   -0.5733    1.6723   -0.8518 C   0  0  0  0  0  0  0  0  0  0  0  0
   -1.4017    2.2616   -0.4446 H   0  0  0  0  0  0  0  0  0  0  0  0
    0.3412    2.2517   -0.6933 H   0  0  0  0  0  0  0  0  0  0  0  0
   -0.7872    1.4827   -2.3607 C   0  0  0  0  0  0  0  0  0  0  0  0
   -1.7153    0.9289   -2.5333 H   0  0  0  0  0  0  0  0  0  0  0  0
   -0.8946    2.4616   -2.8384 H   0  0  0  0  0  0  0  0  0  0  0  0
    0.6030    0.5736   -3.1543 S   0  0  0  0  0  0  0  0  0  0  0  0
    1.9924    1.7717   -3.0584 C   0  0  0  0  0  0  0  0  0  0  0  0
    2.2664    1.9609   -2.0168 H   0  0  0  0  0  0  0  0  0  0  0  0
    2.8668    1.3708   -3.5794 H   0  0  0  0  0  0  0  0  0  0  0  0
    1.7099    2.7189   -3.5274 H   0  0  0  0  0  0  0  0  0  0  0  0
   -0.0264    0.6115    1.3779 C   0  0  0  0  0  0  0  0  0  0  0  0
   -0.6955    1.3496    2.0931 O   0  0  0  0  0  0  0  0  0  0  0  0
    1.1599    0.0856    1.8532 N   0  0  0  0  0  0  0  0  0  0  0  0
    1.5453   -0.6843    1.3113 H   0  0  0  0  0  0  0  0  0  0  0  0
    1.5668    0.2126    3.2470 C   0  0  0  0  0  0  0  0  0  0  0  0
    0.8365   -0.2709    3.9044 H   0  0  0  0  0  0  0  0  0  0  0  0
    2.5407   -0.2624    3.4003 H   0  0  0  0  0  0  0  0  0  0  0  0
    1.6505    1.2676    3.5285 H   0  0  0  0  0  0  0  0  0  0  0  0
  1  2  1  0  0  0  0
  2  3  1  0  0  0  0
  2  4  1  0  0  0  0
  2  5  1  0  0  0  0
  5  6  2  0  0  0  0
  5  7  1  0  0  0  0
  7  8  1  0  0  0  0
  7  9  1  0  0  0  0
  9 10  1  0  0  0  0
  9 11  1  0  0  0  0
  9 22  1  0  0  0  0
 11 12  1  0  0  0  0
 11 13  1  0  0  0  0
 11 14  1  0  0  0  0
 14 15  1  0  0  0  0
 14 16  1  0  0  0  0
 14 17  1  0  0  0  0
 17 18  1  0  0  0  0
 18 19  1  0  0  0  0
 18 20  1  0  0  0  0
 18 21  1  0  0  0  0
 22 23  2  0  0  0  0
 22 24  1  0  0  0  0
 24 25  1  0  0  0  0
 24 26  1  0  0  0  0
 26 27  1  0  0  0  0
 26 28  1  0  0  0  0
 26 29  1  0  0  0  0
M  END
$$$$

  -OEChem-01062216093D

 29 28  0     1  0  0  0  0  0999 V2000
   -3.2846   -3.1136    1.1664 H   0  0  0  0  0  0  0  0  0  0  0  0
   -3.3365   -2.1345    0.6820 C   0  0  0  0  0  0  0  0  0  0  0  0
   -3.8773   -1.4467    1.3366 H   0  0  0  0  0  0  0  0  0  0  0  0
   -3.8798   -2.2353   -0.2605 H   0  0  0  0  0  0  0  0  0  0  0  0
   -1.9390   -1.6069    0.4202 C   0  0  0  0  0  0  0  0  0  0  0  0
   -0.9634   -2.2807    0.7154 O   0  0  0  0  0  0  0  0  0  0  0  0
   -1.7703   -0.3651   -0.1591 N   0  0  0  0  0  0  0  0  0  0  0  0
   -2.6045    0.2126   -0.1845 H   0  0  0  0  0  0  0  0  0  0  0  0
   -0.4774    0.3343   -0.0872 C   0  0  1  0  0  0  0  0  0  0  0  0
    0.2923   -0.2931   -0.5475 H   0  0  0  0  0  0  0  0  0  0  0  0
   -0.5778    1.6662   -0.8540 C   0  0  0  0  0  0  0  0  0  0  0  0
   -1.4084    2.2527   -0.4475 H   0  0  0  0  0  0  0  0  0  0  0  0
    0.3362    2.2447   -0.6888 H   0  0  0  0  0  0  0  0  0  0  0  0
   -0.7835    1.4833   -2.3648 C   0  0  0  0  0  0  0  0  0  0  0  0
   -1.7110    0.9308   -2.5449 H   0  0  0  0  0  0  0  0  0  0  0  0
   -0.8883    2.4643   -2.8388 H   0  0  0  0  0  0  0  0  0  0  0  0
    0.6114    0.5774   -3.1542 S   0  0  0  0  0  0  0  0  0  0  0  0
    2.0009    1.7740   -3.0459 C   0  0  0  0  0  0  0  0  0  0  0  0
    2.2699    1.9575   -2.0020 H   0  0  0  0  0  0  0  0  0  0  0  0
    2.8777    1.3759   -3.5651 H   0  0  0  0  0  0  0  0  0  0  0  0
    1.7208    2.7234   -3.5116 H   0  0  0  0  0  0  0  0  0  0  0  0
   -0.0430    0.6098    1.3698 C   0  0  0  0  0  0  0  0  0  0  0  0
   -0.8256    1.1465    2.1470 O   0  0  0  0  0  0  0  0  0  0  0  0
    1.2569    0.3630    1.7702 N   0  0  0  0  0  0  0  0  0  0  0  0
    1.8118   -0.2259    1.1551 H   0  0  0  0  0  0  0  0  0  0  0  0
    1.6962    0.5285    3.1500 C   0  0  0  0  0  0  0  0  0  0  0  0
    1.1272   -0.1306    3.8141 H   0  0  0  0  0  0  0  0  0  0  0  0
    2.7580    0.2805    3.2408 H   0  0  0  0  0  0  0  0  0  0  0  0
    1.5558    1.5643    3.4765 H   0  0  0  0  0  0  0  0  0  0  0  0
  1  2  1  0  0  0  0
  2  3  1  0  0  0  0
  2  4  1  0  0  0  0
  2  5  1  0  0  0  0
  5  6  2  0  0  0  0
  5  7  1  0  0  0  0
  7  8  1  0  0  0  0
  7  9  1  0  0  0  0
  9 10  1  0  0  0  0
  9 11  1  0  0  0  0
  9 22  1  0  0  0  0
 11 12  1  0  0  0  0
 11 13  1  0  0  0  0
 11 14  1  0  0  0  0
 14 15  1  0  0  0  0
 14 16  1  0  0  0  0
 14 17  1  0  0  0  0
 17 18  1  0  0  0  0
 18 19  1  0  0  0  0
 18 20  1  0  0  0  0
 18 21  1  0  0  0  0
 22 23  2  0  0  0  0
 22 24  1  0  0  0  0
 24 25  1  0  0  0  0
 24 26  1  0  0  0  0
 26 27  1  0  0  0  0
 26 28  1  0  0  0  0
 26 29  1  0  0  0  0
M  END
$$$$

  -OEChem-01062216093D

 29 28  0     1  0  0  0  0  0999 V2000
   -3.2878   -3.1115    1.1766 H   0  0  0  0  0  0  0  0  0  0  0  0
   -3.3420   -2.1298    0.6977 C   0  0  0  0  0  0  0  0  0  0  0  0
   -3.8543   -1.4387    1.3715 H   0  0  0  0  0  0  0  0  0  0  0  0
   -3.9142   -2.2200   -0.2285 H   0  0  0  0  0  0  0  0  0  0  0  0
   -1.9464   -1.6176    0.3974 C   0  0  0  0  0  0  0  0  0  0  0  0
   -0.9712   -2.3057    0.6593 O   0  0  0  0  0  0  0  0  0  0  0  0
   -1.7797   -0.3745   -0.1808 N   0  0  0  0  0  0  0  0  0  0  0  0
   -2.6119    0.2064   -0.1773 H   0  0  0  0  0  0  0  0  0  0  0  0
   -0.4861    0.3233   -0.0927 C   0  0  1  0  0  0  0  0  0  0  0  0
    0.2872   -0.3038   -0.5476 H   0  0  0  0  0  0  0  0  0  0  0  0
   -0.5844    1.6584   -0.8551 C   0  0  0  0  0  0  0  0  0  0  0  0
   -1.4198    2.2407   -0.4523 H   0  0  0  0  0  0  0  0  0  0  0  0
    0.3258    2.2402   -0.6823 H   0  0  0  0  0  0  0  0  0  0  0  0
   -0.7783    1.4809   -2.3681 C   0  0  0  0  0  0  0  0  0  0  0  0
   -1.7026    0.9259   -2.5570 H   0  0  0  0  0  0  0  0  0  0  0  0
   -0.8825    2.4631   -2.8398 H   0  0  0  0  0  0  0  0  0  0  0  0
    0.6258    0.5819   -3.1495 S   0  0  0  0  0  0  0  0  0  0  0  0
    2.0129    1.7804   -3.0271 C   0  0  0  0  0  0  0  0  0  0  0  0
    2.2757    1.9592   -1.9808 H   0  0  0  0  0  0  0  0  0  0  0  0
    2.8934    1.3862   -3.5434 H   0  0  0  0  0  0  0  0  0  0  0  0
    1.7336    2.7316   -3.4896 H   0  0  0  0  0  0  0  0  0  0  0  0
   -0.0595    0.5997    1.3674 C   0  0  0  0  0  0  0  0  0  0  0  0
   -0.8989    0.9309    2.1986 O   0  0  0  0  0  0  0  0  0  0  0  0
    1.2813    0.6501    1.7016 N   0  0  0  0  0  0  0  0  0  0  0  0
    1.9329    0.2591    1.0272 H   0  0  0  0  0  0  0  0  0  0  0  0
    1.7435    0.8759    3.0657 C   0  0  0  0  0  0  0  0  0  0  0  0
    1.3702    0.0904    3.7314 H   0  0  0  0  0  0  0  0  0  0  0  0
    2.8371    0.8695    3.1002 H   0  0  0  0  0  0  0  0  0  0  0  0
    1.3931    1.8458    3.4345 H   0  0  0  0  0  0  0  0  0  0  0  0
  1  2  1  0  0  0  0
  2  3  1  0  0  0  0
  2  4  1  0  0  0  0
  2  5  1  0  0  0  0
  5  6  2  0  0  0  0
  5  7  1  0  0  0  0
  7  8  1  0  0  0  0
  7  9  1  0  0  0  0
  9 10  1  0  0  0  0
  9 11  1  0  0  0  0
  9 22  1  0  0  0  0
 11 12  1  0  0  0  0
 11 13  1  0  0  0  0
 11 14  1  0  0  0  0
 14 15  1  0  0  0  0
 14 16  1  0  0  0  0
 14 17  1  0  0  0  0
 17 18  1  0  0  0  0
 18 19  1  0  0  0  0
 18 20  1  0  0  0  0
 18 21  1  0  0  0  0
 22 23  2  0  0  0  0
 22 24  1  0  0  0  0
 24 25  1  0  0  0  0
 24 26  1  0  0  0  0
 26 27  1  0  0  0  0
 26 28  1  0  0  0  0
 26 29  1  0  0  0  0
M  END
$$$$

  -OEChem-01062216093D

 29 28  0     1  0  0  0  0  0999 V2000
   -3.2940   -3.1165    1.1627 H   0  0  0  0  0  0  0  0  0  0  0  0
   -3.3487   -2.1265    0.7013 C   0  0  0  0  0  0  0  0  0  0  0  0
   -3.8385   -1.4414    1.3976 H   0  0  0  0  0  0  0  0  0  0  0  0
   -3.9417   -2.1950   -0.2136 H   0  0  0  0  0  0  0  0  0  0  0  0
   -1.9543   -1.6246    0.3796 C   0  0  0  0  0  0  0  0  0  0  0  0
   -0.9823   -2.3290    0.6070 O   0  0  0  0  0  0  0  0  0  0  0  0
   -1.7861   -0.3785   -0.1928 N   0  0  0  0  0  0  0  0  0  0  0  0
   -2.6162    0.2046   -0.1697 H   0  0  0  0  0  0  0  0  0  0  0  0
   -0.4906    0.3154   -0.0899 C   0  0  1  0  0  0  0  0  0  0  0  0
    0.2856   -0.3105   -0.5418 H   0  0  0  0  0  0  0  0  0  0  0  0
   -0.5913    1.6517   -0.8521 C   0  0  0  0  0  0  0  0  0  0  0  0
   -1.4320    2.2287   -0.4528 H   0  0  0  0  0  0  0  0  0  0  0  0
    0.3144    2.2398   -0.6765 H   0  0  0  0  0  0  0  0  0  0  0  0
   -0.7765    1.4750   -2.3666 C   0  0  0  0  0  0  0  0  0  0  0  0
   -1.6973    0.9161   -2.5616 H   0  0  0  0  0  0  0  0  0  0  0  0
   -0.8830    2.4574   -2.8373 H   0  0  0  0  0  0  0  0  0  0  0  0
    0.6351    0.5835   -3.1427 S   0  0  0  0  0  0  0  0  0  0  0  0
    2.0197    1.7836   -3.0152 C   0  0  0  0  0  0  0  0  0  0  0  0
    2.2764    1.9647   -1.9680 H   0  0  0  0  0  0  0  0  0  0  0  0
    2.9030    1.3885   -3.5258 H   0  0  0  0  0  0  0  0  0  0  0  0
    1.7432    2.7336   -3.4817 H   0  0  0  0  0  0  0  0  0  0  0  0
   -0.0644    0.5895    1.3730 C   0  0  0  0  0  0  0  0  0  0  0  0
   -0.9120    0.7105    2.2518 O   0  0  0  0  0  0  0  0  0  0  0  0
    1.2435    0.9404    1.6571 N   0  0  0  0  0  0  0  0  0  0  0  0
    1.9345    0.7534    0.9366 H   0  0  0  0  0  0  0  0  0  0  0  0
    1.7061    1.2304    3.0091 C   0  0  0  0  0  0  0  0  0  0  0  0
    1.5486    0.3647    3.6613 H   0  0  0  0  0  0  0  0  0  0  0  0
    2.7740    1.4688    3.0012 H   0  0  0  0  0  0  0  0  0  0  0  0
    1.1652    2.0872    3.4246 H   0  0  0  0  0  0  0  0  0  0  0  0
  1  2  1  0  0  0  0
  2  3  1  0  0  0  0
  2  4  1  0  0  0  0
  2  5  1  0  0  0  0
  5  6  2  0  0  0  0
  5  7  1  0  0  0  0
  7  8  1  0  0  0  0
  7  9  1  0  0  0  0
  9 10  1  0  0  0  0
  9 11  1  0  0  0  0
  9 22  1  0  0  0  0
 11 12  1  0  0  0  0
 11 13  1  0  0  0  0
 11 14  1  0  0  0  0
 14 15  1  0  0  0  0
 14 16  1  0  0  0  0
 14 17  1  0  0  0  0
 17 18  1  0  0  0  0
 18 19  1  0  0  0  0
 18 20  1  0  0  0  0
 18 21  1  0  0  0  0
 22 23  2  0  0  0  0
 22 24  1  0  0  0  0
 24 25  1  0  0  0  0
 24 26  1  0  0  0  0
 26 27  1  0  0  0  0
 26 28  1  0  0  0  0
 26 29  1  0  0  0  0
M  END
$$$$

  -OEChem-01062216093D

 29 28  0     1  0  0  0  0  0999 V2000
   -3.3389   -3.1496    1.0703 H   0  0  0  0  0  0  0  0  0  0  0  0
   -3.3715   -2.1235    0.6935 C   0  0  0  0  0  0  0  0  0  0  0  0
   -3.7743   -1.4755    1.4758 H   0  0  0  0  0  0  0  0  0  0  0  0
   -4.0282   -2.0878   -0.1788 H   0  0  0  0  0  0  0  0  0  0  0  0
   -1.9767   -1.6650    0.3138 C   0  0  0  0  0  0  0  0  0  0  0  0
   -1.0349   -2.4393    0.3897 O   0  0  0  0  0  0  0  0  0  0  0  0
   -1.7838   -0.4048   -0.2207 N   0  0  0  0  0  0  0  0  0  0  0  0
   -2.6090    0.1828   -0.1781 H   0  0  0  0  0  0  0  0  0  0  0  0
   -0.4881    0.2894   -0.0788 C   0  0  1  0  0  0  0  0  0  0  0  0
    0.2323   -0.1895   -0.7490 H   0  0  0  0  0  0  0  0  0  0  0  0
   -0.7085    1.7589   -0.5033 C   0  0  0  0  0  0  0  0  0  0  0  0
   -1.5154    2.1880    0.0998 H   0  0  0  0  0  0  0  0  0  0  0  0
    0.1912    2.3443   -0.2952 H   0  0  0  0  0  0  0  0  0  0  0  0
   -1.0502    1.9170   -1.9933 C   0  0  0  0  0  0  0  0  0  0  0  0
   -1.9700    1.3698   -2.2219 H   0  0  0  0  0  0  0  0  0  0  0  0
   -1.2334    2.9733   -2.2148 H   0  0  0  0  0  0  0  0  0  0  0  0
    0.2951    1.2974   -3.0862 S   0  0  0  0  0  0  0  0  0  0  0  0
    1.6479    2.5115   -2.8216 C   0  0  0  0  0  0  0  0  0  0  0  0
    2.0061    2.4714   -1.7896 H   0  0  0  0  0  0  0  0  0  0  0  0
    2.4856    2.2872   -3.4886 H   0  0  0  0  0  0  0  0  0  0  0  0
    1.2939    3.5246   -3.0346 H   0  0  0  0  0  0  0  0  0  0  0  0
    0.1404    0.2437    1.3432 C   0  0  0  0  0  0  0  0  0  0  0  0
   -0.5505   -0.0066    2.3255 O   0  0  0  0  0  0  0  0  0  0  0  0
    1.3588    0.8618    1.5711 N   0  0  0  0  0  0  0  0  0  0  0  0
    1.9371    1.0485    0.7577 H   0  0  0  0  0  0  0  0  0  0  0  0
    1.9631    0.9660    2.8949 C   0  0  0  0  0  0  0  0  0  0  0  0
    2.0972   -0.0286    3.3335 H   0  0  0  0  0  0  0  0  0  0  0  0
    2.9421    1.4497    2.8272 H   0  0  0  0  0  0  0  0  0  0  0  0
    1.3300    1.5621    3.5606 H   0  0  0  0  0  0  0  0  0  0  0  0
  1  2  1  0  0  0  0
  2  3  1  0  0  0  0
  2  4  1  0  0  0  0
  2  5  1  0  0  0  0
  5  6  2  0  0  0  0
  5  7  1  0  0  0  0
  7  8  1  0  0  0  0
  7  9  1  0  0  0  0
  9 10  1  0  0  0  0
  9 11  1  0  0  0  0
  9 22  1  0  0  0  0
 11 12  1  0  0  0  0
 11 13  1  0  0  0  0
 11 14  1  0  0  0  0
 14 15  1  0  0  0  0
 14 16  1  0  0  0  0
 14 17  1  0  0  0  0
 17 18  1  0  0  0  0
 18 19  1  0  0  0  0
 18 20  1  0  0  0  0
 18 21  1  0  0  0  0
 22 23  2  0  0  0  0
 22 24  1  0  0  0  0
 24 25  1  0  0  0  0
 24 26  1  0  0  0  0
 26 27  1  0  0  0  0
 26 28  1  0  0  0  0
 26 29  1  0  0  0  0
M  END
$$$$

  -OEChem-01062216093D

 29 28  0     1  0  0  0  0  0999 V2000
   -3.3383   -3.1447    1.0661 H   0  0  0  0  0  0  0  0  0  0  0  0
   -3.3660   -2.1093    0.7158 C   0  0  0  0  0  0  0  0  0  0  0  0
   -3.7219   -1.4737    1.5303 H   0  0  0  0  0  0  0  0  0  0  0  0
   -4.0582   -2.0392   -0.1262 H   0  0  0  0  0  0  0  0  0  0  0  0
   -1.9790   -1.6689    0.2891 C   0  0  0  0  0  0  0  0  0  0  0  0
   -1.0545   -2.4672    0.2888 O   0  0  0  0  0  0  0  0  0  0  0  0
   -1.7813   -0.4012   -0.2260 N   0  0  0  0  0  0  0  0  0  0  0  0
   -2.6043    0.1871   -0.1619 H   0  0  0  0  0  0  0  0  0  0  0  0
   -0.4853    0.2931   -0.0723 C   0  0  1  0  0  0  0  0  0  0  0  0
    0.2370   -0.1833   -0.7423 H   0  0  0  0  0  0  0  0  0  0  0  0
   -0.7207    1.7578   -0.5154 C   0  0  0  0  0  0  0  0  0  0  0  0
   -1.5370    2.1836    0.0775 H   0  0  0  0  0  0  0  0  0  0  0  0
    0.1681    2.3604   -0.3144 H   0  0  0  0  0  0  0  0  0  0  0  0
   -1.0511    1.8991   -2.0099 C   0  0  0  0  0  0  0  0  0  0  0  0
   -1.9626    1.3401   -2.2433 H   0  0  0  0  0  0  0  0  0  0  0  0
   -1.2441    2.9512   -2.2417 H   0  0  0  0  0  0  0  0  0  0  0  0
    0.3114    1.2866   -3.0854 S   0  0  0  0  0  0  0  0  0  0  0  0
    1.6500    2.5169   -2.8218 C   0  0  0  0  0  0  0  0  0  0  0  0
    2.0021    2.4876   -1.7873 H   0  0  0  0  0  0  0  0  0  0  0  0
    2.4945    2.2958   -3.4815 H   0  0  0  0  0  0  0  0  0  0  0  0
    1.2876    3.5249   -3.0446 H   0  0  0  0  0  0  0  0  0  0  0  0
    0.1587    0.2416    1.3490 C   0  0  0  0  0  0  0  0  0  0  0  0
   -0.4366   -0.2477    2.3024 O   0  0  0  0  0  0  0  0  0  0  0  0
    1.1983    1.1029    1.6646 N   0  0  0  0  0  0  0  0  0  0  0  0
    1.7045    1.5153    0.8877 H   0  0  0  0  0  0  0  0  0  0  0  0
    1.7586    1.2281    3.0064 C   0  0  0  0  0  0  0  0  0  0  0  0
    2.1123    0.2562    3.3666 H   0  0  0  0  0  0  0  0  0  0  0  0
    2.6034    1.9233    3.0004 H   0  0  0  0  0  0  0  0  0  0  0  0
    1.0045    1.6085    3.7035 H   0  0  0  0  0  0  0  0  0  0  0  0
  1  2  1  0  0  0  0
  2  3  1  0  0  0  0
  2  4  1  0  0  0  0
  2  5  1  0  0  0  0
  5  6  2  0  0  0  0
  5  7  1  0  0  0  0
  7  8  1  0  0  0  0
  7  9  1  0  0  0  0
  9 10  1  0  0  0  0
  9 11  1  0  0  0  0
  9 22  1  0  0  0  0
 11 12  1  0  0  0  0
 11 13  1  0  0  0  0
 11 14  1  0  0  0  0
 14 15  1  0  0  0  0
 14 16  1  0  0  0  0
 14 17  1  0  0  0  0
 17 18  1  0  0  0  0
 18 19  1  0  0  0  0
 18 20  1  0  0  0  0
 18 21  1  0  0  0  0
 22 23  2  0  0  0  0
 22 24  1  0  0  0  0
 24 25  1  0  0  0  0
 24 26  1  0  0  0  0
 26 27  1  0  0  0  0
 26 28  1  0  0  0  0
 26 29  1  0  0  0  0
M  END
$$$$

  -OEChem-01062216093D

 29 28  0     1  0  0  0  0  0999 V2000
   -3.3427   -3.1413    1.0517 H   0  0  0  0  0  0  0  0  0  0  0  0
   -3.3602   -2.0951    0.7337 C   0  0  0  0  0  0  0  0  0  0  0  0
   -3.6766   -1.4780    1.5780 H   0  0  0  0  0  0  0  0  0  0  0  0
   -4.0772   -1.9856   -0.0831 H   0  0  0  0  0  0  0  0  0  0  0  0
   -1.9785   -1.6694    0.2757 C   0  0  0  0  0  0  0  0  0  0  0  0
   -1.0791   -2.4910    0.1964 O   0  0  0  0  0  0  0  0  0  0  0  0
   -1.7763   -0.3949   -0.2194 N   0  0  0  0  0  0  0  0  0  0  0  0
   -2.6013    0.1892   -0.1468 H   0  0  0  0  0  0  0  0  0  0  0  0
   -0.4862    0.3113   -0.0594 C   0  0  1  0  0  0  0  0  0  0  0  0
    0.2401   -0.1644   -0.7261 H   0  0  0  0  0  0  0  0  0  0  0  0
   -0.7351    1.7669   -0.5304 C   0  0  0  0  0  0  0  0  0  0  0  0
   -1.5598    2.1963    0.0480 H   0  0  0  0  0  0  0  0  0  0  0  0
    0.1464    2.3829   -0.3414 H   0  0  0  0  0  0  0  0  0  0  0  0
   -1.0510    1.8776   -2.0312 C   0  0  0  0  0  0  0  0  0  0  0  0
   -1.9531    1.3029   -2.2639 H   0  0  0  0  0  0  0  0  0  0  0  0
   -1.2552    2.9231   -2.2837 H   0  0  0  0  0  0  0  0  0  0  0  0
    0.3284    1.2640   -3.0845 S   0  0  0  0  0  0  0  0  0  0  0  0
    1.6530    2.5115   -2.8343 C   0  0  0  0  0  0  0  0  0  0  0  0
    2.0024    2.5002   -1.7983 H   0  0  0  0  0  0  0  0  0  0  0  0
    2.5015    2.2889   -3.4883 H   0  0  0  0  0  0  0  0  0  0  0  0
    1.2813    3.5124   -3.0729 H   0  0  0  0  0  0  0  0  0  0  0  0
    0.1732    0.2614    1.3602 C   0  0  0  0  0  0  0  0  0  0  0  0
   -0.2277   -0.4870    2.2421 O   0  0  0  0  0  0  0  0  0  0  0  0
    0.9733    1.3080    1.7948 N   0  0  0  0  0  0  0  0  0  0  0  0
    1.3220    1.9472    1.0888 H   0  0  0  0  0  0  0  0  0  0  0  0
    1.5005    1.4155    3.1518 C   0  0  0  0  0  0  0  0  0  0  0  0
    2.1011    0.5341    3.4011 H   0  0  0  0  0  0  0  0  0  0  0  0
    2.1342    2.3029    3.2422 H   0  0  0  0  0  0  0  0  0  0  0  0
    0.6828    1.5011    3.8755 H   0  0  0  0  0  0  0  0  0  0  0  0
  1  2  1  0  0  0  0
  2  3  1  0  0  0  0
  2  4  1  0  0  0  0
  2  5  1  0  0  0  0
  5  6  2  0  0  0  0
  5  7  1  0  0  0  0
  7  8  1  0  0  0  0
  7  9  1  0  0  0  0
  9 10  1  0  0  0  0
  9 11  1  0  0  0  0
  9 22  1  0  0  0  0
 11 12  1  0  0  0  0
 11 13  1  0  0  0  0
 11 14  1  0  0  0  0
 14 15  1  0  0  0  0
 14 16  1  0  0  0  0
 14 17  1  0  0  0  0
 17 18  1  0  0  0  0
 18 19  1  0  0  0  0
 18 20  1  0  0  0  0
 18 21  1  0  0  0  0
 22 23  2  0  0  0  0
 22 24  1  0  0  0  0
 24 25  1  0  0  0  0
 24 26  1  0  0  0  0
 26 27  1  0  0  0  0
 26 28  1  0  0  0  0
 26 29  1  0  0  0  0
M  END
$$$$

  -OEChem-01062216093D

 29 28  0     1  0  0  0  0  0999 V2000
   -3.3344   -3.1310    1.0815 H   0  0  0  0  0  0  0  0  0  0  0  0
   -3.3542   -2.0862    0.7587 C   0  0  0  0  0  0  0  0  0  0  0  0
   -3.6570   -1.4649    1.6049 H   0  0  0  0  0  0  0  0  0  0  0  0
   -4.0836   -1.9794   -0.0476 H   0  0  0  0  0  0  0  0  0  0  0  0
   -1.9784   -1.6665    0.2768 C   0  0  0  0  0  0  0  0  0  0  0  0
   -1.1009   -2.5026    0.1436 O   0  0  0  0  0  0  0  0  0  0  0  0
   -1.7786   -0.3892   -0.2122 N   0  0  0  0  0  0  0  0  0  0  0  0
   -2.6106    0.1861   -0.1510 H   0  0  0  0  0  0  0  0  0  0  0  0
   -0.5003    0.3386   -0.0505 C   0  0  1  0  0  0  0  0  0  0  0  0
    0.2357   -0.1398   -0.7048 H   0  0  0  0  0  0  0  0  0  0  0  0
   -0.7485    1.7834   -0.5521 C   0  0  0  0  0  0  0  0  0  0  0  0
   -1.5815    2.2228    0.0062 H   0  0  0  0  0  0  0  0  0  0  0  0
    0.1335    2.4003   -0.3652 H   0  0  0  0  0  0  0  0  0  0  0  0
   -1.0418    1.8658   -2.0595 C   0  0  0  0  0  0  0  0  0  0  0  0
   -1.9376    1.2819   -2.2936 H   0  0  0  0  0  0  0  0  0  0  0  0
   -1.2478    2.9053   -2.3339 H   0  0  0  0  0  0  0  0  0  0  0  0
    0.3532    1.2413   -3.0848 S   0  0  0  0  0  0  0  0  0  0  0  0
    1.6695    2.4984   -2.8393 C   0  0  0  0  0  0  0  0  0  0  0  0
    2.0131    2.4975   -1.8013 H   0  0  0  0  0  0  0  0  0  0  0  0
    2.5227    2.2746   -3.4866 H   0  0  0  0  0  0  0  0  0  0  0  0
    1.2945    3.4951   -3.0890 H   0  0  0  0  0  0  0  0  0  0  0  0
    0.1560    0.2995    1.3710 C   0  0  0  0  0  0  0  0  0  0  0  0
    0.0739   -0.6657    2.1157 O   0  0  0  0  0  0  0  0  0  0  0  0
    0.6699    1.4531    1.9460 N   0  0  0  0  0  0  0  0  0  0  0  0
    0.7402    2.2772    1.3596 H   0  0  0  0  0  0  0  0  0  0  0  0
    1.2108    1.5118    3.3010 C   0  0  0  0  0  0  0  0  0  0  0  0
    2.0420    0.8076    3.4136 H   0  0  0  0  0  0  0  0  0  0  0  0
    1.5796    2.5187    3.5182 H   0  0  0  0  0  0  0  0  0  0  0  0
    0.4370    1.2624    4.0348 H   0  0  0  0  0  0  0  0  0  0  0  0
  1  2  1  0  0  0  0
  2  3  1  0  0  0  0
  2  4  1  0  0  0  0
  2  5  1  0  0  0  0
  5  6  2  0  0  0  0
  5  7  1  0  0  0  0
  7  8  1  0  0  0  0
  7  9  1  0  0  0  0
  9 10  1  0  0  0  0
  9 11  1  0  0  0  0
  9 22  1  0  0  0  0
 11 12  1  0  0  0  0
 11 13  1  0  0  0  0
 11 14  1  0  0  0  0
 14 15  1  0  0  0  0
 14 16  1  0  0  0  0
 14 17  1  0  0  0  0
 17 18  1  0  0  0  0
 18 19  1  0  0  0  0
 18 20  1  0  0  0  0
 18 21  1  0  0  0  0
 22 23  2  0  0  0  0
 22 24  1  0  0  0  0
 24 25  1  0  0  0  0
 24 26  1  0  0  0  0
 26 27  1  0  0  0  0
 26 28  1  0  0  0  0
 26 29  1  0  0  0  0
M  END
$$$$

  -OEChem-01062216093D

 29 28  0     1  0  0  0  0  0999 V2000
   -3.4074   -3.1258    1.0429 H   0  0  0  0  0  0  0  0  0  0  0  0
   -3.4095   -2.0928    0.6835 C   0  0  0  0  0  0  0  0  0  0  0  0
   -3.8045   -1.4491    1.4727 H   0  0  0  0  0  0  0  0  0  0  0  0
   -4.0563   -2.0263   -0.1944 H   0  0  0  0  0  0  0  0  0  0  0  0
   -1.9990   -1.6662    0.3229 C   0  0  0  0  0  0  0  0  0  0  0  0
   -1.1104   -2.4973    0.3029 O   0  0  0  0  0  0  0  0  0  0  0  0
   -1.7802   -0.3946   -0.1724 N   0  0  0  0  0  0  0  0  0  0  0  0
   -2.6197    0.1723   -0.2032 H   0  0  0  0  0  0  0  0  0  0  0  0
   -0.5106    0.3496   -0.0210 C   0  0  1  0  0  0  0  0  0  0  0  0
    0.2321   -0.1330   -0.6646 H   0  0  0  0  0  0  0  0  0  0  0  0
   -0.7537    1.7879   -0.5379 C   0  0  0  0  0  0  0  0  0  0  0  0
   -1.5899    2.2352    0.0091 H   0  0  0  0  0  0  0  0  0  0  0  0
    0.1326    2.3989   -0.3449 H   0  0  0  0  0  0  0  0  0  0  0  0
   -1.0404    1.8567   -2.0471 C   0  0  0  0  0  0  0  0  0  0  0  0
   -1.9359    1.2721   -2.2796 H   0  0  0  0  0  0  0  0  0  0  0  0
   -1.2431    2.8939   -2.3321 H   0  0  0  0  0  0  0  0  0  0  0  0
    0.3566    1.2202   -3.0617 S   0  0  0  0  0  0  0  0  0  0  0  0
    1.6738    2.4776   -2.8220 C   0  0  0  0  0  0  0  0  0  0  0  0
    2.0141    2.4839   -1.7828 H   0  0  0  0  0  0  0  0  0  0  0  0
    2.5289    2.2476   -3.4648 H   0  0  0  0  0  0  0  0  0  0  0  0
    1.3005    3.4731   -3.0800 H   0  0  0  0  0  0  0  0  0  0  0  0
    0.1350    0.3299    1.4008 C   0  0  0  0  0  0  0  0  0  0  0  0
    0.4798   -0.6996    1.9576 O   0  0  0  0  0  0  0  0  0  0  0  0
    0.3488    1.5085    2.1010 N   0  0  0  0  0  0  0  0  0  0  0  0
    0.0811    2.3776    1.6524 H   0  0  0  0  0  0  0  0  0  0  0  0
    0.9629    1.5613    3.4240 C   0  0  0  0  0  0  0  0  0  0  0  0
    1.9850    1.1702    3.3874 H   0  0  0  0  0  0  0  0  0  0  0  0
    1.0002    2.5936    3.7846 H   0  0  0  0  0  0  0  0  0  0  0  0
    0.3845    0.9671    4.1394 H   0  0  0  0  0  0  0  0  0  0  0  0
  1  2  1  0  0  0  0
  2  3  1  0  0  0  0
  2  4  1  0  0  0  0
  2  5  1  0  0  0  0
  5  6  2  0  0  0  0
  5  7  1  0  0  0  0
  7  8  1  0  0  0  0
  7  9  1  0  0  0  0
  9 10  1  0  0  0  0
  9 11  1  0  0  0  0
  9 22  1  0  0  0  0
 11 12  1  0  0  0  0
 11 13  1  0  0  0  0
 11 14  1  0  0  0  0
 14 15  1  0  0  0  0
 14 16  1  0  0  0  0
 14 17  1  0  0  0  0
 17 18  1  0  0  0  0
 18 19  1  0  0  0  0
 18 20  1  0  0  0  0
 18 21  1  0  0  0  0
 22 23  2  0  0  0  0
 22 24  1  0  0  0  0
 24 25  1  0  0  0  0
 24 26  1  0  0  0  0
 26 27  1  0  0  0  0
 26 28  1  0  0  0  0
 26 29  1  0  0  0  0
M  END
$$$$

  -OEChem-01062216093D

 29 28  0     1  0  0  0  0  0999 V2000
   -3.5806   -3.2034    0.6775 H   0  0  0  0  0  0  0  0  0  0  0  0
   -3.5027   -2.2101    0.2263 C   0  0  0  0  0  0  0  0  0  0  0  0
   -4.3160   -1.5872    0.6057 H   0  0  0  0  0  0  0  0  0  0  0  0
   -3.6010   -2.3096   -0.8572 H   0  0  0  0  0  0  0  0  0  0  0  0
   -2.1640   -1.5840    0.5713 C   0  0  0  0  0  0  0  0  0  0  0  0
   -1.4088   -2.1839    1.3091 O   0  0  0  0  0  0  0  0  0  0  0  0
   -1.8544   -0.3439    0.0435 N   0  0  0  0  0  0  0  0  0  0  0  0
   -2.5293    0.0107   -0.6247 H   0  0  0  0  0  0  0  0  0  0  0  0
   -0.5554    0.3606    0.1183 C   0  0  1  0  0  0  0  0  0  0  0  0
    0.1410   -0.1593   -0.5480 H   0  0  0  0  0  0  0  0  0  0  0  0
   -0.7638    1.8001   -0.4067 C   0  0  0  0  0  0  0  0  0  0  0  0
   -1.5584    2.2842    0.1702 H   0  0  0  0  0  0  0  0  0  0  0  0
    0.1540    2.3758   -0.2505 H   0  0  0  0  0  0  0  0  0  0  0  0
   -1.1200    1.8710   -1.9005 C   0  0  0  0  0  0  0  0  0  0  0  0
   -2.0535    1.3324   -2.0877 H   0  0  0  0  0  0  0  0  0  0  0  0
   -1.2843    2.9160   -2.1822 H   0  0  0  0  0  0  0  0  0  0  0  0
    0.1985    1.1660   -2.9720 S   0  0  0  0  0  0  0  0  0  0  0  0
    1.5784    2.3673   -2.8040 C   0  0  0  0  0  0  0  0  0  0  0  0
    1.9606    2.3711   -1.7791 H   0  0  0  0  0  0  0  0  0  0  0  0
    2.3962    2.0913   -3.4765 H   0  0  0  0  0  0  0  0  0  0  0  0
    1.2399    3.3754   -3.0603 H   0  0  0  0  0  0  0  0  0  0  0  0
    0.1548    0.3688    1.5035 C   0  0  0  0  0  0  0  0  0  0  0  0
    1.0081   -0.4708    1.7544 O   0  0  0  0  0  0  0  0  0  0  0  0
    0.1614    1.5091    2.2933 N   0  0  0  0  0  0  0  0  0  0  0  0
   -0.5391    2.2140    2.0923 H   0  0  0  0  0  0  0  0  0  0  0  0
    0.9423    1.6269    3.5198 C   0  0  0  0  0  0  0  0  0  0  0  0
    2.0135    1.5754    3.2976 H   0  0  0  0  0  0  0  0  0  0  0  0
    0.7367    2.5832    4.0100 H   0  0  0  0  0  0  0  0  0  0  0  0
    0.6880    0.8194    4.2150 H   0  0  0  0  0  0  0  0  0  0  0  0
  1  2  1  0  0  0  0
  2  3  1  0  0  0  0
  2  4  1  0  0  0  0
  2  5  1  0  0  0  0
  5  6  2  0  0  0  0
  5  7  1  0  0  0  0
  7  8  1  0  0  0  0
  7  9  1  0  0  0  0
  9 10  1  0  0  0  0
  9 11  1  0  0  0  0
  9 22  1  0  0  0  0
 11 12  1  0  0  0  0
 11 13  1  0  0  0  0
 11 14  1  0  0  0  0
 14 15  1  0  0  0  0
 14 16  1  0  0  0  0
 14 17  1  0  0  0  0
 17 18  1  0  0  0  0
 18 19  1  0  0  0  0
 18 20  1  0  0  0  0
 18 21  1  0  0  0  0
 22 23  2  0  0  0  0
 22 24  1  0  0  0  0
 24 25  1  0  0  0  0
 24 26  1  0  0  0  0
 26 27  1  0  0  0  0
 26 28  1  0  0  0  0
 26 29  1  0  0  0  0
M  END
$$$$

  -OEChem-01062216093D

 29 28  0     1  0  0  0  0  0999 V2000
   -3.5440   -3.2249    0.6745 H   0  0  0  0  0  0  0  0  0  0  0  0
   -3.4867   -2.2296    0.2245 C   0  0  0  0  0  0  0  0  0  0  0  0
   -4.3170   -1.6263    0.5990 H   0  0  0  0  0  0  0  0  0  0  0  0
   -3.5759   -2.3306   -0.8597 H   0  0  0  0  0  0  0  0  0  0  0  0
   -2.1660   -1.5720    0.5790 C   0  0  0  0  0  0  0  0  0  0  0  0
   -1.4136   -2.1344    1.3502 O   0  0  0  0  0  0  0  0  0  0  0  0
   -1.8671   -0.3362    0.0358 N   0  0  0  0  0  0  0  0  0  0  0  0
   -2.5228   -0.0112   -0.6661 H   0  0  0  0  0  0  0  0  0  0  0  0
   -0.5610    0.3535    0.0999 C   0  0  1  0  0  0  0  0  0  0  0  0
    0.1252   -0.1705   -0.5741 H   0  0  0  0  0  0  0  0  0  0  0  0
   -0.7474    1.8023   -0.4023 C   0  0  0  0  0  0  0  0  0  0  0  0
   -1.5287    2.2919    0.1877 H   0  0  0  0  0  0  0  0  0  0  0  0
    0.1818    2.3580   -0.2400 H   0  0  0  0  0  0  0  0  0  0  0  0
   -1.1185    1.9019   -1.8899 C   0  0  0  0  0  0  0  0  0  0  0  0
   -2.0645    1.3850   -2.0738 H   0  0  0  0  0  0  0  0  0  0  0  0
   -1.2644    2.9540   -2.1550 H   0  0  0  0  0  0  0  0  0  0  0  0
    0.1752    1.1872   -2.9845 S   0  0  0  0  0  0  0  0  0  0  0  0
    1.5756    2.3634   -2.8090 C   0  0  0  0  0  0  0  0  0  0  0  0
    1.9630    2.3486   -1.7862 H   0  0  0  0  0  0  0  0  0  0  0  0
    2.3857    2.0833   -3.4890 H   0  0  0  0  0  0  0  0  0  0  0  0
    1.2516    3.3799   -3.0509 H   0  0  0  0  0  0  0  0  0  0  0  0
    0.1477    0.3543    1.4818 C   0  0  0  0  0  0  0  0  0  0  0  0
    1.1517   -0.3262    1.6456 O   0  0  0  0  0  0  0  0  0  0  0  0
   -0.0885    1.3718    2.3932 N   0  0  0  0  0  0  0  0  0  0  0  0
   -0.9474    1.8977    2.2750 H   0  0  0  0  0  0  0  0  0  0  0  0
    0.6368    1.4923    3.6524 C   0  0  0  0  0  0  0  0  0  0  0  0
    1.7074    1.6285    3.4664 H   0  0  0  0  0  0  0  0  0  0  0  0
    0.2733    2.3557    4.2177 H   0  0  0  0  0  0  0  0  0  0  0  0
    0.4966    0.5932    4.2618 H   0  0  0  0  0  0  0  0  0  0  0  0
  1  2  1  0  0  0  0
  2  3  1  0  0  0  0
  2  4  1  0  0  0  0
  2  5  1  0  0  0  0
  5  6  2  0  0  0  0
  5  7  1  0  0  0  0
  7  8  1  0  0  0  0
  7  9  1  0  0  0  0
  9 10  1  0  0  0  0
  9 11  1  0  0  0  0
  9 22  1  0  0  0  0
 11 12  1  0  0  0  0
 11 13  1  0  0  0  0
 11 14  1  0  0  0  0
 14 15  1  0  0  0  0
 14 16  1  0  0  0  0
 14 17  1  0  0  0  0
 17 18  1  0  0  0  0
 18 19  1  0  0  0  0
 18 20  1  0  0  0  0
 18 21  1  0  0  0  0
 22 23  2  0  0  0  0
 22 24  1  0  0  0  0
 24 25  1  0  0  0  0
 24 26  1  0  0  0  0
 26 27  1  0  0  0  0
 26 28  1  0  0  0  0
 26 29  1  0  0  0  0
M  END
$$$$

  -OEChem-01062216093D

 29 28  0     1  0  0  0  0  0999 V2000
   -3.5329   -3.2171    0.7107 H   0  0  0  0  0  0  0  0  0  0  0  0
   -3.4741   -2.2346    0.2333 C   0  0  0  0  0  0  0  0  0  0  0  0
   -4.3107   -1.6238    0.5808 H   0  0  0  0  0  0  0  0  0  0  0  0
   -3.5502   -2.3665   -0.8488 H   0  0  0  0  0  0  0  0  0  0  0  0
   -2.1600   -1.5619    0.5837 C   0  0  0  0  0  0  0  0  0  0  0  0
   -1.4003   -2.1082    1.3606 O   0  0  0  0  0  0  0  0  0  0  0  0
   -1.8678   -0.3299    0.0292 N   0  0  0  0  0  0  0  0  0  0  0  0
   -2.5158   -0.0205   -0.6872 H   0  0  0  0  0  0  0  0  0  0  0  0
   -0.5577    0.3520    0.0835 C   0  0  1  0  0  0  0  0  0  0  0  0
    0.1223   -0.1732   -0.5955 H   0  0  0  0  0  0  0  0  0  0  0  0
   -0.7317    1.8068   -0.4008 C   0  0  0  0  0  0  0  0  0  0  0  0
   -1.4998    2.3003    0.2029 H   0  0  0  0  0  0  0  0  0  0  0  0
    0.2058    2.3491   -0.2406 H   0  0  0  0  0  0  0  0  0  0  0  0
   -1.1173    1.9236   -1.8835 C   0  0  0  0  0  0  0  0  0  0  0  0
   -2.0711    1.4188   -2.0610 H   0  0  0  0  0  0  0  0  0  0  0  0
   -1.2550    2.9794   -2.1378 H   0  0  0  0  0  0  0  0  0  0  0  0
    0.1558    1.2038   -2.9988 S   0  0  0  0  0  0  0  0  0  0  0  0
    1.5712    2.3626   -2.8277 C   0  0  0  0  0  0  0  0  0  0  0  0
    1.9705    2.3321   -1.8097 H   0  0  0  0  0  0  0  0  0  0  0  0
    2.3700    2.0808   -3.5204 H   0  0  0  0  0  0  0  0  0  0  0  0
    1.2562    3.3852   -3.0548 H   0  0  0  0  0  0  0  0  0  0  0  0
    0.1503    0.3509    1.4625 C   0  0  0  0  0  0  0  0  0  0  0  0
    1.2723   -0.1280    1.5636 O   0  0  0  0  0  0  0  0  0  0  0  0
   -0.3003    1.1800    2.4765 N   0  0  0  0  0  0  0  0  0  0  0  0
   -1.2628    1.4917    2.4032 H   0  0  0  0  0  0  0  0  0  0  0  0
    0.3596    1.2619    3.7741 C   0  0  0  0  0  0  0  0  0  0  0  0
    1.3909    1.6120    3.6597 H   0  0  0  0  0  0  0  0  0  0  0  0
   -0.1708    1.9636    4.4247 H   0  0  0  0  0  0  0  0  0  0  0  0
    0.3731    0.2798    4.2586 H   0  0  0  0  0  0  0  0  0  0  0  0
  1  2  1  0  0  0  0
  2  3  1  0  0  0  0
  2  4  1  0  0  0  0
  2  5  1  0  0  0  0
  5  6  2  0  0  0  0
  5  7  1  0  0  0  0
  7  8  1  0  0  0  0
  7  9  1  0  0  0  0
  9 10  1  0  0  0  0
  9 11  1  0  0  0  0
  9 22  1  0  0  0  0
 11 12  1  0  0  0  0
 11 13  1  0  0  0  0
 11 14  1  0  0  0  0
 14 15  1  0  0  0  0
 14 16  1  0  0  0  0
 14 17  1  0  0  0  0
 17 18  1  0  0  0  0
 18 19  1  0  0  0  0
 18 20  1  0  0  0  0
 18 21  1  0  0  0  0
 22 23  2  0  0  0  0
 22 24  1  0  0  0  0
 24 25  1  0  0  0  0
 24 26  1  0  0  0  0
 26 27  1  0  0  0  0
 26 28  1  0  0  0  0
 26 29  1  0  0  0  0
M  END
$$$$

  -OEChem-01062216093D

 29 28  0     1  0  0  0  0  0999 V2000
   -3.5276   -3.2240    0.7056 H   0  0  0  0  0  0  0  0  0  0  0  0
   -3.4772   -2.2373    0.2361 C   0  0  0  0  0  0  0  0  0  0  0  0
   -4.3122   -1.6324    0.5971 H   0  0  0  0  0  0  0  0  0  0  0  0
   -3.5644   -2.3606   -0.8461 H   0  0  0  0  0  0  0  0  0  0  0  0
   -2.1622   -1.5628    0.5793 C   0  0  0  0  0  0  0  0  0  0  0  0
   -1.3990   -2.1034    1.3577 O   0  0  0  0  0  0  0  0  0  0  0  0
   -1.8687   -0.3341    0.0181 N   0  0  0  0  0  0  0  0  0  0  0  0
   -2.5141   -0.0269   -0.7018 H   0  0  0  0  0  0  0  0  0  0  0  0
   -0.5552    0.3424    0.0704 C   0  0  1  0  0  0  0  0  0  0  0  0
    0.1233   -0.1830   -0.6101 H   0  0  0  0  0  0  0  0  0  0  0  0
   -0.7209    1.8024   -0.3974 C   0  0  0  0  0  0  0  0  0  0  0  0
   -1.4800    2.2950    0.2186 H   0  0  0  0  0  0  0  0  0  0  0  0
    0.2216    2.3361   -0.2373 H   0  0  0  0  0  0  0  0  0  0  0  0
   -1.1138    1.9368   -1.8765 C   0  0  0  0  0  0  0  0  0  0  0  0
   -2.0727    1.4418   -2.0541 H   0  0  0  0  0  0  0  0  0  0  0  0
   -1.2436    2.9964   -2.1193 H   0  0  0  0  0  0  0  0  0  0  0  0
    0.1478    1.2183   -3.0054 S   0  0  0  0  0  0  0  0  0  0  0  0
    1.5712    2.3662   -2.8287 C   0  0  0  0  0  0  0  0  0  0  0  0
    1.9747    2.3227   -1.8127 H   0  0  0  0  0  0  0  0  0  0  0  0
    2.3647    2.0865   -3.5280 H   0  0  0  0  0  0  0  0  0  0  0  0
    1.2618    3.3932   -3.0434 H   0  0  0  0  0  0  0  0  0  0  0  0
    0.1508    0.3446    1.4483 C   0  0  0  0  0  0  0  0  0  0  0  0
    1.3501    0.1055    1.5104 O   0  0  0  0  0  0  0  0  0  0  0  0
   -0.4683    0.9317    2.5382 N   0  0  0  0  0  0  0  0  0  0  0  0
   -1.4793    0.9978    2.4833 H   0  0  0  0  0  0  0  0  0  0  0  0
    0.1577    0.9859    3.8533 C   0  0  0  0  0  0  0  0  0  0  0  0
    1.1033    1.5361    3.8061 H   0  0  0  0  0  0  0  0  0  0  0  0
   -0.4999    1.4940    4.5649 H   0  0  0  0  0  0  0  0  0  0  0  0
    0.3566   -0.0255    4.2233 H   0  0  0  0  0  0  0  0  0  0  0  0
  1  2  1  0  0  0  0
  2  3  1  0  0  0  0
  2  4  1  0  0  0  0
  2  5  1  0  0  0  0
  5  6  2  0  0  0  0
  5  7  1  0  0  0  0
  7  8  1  0  0  0  0
  7  9  1  0  0  0  0
  9 10  1  0  0  0  0
  9 11  1  0  0  0  0
  9 22  1  0  0  0  0
 11 12  1  0  0  0  0
 11 13  1  0  0  0  0
 11 14  1  0  0  0  0
 14 15  1  0  0  0  0
 14 16  1  0  0  0  0
 14 17  1  0  0  0  0
 17 18  1  0  0  0  0
 18 19  1  0  0  0  0
 18 20  1  0  0  0  0
 18 21  1  0  0  0  0
 22 23  2  0  0  0  0
 22 24  1  0  0  0  0
 24 25  1  0  0  0  0
 24 26  1  0  0  0  0
 26 27  1  0  0  0  0
 26 28  1  0  0  0  0
 26 29  1  0  0  0  0
M  END
$$$$

  -OEChem-01062216093D

 29 28  0     1  0  0  0  0  0999 V2000
   -3.5546   -3.2178    0.6976 H   0  0  0  0  0  0  0  0  0  0  0  0
   -3.4959   -2.2331    0.2250 C   0  0  0  0  0  0  0  0  0  0  0  0
   -4.3266   -1.6206    0.5838 H   0  0  0  0  0  0  0  0  0  0  0  0
   -3.5835   -2.3587   -0.8568 H   0  0  0  0  0  0  0  0  0  0  0  0
   -2.1750   -1.5688    0.5651 C   0  0  0  0  0  0  0  0  0  0  0  0
   -1.4138   -2.1125    1.3435 O   0  0  0  0  0  0  0  0  0  0  0  0
   -1.8708   -0.3429    0.0039 N   0  0  0  0  0  0  0  0  0  0  0  0
   -2.5190   -0.0216   -0.7078 H   0  0  0  0  0  0  0  0  0  0  0  0
   -0.5554    0.3319    0.0637 C   0  0  1  0  0  0  0  0  0  0  0  0
    0.1263   -0.1920   -0.6146 H   0  0  0  0  0  0  0  0  0  0  0  0
   -0.7237    1.7928   -0.3987 C   0  0  0  0  0  0  0  0  0  0  0  0
   -1.4844    2.2797    0.2198 H   0  0  0  0  0  0  0  0  0  0  0  0
    0.2162    2.3299   -0.2353 H   0  0  0  0  0  0  0  0  0  0  0  0
   -1.1137    1.9333   -1.8778 C   0  0  0  0  0  0  0  0  0  0  0  0
   -2.0710    1.4370   -2.0605 H   0  0  0  0  0  0  0  0  0  0  0  0
   -1.2448    2.9937   -2.1164 H   0  0  0  0  0  0  0  0  0  0  0  0
    0.1547    1.2220   -3.0041 S   0  0  0  0  0  0  0  0  0  0  0  0
    1.5736    2.3737   -2.8156 C   0  0  0  0  0  0  0  0  0  0  0  0
    1.9726    2.3263   -1.7981 H   0  0  0  0  0  0  0  0  0  0  0  0
    2.3717    2.1002   -3.5122 H   0  0  0  0  0  0  0  0  0  0  0  0
    1.2617    3.4008   -3.0261 H   0  0  0  0  0  0  0  0  0  0  0  0
    0.1517    0.3454    1.4403 C   0  0  0  0  0  0  0  0  0  0  0  0
    1.3756    0.3585    1.4845 O   0  0  0  0  0  0  0  0  0  0  0  0
   -0.5644    0.6507    2.5838 N   0  0  0  0  0  0  0  0  0  0  0  0
   -1.5591    0.4568    2.5271 H   0  0  0  0  0  0  0  0  0  0  0  0
    0.0546    0.6715    3.9028 C   0  0  0  0  0  0  0  0  0  0  0  0
    0.8680    1.4041    3.9345 H   0  0  0  0  0  0  0  0  0  0  0  0
   -0.6835    0.9452    4.6625 H   0  0  0  0  0  0  0  0  0  0  0  0
    0.4595   -0.3156    4.1497 H   0  0  0  0  0  0  0  0  0  0  0  0
  1  2  1  0  0  0  0
  2  3  1  0  0  0  0
  2  4  1  0  0  0  0
  2  5  1  0  0  0  0
  5  6  2  0  0  0  0
  5  7  1  0  0  0  0
  7  8  1  0  0  0  0
  7  9  1  0  0  0  0
  9 10  1  0  0  0  0
  9 11  1  0  0  0  0
  9 22  1  0  0  0  0
 11 12  1  0  0  0  0
 11 13  1  0  0  0  0
 11 14  1  0  0  0  0
 14 15  1  0  0  0  0
 14 16  1  0  0  0  0
 14 17  1  0  0  0  0
 17 18  1  0  0  0  0
 18 19  1  0  0  0  0
 18 20  1  0  0  0  0
 18 21  1  0  0  0  0
 22 23  2  0  0  0  0
 22 24  1  0  0  0  0
 24 25  1  0  0  0  0
 24 26  1  0  0  0  0
 26 27  1  0  0  0  0
 26 28  1  0  0  0  0
 26 29  1  0  0  0  0
M  END
$$$$

  -OEChem-01062216093D

 29 28  0     1  0  0  0  0  0999 V2000
   -3.6208   -3.2077    0.6381 H   0  0  0  0  0  0  0  0  0  0  0  0
   -3.5390   -2.2218    0.1716 C   0  0  0  0  0  0  0  0  0  0  0  0
   -4.3655   -1.5977    0.5196 H   0  0  0  0  0  0  0  0  0  0  0  0
   -3.6114   -2.3411   -0.9123 H   0  0  0  0  0  0  0  0  0  0  0  0
   -2.2137   -1.5796    0.5359 C   0  0  0  0  0  0  0  0  0  0  0  0
   -1.4726   -2.1380    1.3235 O   0  0  0  0  0  0  0  0  0  0  0  0
   -1.8824   -0.3552   -0.0111 N   0  0  0  0  0  0  0  0  0  0  0  0
   -2.5266   -0.0102   -0.7152 H   0  0  0  0  0  0  0  0  0  0  0  0
   -0.5639    0.3145    0.0690 C   0  0  1  0  0  0  0  0  0  0  0  0
    0.1219   -0.2066   -0.6068 H   0  0  0  0  0  0  0  0  0  0  0  0
   -0.7403    1.7753   -0.3954 C   0  0  0  0  0  0  0  0  0  0  0  0
   -1.5099    2.2552    0.2182 H   0  0  0  0  0  0  0  0  0  0  0  0
    0.1920    2.3234   -0.2254 H   0  0  0  0  0  0  0  0  0  0  0  0
   -1.1167    1.9147   -1.8784 C   0  0  0  0  0  0  0  0  0  0  0  0
   -2.0684    1.4122   -2.0720 H   0  0  0  0  0  0  0  0  0  0  0  0
   -1.2528    2.9746   -2.1160 H   0  0  0  0  0  0  0  0  0  0  0  0
    0.1681    1.2154   -2.9937 S   0  0  0  0  0  0  0  0  0  0  0  0
    1.5752    2.3790   -2.7893 C   0  0  0  0  0  0  0  0  0  0  0  0
    1.9645    2.3334   -1.7678 H   0  0  0  0  0  0  0  0  0  0  0  0
    2.3822    2.1133   -3.4784 H   0  0  0  0  0  0  0  0  0  0  0  0
    1.2567    3.4038   -3.0012 H   0  0  0  0  0  0  0  0  0  0  0  0
    0.1509    0.3376    1.4451 C   0  0  0  0  0  0  0  0  0  0  0  0
    1.3488    0.5924    1.4857 O   0  0  0  0  0  0  0  0  0  0  0  0
   -0.5726    0.3419    2.6238 N   0  0  0  0  0  0  0  0  0  0  0  0
   -1.4711   -0.1286    2.5538 H   0  0  0  0  0  0  0  0  0  0  0  0
    0.0752    0.3644    3.9292 C   0  0  0  0  0  0  0  0  0  0  0  0
    0.6966    1.2599    4.0349 H   0  0  0  0  0  0  0  0  0  0  0  0
   -0.6773    0.3738    4.7234 H   0  0  0  0  0  0  0  0  0  0  0  0
    0.7069   -0.5207    4.0581 H   0  0  0  0  0  0  0  0  0  0  0  0
  1  2  1  0  0  0  0
  2  3  1  0  0  0  0
  2  4  1  0  0  0  0
  2  5  1  0  0  0  0
  5  6  2  0  0  0  0
  5  7  1  0  0  0  0
  7  8  1  0  0  0  0
  7  9  1  0  0  0  0
  9 10  1  0  0  0  0
  9 11  1  0  0  0  0
  9 22  1  0  0  0  0
 11 12  1  0  0  0  0
 11 13  1  0  0  0  0
 11 14  1  0  0  0  0
 14 15  1  0  0  0  0
 14 16  1  0  0  0  0
 14 17  1  0  0  0  0
 17 18  1  0  0  0  0
 18 19  1  0  0  0  0
 18 20  1  0  0  0  0
 18 21  1  0  0  0  0
 22 23  2  0  0  0  0
 22 24  1  0  0  0  0
 24 25  1  0  0  0  0
 24 26  1  0  0  0  0
 26 27  1  0  0  0  0
 26 28  1  0  0  0  0
 26 29  1  0  0  0  0
M  END
$$$$

  -OEChem-01062216093D

 29 28  0     1  0  0  0  0  0999 V2000
   -3.7001   -3.1784    0.5996 H   0  0  0  0  0  0  0  0  0  0  0  0
   -3.5928   -2.1861    0.1522 C   0  0  0  0  0  0  0  0  0  0  0  0
   -4.3807   -1.5370    0.5421 H   0  0  0  0  0  0  0  0  0  0  0  0
   -3.7064   -2.2766   -0.9310 H   0  0  0  0  0  0  0  0  0  0  0  0
   -2.2308   -1.6067    0.4845 C   0  0  0  0  0  0  0  0  0  0  0  0
   -1.4784   -2.2233    1.2169 O   0  0  0  0  0  0  0  0  0  0  0  0
   -1.8748   -0.3782   -0.0360 N   0  0  0  0  0  0  0  0  0  0  0  0
   -2.5463    0.0292   -0.6784 H   0  0  0  0  0  0  0  0  0  0  0  0
   -0.5610    0.2993    0.0708 C   0  0  1  0  0  0  0  0  0  0  0  0
    0.1361   -0.2136   -0.5994 H   0  0  0  0  0  0  0  0  0  0  0  0
   -0.7602    1.7562   -0.4044 C   0  0  0  0  0  0  0  0  0  0  0  0
   -1.5491    2.2224    0.1948 H   0  0  0  0  0  0  0  0  0  0  0  0
    0.1554    2.3284   -0.2261 H   0  0  0  0  0  0  0  0  0  0  0  0
   -1.1148    1.8807   -1.8946 C   0  0  0  0  0  0  0  0  0  0  0  0
   -2.0518    1.3569   -2.1027 H   0  0  0  0  0  0  0  0  0  0  0  0
   -1.2699    2.9362   -2.1398 H   0  0  0  0  0  0  0  0  0  0  0  0
    0.2036    1.2030   -2.9838 S   0  0  0  0  0  0  0  0  0  0  0  0
    1.5823    2.3969   -2.7614 C   0  0  0  0  0  0  0  0  0  0  0  0
    1.9564    2.3618   -1.7337 H   0  0  0  0  0  0  0  0  0  0  0  0
    2.4054    2.1469   -3.4373 H   0  0  0  0  0  0  0  0  0  0  0  0
    1.2452    3.4140   -2.9814 H   0  0  0  0  0  0  0  0  0  0  0  0
    0.1530    0.3284    1.4518 C   0  0  0  0  0  0  0  0  0  0  0  0
    1.2796    0.8060    1.5240 O   0  0  0  0  0  0  0  0  0  0  0  0
   -0.5081    0.0236    2.6273 N   0  0  0  0  0  0  0  0  0  0  0  0
   -1.2618   -0.6510    2.5003 H   0  0  0  0  0  0  0  0  0  0  0  0
    0.1627    0.0382    3.9214 C   0  0  0  0  0  0  0  0  0  0  0  0
    0.5623    1.0348    4.1362 H   0  0  0  0  0  0  0  0  0  0  0  0
   -0.5432   -0.2265    4.7144 H   0  0  0  0  0  0  0  0  0  0  0  0
    0.9872   -0.6825    3.9336 H   0  0  0  0  0  0  0  0  0  0  0  0
  1  2  1  0  0  0  0
  2  3  1  0  0  0  0
  2  4  1  0  0  0  0
  2  5  1  0  0  0  0
  5  6  2  0  0  0  0
  5  7  1  0  0  0  0
  7  8  1  0  0  0  0
  7  9  1  0  0  0  0
  9 10  1  0  0  0  0
  9 11  1  0  0  0  0
  9 22  1  0  0  0  0
 11 12  1  0  0  0  0
 11 13  1  0  0  0  0
 11 14  1  0  0  0  0
 14 15  1  0  0  0  0
 14 16  1  0  0  0  0
 14 17  1  0  0  0  0
 17 18  1  0  0  0  0
 18 19  1  0  0  0  0
 18 20  1  0  0  0  0
 18 21  1  0  0  0  0
 22 23  2  0  0  0  0
 22 24  1  0  0  0  0
 24 25  1  0  0  0  0
 24 26  1  0  0  0  0
 26 27  1  0  0  0  0
 26 28  1  0  0  0  0
 26 29  1  0  0  0  0
M  END
$$$$

  -OEChem-01062216093D

 29 28  0     1  0  0  0  0  0999 V2000
   -3.7564   -3.1476    0.6010 H   0  0  0  0  0  0  0  0  0  0  0  0
   -3.6345   -2.1501    0.1691 C   0  0  0  0  0  0  0  0  0  0  0  0
   -4.3685   -1.4793    0.6221 H   0  0  0  0  0  0  0  0  0  0  0  0
   -3.8181   -2.2096   -0.9065 H   0  0  0  0  0  0  0  0  0  0  0  0
   -2.2310   -1.6356    0.4282 C   0  0  0  0  0  0  0  0  0  0  0  0
   -1.4454   -2.3261    1.0526 O   0  0  0  0  0  0  0  0  0  0  0  0
   -1.8646   -0.3990   -0.0651 N   0  0  0  0  0  0  0  0  0  0  0  0
   -2.5776    0.0769   -0.6078 H   0  0  0  0  0  0  0  0  0  0  0  0
   -0.5591    0.2919    0.0684 C   0  0  1  0  0  0  0  0  0  0  0  0
    0.1515   -0.2122   -0.5940 H   0  0  0  0  0  0  0  0  0  0  0  0
   -0.7793    1.7433   -0.4230 C   0  0  0  0  0  0  0  0  0  0  0  0
   -1.5869    2.1994    0.1587 H   0  0  0  0  0  0  0  0  0  0  0  0
    0.1198    2.3385   -0.2380 H   0  0  0  0  0  0  0  0  0  0  0  0
   -1.1071    1.8491   -1.9213 C   0  0  0  0  0  0  0  0  0  0  0  0
   -2.0283    1.3035   -2.1440 H   0  0  0  0  0  0  0  0  0  0  0  0
   -1.2790    2.8993   -2.1784 H   0  0  0  0  0  0  0  0  0  0  0  0
    0.2477    1.1903   -2.9776 S   0  0  0  0  0  0  0  0  0  0  0  0
    1.5946    2.4164   -2.7350 C   0  0  0  0  0  0  0  0  0  0  0  0
    1.9505    2.3949   -1.7006 H   0  0  0  0  0  0  0  0  0  0  0  0
    2.4356    2.1827   -3.3944 H   0  0  0  0  0  0  0  0  0  0  0  0
    1.2383    3.4244   -2.9658 H   0  0  0  0  0  0  0  0  0  0  0  0
    0.1487    0.3223    1.4576 C   0  0  0  0  0  0  0  0  0  0  0  0
    1.1711    0.9859    1.5895 O   0  0  0  0  0  0  0  0  0  0  0  0
   -0.3823   -0.2689    2.5888 N   0  0  0  0  0  0  0  0  0  0  0  0
   -1.0190   -1.0415    2.3891 H   0  0  0  0  0  0  0  0  0  0  0  0
    0.3162   -0.2879    3.8685 C   0  0  0  0  0  0  0  0  0  0  0  0
    0.4986    0.7323    4.2221 H   0  0  0  0  0  0  0  0  0  0  0  0
   -0.2868   -0.8082    4.6187 H   0  0  0  0  0  0  0  0  0  0  0  0
    1.2764   -0.8055    3.7738 H   0  0  0  0  0  0  0  0  0  0  0  0
  1  2  1  0  0  0  0
  2  3  1  0  0  0  0
  2  4  1  0  0  0  0
  2  5  1  0  0  0  0
  5  6  2  0  0  0  0
  5  7  1  0  0  0  0
  7  8  1  0  0  0  0
  7  9  1  0  0  0  0
  9 10  1  0  0  0  0
  9 11  1  0  0  0  0
  9 22  1  0  0  0  0
 11 12  1  0  0  0  0
 11 13  1  0  0  0  0
 11 14  1  0  0  0  0
 14 15  1  0  0  0  0
 14 16  1  0  0  0  0
 14 17  1  0  0  0  0
 17 18  1  0  0  0  0
 18 19  1  0  0  0  0
 18 20  1  0  0  0  0
 18 21  1  0  0  0  0
 22 23  2  0  0  0  0
 22 24  1  0  0  0  0
 24 25  1  0  0  0  0
 24 26  1  0  0  0  0
 26 27  1  0  0  0  0
 26 28  1  0  0  0  0
 26 29  1  0  0  0  0
M  END
$$$$

  -OEChem-01062216093D

 29 28  0     1  0  0  0  0  0999 V2000
   -3.7742   -3.1141    0.6615 H   0  0  0  0  0  0  0  0  0  0  0  0
   -3.6502   -2.1173    0.2288 C   0  0  0  0  0  0  0  0  0  0  0  0
   -4.3169   -1.4241    0.7475 H   0  0  0  0  0  0  0  0  0  0  0  0
   -3.9256   -2.1566   -0.8279 H   0  0  0  0  0  0  0  0  0  0  0  0
   -2.2109   -1.6598    0.3721 C   0  0  0  0  0  0  0  0  0  0  0  0
   -1.3858   -2.4173    0.8527 O   0  0  0  0  0  0  0  0  0  0  0  0
   -1.8515   -0.4108   -0.0939 N   0  0  0  0  0  0  0  0  0  0  0  0
   -2.6109    0.1278   -0.4975 H   0  0  0  0  0  0  0  0  0  0  0  0
   -0.5558    0.2945    0.0615 C   0  0  1  0  0  0  0  0  0  0  0  0
    0.1661   -0.2009   -0.5947 H   0  0  0  0  0  0  0  0  0  0  0  0
   -0.7906    1.7405   -0.4438 C   0  0  0  0  0  0  0  0  0  0  0  0
   -1.6143    2.1891    0.1209 H   0  0  0  0  0  0  0  0  0  0  0  0
    0.0955    2.3528   -0.2535 H   0  0  0  0  0  0  0  0  0  0  0  0
   -1.0932    1.8279   -1.9490 C   0  0  0  0  0  0  0  0  0  0  0  0
   -2.0002    1.2633   -2.1827 H   0  0  0  0  0  0  0  0  0  0  0  0
   -1.2800    2.8723   -2.2185 H   0  0  0  0  0  0  0  0  0  0  0  0
    0.2899    1.1834   -2.9773 S   0  0  0  0  0  0  0  0  0  0  0  0
    1.6125    2.4332   -2.7237 C   0  0  0  0  0  0  0  0  0  0  0  0
    1.9537    2.4243   -1.6841 H   0  0  0  0  0  0  0  0  0  0  0  0
    2.4666    2.2092   -3.3697 H   0  0  0  0  0  0  0  0  0  0  0  0
    1.2425    3.4336   -2.9663 H   0  0  0  0  0  0  0  0  0  0  0  0
    0.1410    0.3095    1.4602 C   0  0  0  0  0  0  0  0  0  0  0  0
    1.0070    1.1455    1.6933 O   0  0  0  0  0  0  0  0  0  0  0  0
   -0.2097   -0.5346    2.4969 N   0  0  0  0  0  0  0  0  0  0  0  0
   -0.7269   -1.3679    2.2110 H   0  0  0  0  0  0  0  0  0  0  0  0
    0.5071   -0.5823    3.7653 C   0  0  0  0  0  0  0  0  0  0  0  0
    0.4744    0.3931    4.2615 H   0  0  0  0  0  0  0  0  0  0  0  0
    0.0481   -1.3211    4.4291 H   0  0  0  0  0  0  0  0  0  0  0  0
    1.5538   -0.8615    3.6048 H   0  0  0  0  0  0  0  0  0  0  0  0
  1  2  1  0  0  0  0
  2  3  1  0  0  0  0
  2  4  1  0  0  0  0
  2  5  1  0  0  0  0
  5  6  2  0  0  0  0
  5  7  1  0  0  0  0
  7  8  1  0  0  0  0
  7  9  1  0  0  0  0
  9 10  1  0  0  0  0
  9 11  1  0  0  0  0
  9 22  1  0  0  0  0
 11 12  1  0  0  0  0
 11 13  1  0  0  0  0
 11 14  1  0  0  0  0
 14 15  1  0  0  0  0
 14 16  1  0  0  0  0
 14 17  1  0  0  0  0
 17 18  1  0  0  0  0
 18 19  1  0  0  0  0
 18 20  1  0  0  0  0
 18 21  1  0  0  0  0
 22 23  2  0  0  0  0
 22 24  1  0  0  0  0
 24 25  1  0  0  0  0
 24 26  1  0  0  0  0
 26 27  1  0  0  0  0
 26 28  1  0  0  0  0
 26 29  1  0  0  0  0
M  END
$$$$

  -OEChem-01062216093D

 29 28  0     1  0  0  0  0  0999 V2000
   -3.8118   -3.0439    0.7593 H   0  0  0  0  0  0  0  0  0  0  0  0
   -3.6829   -2.0459    0.3308 C   0  0  0  0  0  0  0  0  0  0  0  0
   -4.2801   -1.3366    0.9089 H   0  0  0  0  0  0  0  0  0  0  0  0
   -4.0405   -2.0577   -0.7017 H   0  0  0  0  0  0  0  0  0  0  0  0
   -2.2201   -1.6456    0.3675 C   0  0  0  0  0  0  0  0  0  0  0  0
   -1.3859   -2.4577    0.7295 O   0  0  0  0  0  0  0  0  0  0  0  0
   -1.8528   -0.3957   -0.0902 N   0  0  0  0  0  0  0  0  0  0  0  0
   -2.6269    0.1840   -0.3972 H   0  0  0  0  0  0  0  0  0  0  0  0
   -0.5447    0.2897    0.0489 C   0  0  1  0  0  0  0  0  0  0  0  0
    0.1591   -0.2128   -0.6214 H   0  0  0  0  0  0  0  0  0  0  0  0
   -0.7654    1.7401   -0.4522 C   0  0  0  0  0  0  0  0  0  0  0  0
   -1.5729    2.2008    0.1259 H   0  0  0  0  0  0  0  0  0  0  0  0
    0.1336    2.3376   -0.2758 H   0  0  0  0  0  0  0  0  0  0  0  0
   -1.0872    1.8349   -1.9528 C   0  0  0  0  0  0  0  0  0  0  0  0
   -2.0054    1.2835   -2.1742 H   0  0  0  0  0  0  0  0  0  0  0  0
   -1.2629    2.8824   -2.2175 H   0  0  0  0  0  0  0  0  0  0  0  0
    0.2715    1.1728   -3.0026 S   0  0  0  0  0  0  0  0  0  0  0  0
    1.6175    2.4016   -2.7672 C   0  0  0  0  0  0  0  0  0  0  0  0
    1.9687    2.3917   -1.7312 H   0  0  0  0  0  0  0  0  0  0  0  0
    2.4614    2.1609   -3.4205 H   0  0  0  0  0  0  0  0  0  0  0  0
    1.2624    3.4072   -3.0105 H   0  0  0  0  0  0  0  0  0  0  0  0
    0.1710    0.2724    1.4402 C   0  0  0  0  0  0  0  0  0  0  0  0
    0.8675    1.2215    1.7823 O   0  0  0  0  0  0  0  0  0  0  0  0
    0.0381   -0.7556    2.3533 N   0  0  0  0  0  0  0  0  0  0  0  0
   -0.4069   -1.6060    2.0012 H   0  0  0  0  0  0  0  0  0  0  0  0
    0.7657   -0.8241    3.6144 C   0  0  0  0  0  0  0  0  0  0  0  0
    0.5387    0.0478    4.2367 H   0  0  0  0  0  0  0  0  0  0  0  0
    0.4785   -1.7243    4.1659 H   0  0  0  0  0  0  0  0  0  0  0  0
    1.8449   -0.8574    3.4328 H   0  0  0  0  0  0  0  0  0  0  0  0
  1  2  1  0  0  0  0
  2  3  1  0  0  0  0
  2  4  1  0  0  0  0
  2  5  1  0  0  0  0
  5  6  2  0  0  0  0
  5  7  1  0  0  0  0
  7  8  1  0  0  0  0
  7  9  1  0  0  0  0
  9 10  1  0  0  0  0
  9 11  1  0  0  0  0
  9 22  1  0  0  0  0
 11 12  1  0  0  0  0
 11 13  1  0  0  0  0
 11 14  1  0  0  0  0
 14 15  1  0  0  0  0
 14 16  1  0  0  0  0
 14 17  1  0  0  0  0
 17 18  1  0  0  0  0
 18 19  1  0  0  0  0
 18 20  1  0  0  0  0
 18 21  1  0  0  0  0
 22 23  2  0  0  0  0
 22 24  1  0  0  0  0
 24 25  1  0  0  0  0
 24 26  1  0  0  0  0
 26 27  1  0  0  0  0
 26 28  1  0  0  0  0
 26 29  1  0  0  0  0
M  END
$$$$

  -OEChem-01062216093D

 29 28  0     1  0  0  0  0  0999 V2000
   -3.6985   -3.1069    0.7803 H   0  0  0  0  0  0  0  0  0  0  0  0
   -3.6064   -2.0972    0.3700 C   0  0  0  0  0  0  0  0  0  0  0  0
   -4.1809   -1.4107    0.9966 H   0  0  0  0  0  0  0  0  0  0  0  0
   -4.0189   -2.0900   -0.6420 H   0  0  0  0  0  0  0  0  0  0  0  0
   -2.1492   -1.6765    0.3385 C   0  0  0  0  0  0  0  0  0  0  0  0
   -1.2848   -2.4881    0.6237 O   0  0  0  0  0  0  0  0  0  0  0  0
   -1.8219   -0.4118   -0.1093 N   0  0  0  0  0  0  0  0  0  0  0  0
   -2.6211    0.1690   -0.3411 H   0  0  0  0  0  0  0  0  0  0  0  0
   -0.5284    0.2986    0.0319 C   0  0  1  0  0  0  0  0  0  0  0  0
    0.1837   -0.1871   -0.6417 H   0  0  0  0  0  0  0  0  0  0  0  0
   -0.7625    1.7489   -0.4601 C   0  0  0  0  0  0  0  0  0  0  0  0
   -1.5757    2.1992    0.1181 H   0  0  0  0  0  0  0  0  0  0  0  0
    0.1324    2.3506   -0.2756 H   0  0  0  0  0  0  0  0  0  0  0  0
   -1.0811    1.8477   -1.9609 C   0  0  0  0  0  0  0  0  0  0  0  0
   -1.9928    1.2868   -2.1857 H   0  0  0  0  0  0  0  0  0  0  0  0
   -1.2675    2.8945   -2.2214 H   0  0  0  0  0  0  0  0  0  0  0  0
    0.2868    1.2057   -3.0117 S   0  0  0  0  0  0  0  0  0  0  0  0
    1.6178    2.4483   -2.7662 C   0  0  0  0  0  0  0  0  0  0  0  0
    1.9617    2.4427   -1.7277 H   0  0  0  0  0  0  0  0  0  0  0  0
    2.4687    2.2168   -3.4136 H   0  0  0  0  0  0  0  0  0  0  0  0
    1.2531    3.4497   -3.0126 H   0  0  0  0  0  0  0  0  0  0  0  0
    0.1795    0.2673    1.4255 C   0  0  0  0  0  0  0  0  0  0  0  0
    0.6262    1.2982    1.9163 O   0  0  0  0  0  0  0  0  0  0  0  0
    0.3075   -0.8832    2.1780 N   0  0  0  0  0  0  0  0  0  0  0  0
   -0.0587   -1.7422    1.7602 H   0  0  0  0  0  0  0  0  0  0  0  0
    0.9635   -0.9516    3.4775 C   0  0  0  0  0  0  0  0  0  0  0  0
    0.4576   -0.2995    4.1970 H   0  0  0  0  0  0  0  0  0  0  0  0
    0.9347   -1.9763    3.8600 H   0  0  0  0  0  0  0  0  0  0  0  0
    2.0107   -0.6424    3.3947 H   0  0  0  0  0  0  0  0  0  0  0  0
  1  2  1  0  0  0  0
  2  3  1  0  0  0  0
  2  4  1  0  0  0  0
  2  5  1  0  0  0  0
  5  6  2  0  0  0  0
  5  7  1  0  0  0  0
  7  8  1  0  0  0  0
  7  9  1  0  0  0  0
  9 10  1  0  0  0  0
  9 11  1  0  0  0  0
  9 22  1  0  0  0  0
 11 12  1  0  0  0  0
 11 13  1  0  0  0  0
 11 14  1  0  0  0  0
 14 15  1  0  0  0  0
 14 16  1  0  0  0  0
 14 17  1  0  0  0  0
 17 18  1  0  0  0  0
 18 19  1  0  0  0  0
 18 20  1  0  0  0  0
 18 21  1  0  0  0  0
 22 23  2  0  0  0  0
 22 24  1  0  0  0  0
 24 25  1  0  0  0  0
 24 26  1  0  0  0  0
 26 27  1  0  0  0  0
 26 28  1  0  0  0  0
 26 29  1  0  0  0  0
M  END
$$$$

  -OEChem-01062216093D

 29 28  0     1  0  0  0  0  0999 V2000
   -3.6079   -3.1179    0.8631 H   0  0  0  0  0  0  0  0  0  0  0  0
   -3.5446   -2.1060    0.4529 C   0  0  0  0  0  0  0  0  0  0  0  0
   -4.0990   -1.4277    1.1060 H   0  0  0  0  0  0  0  0  0  0  0  0
   -4.0001   -2.1001   -0.5404 H   0  0  0  0  0  0  0  0  0  0  0  0
   -2.0949   -1.6694    0.3602 C   0  0  0  0  0  0  0  0  0  0  0  0
   -1.2099   -2.4703    0.6113 O   0  0  0  0  0  0  0  0  0  0  0  0
   -1.7980   -0.4028   -0.1036 N   0  0  0  0  0  0  0  0  0  0  0  0
   -2.6092    0.1783   -0.2880 H   0  0  0  0  0  0  0  0  0  0  0  0
   -0.5039    0.3078    0.0093 C   0  0  1  0  0  0  0  0  0  0  0  0
    0.1969   -0.1755   -0.6778 H   0  0  0  0  0  0  0  0  0  0  0  0
   -0.7310    1.7631   -0.4656 C   0  0  0  0  0  0  0  0  0  0  0  0
   -1.5290    2.2166    0.1312 H   0  0  0  0  0  0  0  0  0  0  0  0
    0.1755    2.3499   -0.2867 H   0  0  0  0  0  0  0  0  0  0  0  0
   -1.0789    1.8788   -1.9582 C   0  0  0  0  0  0  0  0  0  0  0  0
   -2.0016    1.3300   -2.1685 H   0  0  0  0  0  0  0  0  0  0  0  0
   -1.2592    2.9300   -2.2053 H   0  0  0  0  0  0  0  0  0  0  0  0
    0.2602    1.2301   -3.0419 S   0  0  0  0  0  0  0  0  0  0  0  0
    1.6126    2.4529   -2.8157 C   0  0  0  0  0  0  0  0  0  0  0  0
    1.9764    2.4364   -1.7843 H   0  0  0  0  0  0  0  0  0  0  0  0
    2.4474    2.2127   -3.4809 H   0  0  0  0  0  0  0  0  0  0  0  0
    1.2576    3.4608   -3.0495 H   0  0  0  0  0  0  0  0  0  0  0  0
    0.2121    0.2638    1.3947 C   0  0  0  0  0  0  0  0  0  0  0  0
    0.4356    1.2988    2.0132 O   0  0  0  0  0  0  0  0  0  0  0  0
    0.6008   -0.9235    1.9819 N   0  0  0  0  0  0  0  0  0  0  0  0
    0.2580   -1.7755    1.5298 H   0  0  0  0  0  0  0  0  0  0  0  0
    1.1827   -1.0225    3.3141 C   0  0  0  0  0  0  0  0  0  0  0  0
    0.4753   -0.6652    4.0694 H   0  0  0  0  0  0  0  0  0  0  0  0
    1.4339   -2.0637    3.5374 H   0  0  0  0  0  0  0  0  0  0  0  0
    2.0987   -0.4259    3.3779 H   0  0  0  0  0  0  0  0  0  0  0  0
  1  2  1  0  0  0  0
  2  3  1  0  0  0  0
  2  4  1  0  0  0  0
  2  5  1  0  0  0  0
  5  6  2  0  0  0  0
  5  7  1  0  0  0  0
  7  8  1  0  0  0  0
  7  9  1  0  0  0  0
  9 10  1  0  0  0  0
  9 11  1  0  0  0  0
  9 22  1  0  0  0  0
 11 12  1  0  0  0  0
 11 13  1  0  0  0  0
 11 14  1  0  0  0  0
 14 15  1  0  0  0  0
 14 16  1  0  0  0  0
 14 17  1  0  0  0  0
 17 18  1  0  0  0  0
 18 19  1  0  0  0  0
 18 20  1  0  0  0  0
 18 21  1  0  0  0  0
 22 23  2  0  0  0  0
 22 24  1  0  0  0  0
 24 25  1  0  0  0  0
 24 26  1  0  0  0  0
 26 27  1  0  0  0  0
 26 28  1  0  0  0  0
 26 29  1  0  0  0  0
M  END
$$$$

  -OEChem-01062216093D

 29 28  0     1  0  0  0  0  0999 V2000
   -3.5012   -3.1317    0.9492 H   0  0  0  0  0  0  0  0  0  0  0  0
   -3.4730   -2.1241    0.5245 C   0  0  0  0  0  0  0  0  0  0  0  0
   -4.0216   -1.4494    1.1862 H   0  0  0  0  0  0  0  0  0  0  0  0
   -3.9595   -2.1408   -0.4538 H   0  0  0  0  0  0  0  0  0  0  0  0
   -2.0366   -1.6574    0.3818 C   0  0  0  0  0  0  0  0  0  0  0  0
   -1.1232   -2.4278    0.6305 O   0  0  0  0  0  0  0  0  0  0  0  0
   -1.7766   -0.3938   -0.1112 N   0  0  0  0  0  0  0  0  0  0  0  0
   -2.5984    0.1814   -0.2652 H   0  0  0  0  0  0  0  0  0  0  0  0
   -0.4849    0.3191   -0.0146 C   0  0  1  0  0  0  0  0  0  0  0  0
    0.2168   -0.1613   -0.7032 H   0  0  0  0  0  0  0  0  0  0  0  0
   -0.7085    1.7772   -0.4771 C   0  0  0  0  0  0  0  0  0  0  0  0
   -1.5004    2.2301    0.1287 H   0  0  0  0  0  0  0  0  0  0  0  0
    0.2033    2.3554   -0.2967 H   0  0  0  0  0  0  0  0  0  0  0  0
   -1.0729    1.9037   -1.9645 C   0  0  0  0  0  0  0  0  0  0  0  0
   -2.0003    1.3600   -2.1665 H   0  0  0  0  0  0  0  0  0  0  0  0
   -1.2509    2.9569   -2.2036 H   0  0  0  0  0  0  0  0  0  0  0  0
    0.2496    1.2541   -3.0677 S   0  0  0  0  0  0  0  0  0  0  0  0
    1.6101    2.4692   -2.8490 C   0  0  0  0  0  0  0  0  0  0  0  0
    1.9838    2.4465   -1.8213 H   0  0  0  0  0  0  0  0  0  0  0  0
    2.4370    2.2283   -3.5236 H   0  0  0  0  0  0  0  0  0  0  0  0
    1.2573    3.4798   -3.0749 H   0  0  0  0  0  0  0  0  0  0  0  0
    0.2102    0.2730    1.3770 C   0  0  0  0  0  0  0  0  0  0  0  0
    0.2266    1.2639    2.0995 O   0  0  0  0  0  0  0  0  0  0  0  0
    0.8470   -0.8706    1.8170 N   0  0  0  0  0  0  0  0  0  0  0  0
    0.5687   -1.7245    1.3260 H   0  0  0  0  0  0  0  0  0  0  0  0
    1.4059   -1.0037    3.1562 C   0  0  0  0  0  0  0  0  0  0  0  0
    0.6170   -0.9173    3.9107 H   0  0  0  0  0  0  0  0  0  0  0  0
    1.8889   -1.9794    3.2666 H   0  0  0  0  0  0  0  0  0  0  0  0
    2.1560   -0.2270    3.3390 H   0  0  0  0  0  0  0  0  0  0  0  0
  1  2  1  0  0  0  0
  2  3  1  0  0  0  0
  2  4  1  0  0  0  0
  2  5  1  0  0  0  0
  5  6  2  0  0  0  0
  5  7  1  0  0  0  0
  7  8  1  0  0  0  0
  7  9  1  0  0  0  0
  9 10  1  0  0  0  0
  9 11  1  0  0  0  0
  9 22  1  0  0  0  0
 11 12  1  0  0  0  0
 11 13  1  0  0  0  0
 11 14  1  0  0  0  0
 14 15  1  0  0  0  0
 14 16  1  0  0  0  0
 14 17  1  0  0  0  0
 17 18  1  0  0  0  0
 18 19  1  0  0  0  0
 18 20  1  0  0  0  0
 18 21  1  0  0  0  0
 22 23  2  0  0  0  0
 22 24  1  0  0  0  0
 24 25  1  0  0  0  0
 24 26  1  0  0  0  0
 26 27  1  0  0  0  0
 26 28  1  0  0  0  0
 26 29  1  0  0  0  0
M  END
$$$$

  -OEChem-01062216093D

 29 28  0     1  0  0  0  0  0999 V2000
   -3.4010   -3.1448    1.0146 H   0  0  0  0  0  0  0  0  0  0  0  0
   -3.4075   -2.1403    0.5817 C   0  0  0  0  0  0  0  0  0  0  0  0
   -3.9526   -1.4723    1.2529 H   0  0  0  0  0  0  0  0  0  0  0  0
   -3.9195   -2.1758   -0.3830 H   0  0  0  0  0  0  0  0  0  0  0  0
   -1.9868   -1.6425    0.3966 C   0  0  0  0  0  0  0  0  0  0  0  0
   -1.0458   -2.3799    0.6467 O   0  0  0  0  0  0  0  0  0  0  0  0
   -1.7651   -0.3831   -0.1255 N   0  0  0  0  0  0  0  0  0  0  0  0
   -2.5962    0.1866   -0.2467 H   0  0  0  0  0  0  0  0  0  0  0  0
   -0.4767    0.3311   -0.0372 C   0  0  1  0  0  0  0  0  0  0  0  0
    0.2298   -0.1463   -0.7229 H   0  0  0  0  0  0  0  0  0  0  0  0
   -0.6951    1.7919   -0.4883 C   0  0  0  0  0  0  0  0  0  0  0  0
   -1.4836    2.2442    0.1224 H   0  0  0  0  0  0  0  0  0  0  0  0
    0.2199    2.3635   -0.3042 H   0  0  0  0  0  0  0  0  0  0  0  0
   -1.0684    1.9271   -1.9726 C   0  0  0  0  0  0  0  0  0  0  0  0
   -1.9995    1.3879   -2.1704 H   0  0  0  0  0  0  0  0  0  0  0  0
   -1.2441    2.9819   -2.2060 H   0  0  0  0  0  0  0  0  0  0  0  0
    0.2436    1.2762   -3.0874 S   0  0  0  0  0  0  0  0  0  0  0  0
    1.6122    2.4828   -2.8728 C   0  0  0  0  0  0  0  0  0  0  0  0
    1.9933    2.4534   -1.8481 H   0  0  0  0  0  0  0  0  0  0  0  0
    2.4328    2.2407   -3.5547 H   0  0  0  0  0  0  0  0  0  0  0  0
    1.2635    3.4963   -3.0916 H   0  0  0  0  0  0  0  0  0  0  0  0
    0.1866    0.2819    1.3656 C   0  0  0  0  0  0  0  0  0  0  0  0
   -0.0055    1.1813    2.1770 O   0  0  0  0  0  0  0  0  0  0  0  0
    1.0577   -0.7409    1.6865 N   0  0  0  0  0  0  0  0  0  0  0  0
    0.9147   -1.5899    1.1368 H   0  0  0  0  0  0  0  0  0  0  0  0
    1.6240   -0.8924    3.0205 C   0  0  0  0  0  0  0  0  0  0  0  0
    0.8306   -1.0587    3.7566 H   0  0  0  0  0  0  0  0  0  0  0  0
    2.3062   -1.7475    3.0445 H   0  0  0  0  0  0  0  0  0  0  0  0
    2.1864    0.0034    3.3040 H   0  0  0  0  0  0  0  0  0  0  0  0
  1  2  1  0  0  0  0
  2  3  1  0  0  0  0
  2  4  1  0  0  0  0
  2  5  1  0  0  0  0
  5  6  2  0  0  0  0
  5  7  1  0  0  0  0
  7  8  1  0  0  0  0
  7  9  1  0  0  0  0
  9 10  1  0  0  0  0
  9 11  1  0  0  0  0
  9 22  1  0  0  0  0
 11 12  1  0  0  0  0
 11 13  1  0  0  0  0
 11 14  1  0  0  0  0
 14 15  1  0  0  0  0
 14 16  1  0  0  0  0
 14 17  1  0  0  0  0
 17 18  1  0  0  0  0
 18 19  1  0  0  0  0
 18 20  1  0  0  0  0
 18 21  1  0  0  0  0
 22 23  2  0  0  0  0
 22 24  1  0  0  0  0
 24 25  1  0  0  0  0
 24 26  1  0  0  0  0
 26 27  1  0  0  0  0
 26 28  1  0  0  0  0
 26 29  1  0  0  0  0
M  END
$$$$

  -OEChem-01062216093D

 29 28  0     1  0  0  0  0  0999 V2000
   -3.3343   -3.1432    1.0797 H   0  0  0  0  0  0  0  0  0  0  0  0
   -3.3659   -2.1477    0.6278 C   0  0  0  0  0  0  0  0  0  0  0  0
   -3.9045   -1.4749    1.2995 H   0  0  0  0  0  0  0  0  0  0  0  0
   -3.9001   -2.2091   -0.3235 H   0  0  0  0  0  0  0  0  0  0  0  0
   -1.9575   -1.6333    0.3988 C   0  0  0  0  0  0  0  0  0  0  0  0
   -0.9982   -2.3507    0.6393 O   0  0  0  0  0  0  0  0  0  0  0  0
   -1.7636   -0.3779   -0.1438 N   0  0  0  0  0  0  0  0  0  0  0  0
   -2.5998    0.1915   -0.2231 H   0  0  0  0  0  0  0  0  0  0  0  0
   -0.4768    0.3367   -0.0597 C   0  0  1  0  0  0  0  0  0  0  0  0
    0.2303   -0.1412   -0.7445 H   0  0  0  0  0  0  0  0  0  0  0  0
   -0.6872    1.8007   -0.4987 C   0  0  0  0  0  0  0  0  0  0  0  0
   -1.4721    2.2528    0.1171 H   0  0  0  0  0  0  0  0  0  0  0  0
    0.2314    2.3654   -0.3120 H   0  0  0  0  0  0  0  0  0  0  0  0
   -1.0652    1.9462   -1.9805 C   0  0  0  0  0  0  0  0  0  0  0  0
   -2.0001    1.4128   -2.1765 H   0  0  0  0  0  0  0  0  0  0  0  0
   -1.2359    3.0034   -2.2076 H   0  0  0  0  0  0  0  0  0  0  0  0
    0.2389    1.2939   -3.1045 S   0  0  0  0  0  0  0  0  0  0  0  0
    1.6146    2.4923   -2.8881 C   0  0  0  0  0  0  0  0  0  0  0  0
    1.9982    2.4564   -1.8646 H   0  0  0  0  0  0  0  0  0  0  0  0
    2.4321    2.2497   -3.5736 H   0  0  0  0  0  0  0  0  0  0  0  0
    1.2698    3.5084   -3.1015 H   0  0  0  0  0  0  0  0  0  0  0  0
    0.1667    0.2884    1.3494 C   0  0  0  0  0  0  0  0  0  0  0  0
   -0.2332    1.0378    2.2341 O   0  0  0  0  0  0  0  0  0  0  0  0
    1.2494   -0.5355    1.5910 N   0  0  0  0  0  0  0  0  0  0  0  0
    1.3351   -1.3182    0.9448 H   0  0  0  0  0  0  0  0  0  0  0  0
    1.8168   -0.6969    2.9239 C   0  0  0  0  0  0  0  0  0  0  0  0
    1.0720   -1.1168    3.6084 H   0  0  0  0  0  0  0  0  0  0  0  0
    2.6766   -1.3727    2.8884 H   0  0  0  0  0  0  0  0  0  0  0  0
    2.1548    0.2674    3.3180 H   0  0  0  0  0  0  0  0  0  0  0  0
  1  2  1  0  0  0  0
  2  3  1  0  0  0  0
  2  4  1  0  0  0  0
  2  5  1  0  0  0  0
  5  6  2  0  0  0  0
  5  7  1  0  0  0  0
  7  8  1  0  0  0  0
  7  9  1  0  0  0  0
  9 10  1  0  0  0  0
  9 11  1  0  0  0  0
  9 22  1  0  0  0  0
 11 12  1  0  0  0  0
 11 13  1  0  0  0  0
 11 14  1  0  0  0  0
 14 15  1  0  0  0  0
 14 16  1  0  0  0  0
 14 17  1  0  0  0  0
 17 18  1  0  0  0  0
 18 19  1  0  0  0  0
 18 20  1  0  0  0  0
 18 21  1  0  0  0  0
 22 23  2  0  0  0  0
 22 24  1  0  0  0  0
 24 25  1  0  0  0  0
 24 26  1  0  0  0  0
 26 27  1  0  0  0  0
 26 28  1  0  0  0  0
 26 29  1  0  0  0  0
M  END
$$$$

  -OEChem-01062216093D

 29 28  0     1  0  0  0  0  0999 V2000
   -3.3089   -3.1319    1.1301 H   0  0  0  0  0  0  0  0  0  0  0  0
   -3.3528   -2.1469    0.6568 C   0  0  0  0  0  0  0  0  0  0  0  0
   -3.8790   -1.4600    1.3244 H   0  0  0  0  0  0  0  0  0  0  0  0
   -3.9059   -2.2310   -0.2818 H   0  0  0  0  0  0  0  0  0  0  0  0
   -1.9508   -1.6350    0.3881 C   0  0  0  0  0  0  0  0  0  0  0  0
   -0.9853   -2.3493    0.6123 O   0  0  0  0  0  0  0  0  0  0  0  0
   -1.7696   -0.3823   -0.1653 N   0  0  0  0  0  0  0  0  0  0  0  0
   -2.6072    0.1886   -0.2120 H   0  0  0  0  0  0  0  0  0  0  0  0
   -0.4840    0.3325   -0.0759 C   0  0  1  0  0  0  0  0  0  0  0  0
    0.2250   -0.1468   -0.7576 H   0  0  0  0  0  0  0  0  0  0  0  0
   -0.6888    1.7988   -0.5057 C   0  0  0  0  0  0  0  0  0  0  0  0
   -1.4745    2.2483    0.1106 H   0  0  0  0  0  0  0  0  0  0  0  0
    0.2304    2.3605   -0.3124 H   0  0  0  0  0  0  0  0  0  0  0  0
   -1.0627    1.9537   -1.9874 C   0  0  0  0  0  0  0  0  0  0  0  0
   -1.9979    1.4226   -2.1891 H   0  0  0  0  0  0  0  0  0  0  0  0
   -1.2312    3.0120   -2.2104 H   0  0  0  0  0  0  0  0  0  0  0  0
    0.2442    1.3030   -3.1087 S   0  0  0  0  0  0  0  0  0  0  0  0
    1.6222    2.4964   -2.8806 C   0  0  0  0  0  0  0  0  0  0  0  0
    2.0070    2.4484   -1.8581 H   0  0  0  0  0  0  0  0  0  0  0  0
    2.4381    2.2594   -3.5699 H   0  0  0  0  0  0  0  0  0  0  0  0
    1.2795    3.5157   -3.0821 H   0  0  0  0  0  0  0  0  0  0  0  0
    0.1469    0.2898    1.3372 C   0  0  0  0  0  0  0  0  0  0  0  0
   -0.4145    0.8531    2.2710 O   0  0  0  0  0  0  0  0  0  0  0  0
    1.3930   -0.2768    1.5291 N   0  0  0  0  0  0  0  0  0  0  0  0
    1.6983   -0.9162    0.7998 H   0  0  0  0  0  0  0  0  0  0  0  0
    1.9859   -0.4198    2.8526 C   0  0  0  0  0  0  0  0  0  0  0  0
    1.3563   -1.0521    3.4874 H   0  0  0  0  0  0  0  0  0  0  0  0
    2.9754   -0.8804    2.7752 H   0  0  0  0  0  0  0  0  0  0  0  0
    2.0987    0.5588    3.3311 H   0  0  0  0  0  0  0  0  0  0  0  0
  1  2  1  0  0  0  0
  2  3  1  0  0  0  0
  2  4  1  0  0  0  0
  2  5  1  0  0  0  0
  5  6  2  0  0  0  0
  5  7  1  0  0  0  0
  7  8  1  0  0  0  0
  7  9  1  0  0  0  0
  9 10  1  0  0  0  0
  9 11  1  0  0  0  0
  9 22  1  0  0  0  0
 11 12  1  0  0  0  0
 11 13  1  0  0  0  0
 11 14  1  0  0  0  0
 14 15  1  0  0  0  0
 14 16  1  0  0  0  0
 14 17  1  0  0  0  0
 17 18  1  0  0  0  0
 18 19  1  0  0  0  0
 18 20  1  0  0  0  0
 18 21  1  0  0  0  0
 22 23  2  0  0  0  0
 22 24  1  0  0  0  0
 24 25  1  0  0  0  0
 24 26  1  0  0  0  0
 26 27  1  0  0  0  0
 26 28  1  0  0  0  0
 26 29  1  0  0  0  0
M  END
$$$$

  -OEChem-01062216093D

 29 28  0     1  0  0  0  0  0999 V2000
   -3.2950   -3.1432    1.1235 H   0  0  0  0  0  0  0  0  0  0  0  0
   -3.3448   -2.1424    0.6856 C   0  0  0  0  0  0  0  0  0  0  0  0
   -3.8290   -1.4713    1.3993 H   0  0  0  0  0  0  0  0  0  0  0  0
   -3.9410   -2.1864   -0.2289 H   0  0  0  0  0  0  0  0  0  0  0  0
   -1.9483   -1.6411    0.3718 C   0  0  0  0  0  0  0  0  0  0  0  0
   -0.9809   -2.3608    0.5692 O   0  0  0  0  0  0  0  0  0  0  0  0
   -1.7742   -0.3906   -0.1898 N   0  0  0  0  0  0  0  0  0  0  0  0
   -2.6108    0.1832   -0.2036 H   0  0  0  0  0  0  0  0  0  0  0  0
   -0.4885    0.3236   -0.0902 C   0  0  1  0  0  0  0  0  0  0  0  0
    0.2254   -0.1573   -0.7653 H   0  0  0  0  0  0  0  0  0  0  0  0
   -0.6915    1.7913   -0.5136 C   0  0  0  0  0  0  0  0  0  0  0  0
   -1.4803    2.2366    0.1019 H   0  0  0  0  0  0  0  0  0  0  0  0
    0.2264    2.3523   -0.3136 H   0  0  0  0  0  0  0  0  0  0  0  0
   -1.0582    1.9539   -1.9961 C   0  0  0  0  0  0  0  0  0  0  0  0
   -1.9927    1.4241   -2.2051 H   0  0  0  0  0  0  0  0  0  0  0  0
   -1.2255    3.0136   -2.2144 H   0  0  0  0  0  0  0  0  0  0  0  0
    0.2548    1.3094   -3.1141 S   0  0  0  0  0  0  0  0  0  0  0  0
    1.6321    2.5011   -2.8742 C   0  0  0  0  0  0  0  0  0  0  0  0
    2.0099    2.4519   -1.8492 H   0  0  0  0  0  0  0  0  0  0  0  0
    2.4529    2.2649   -3.5580 H   0  0  0  0  0  0  0  0  0  0  0  0
    1.2909    3.5206   -3.0771 H   0  0  0  0  0  0  0  0  0  0  0  0
    0.1296    0.2877    1.3284 C   0  0  0  0  0  0  0  0  0  0  0  0
   -0.5401    0.6492    2.2906 O   0  0  0  0  0  0  0  0  0  0  0  0
    1.4740    0.0137    1.4989 N   0  0  0  0  0  0  0  0  0  0  0  0
    1.9410   -0.4341    0.7155 H   0  0  0  0  0  0  0  0  0  0  0  0
    2.0854   -0.0944    2.8177 C   0  0  0  0  0  0  0  0  0  0  0  0
    1.6192   -0.9037    3.3898 H   0  0  0  0  0  0  0  0  0  0  0  0
    3.1545   -0.3072    2.7223 H   0  0  0  0  0  0  0  0  0  0  0  0
    1.9696    0.8419    3.3737 H   0  0  0  0  0  0  0  0  0  0  0  0
  1  2  1  0  0  0  0
  2  3  1  0  0  0  0
  2  4  1  0  0  0  0
  2  5  1  0  0  0  0
  5  6  2  0  0  0  0
  5  7  1  0  0  0  0
  7  8  1  0  0  0  0
  7  9  1  0  0  0  0
  9 10  1  0  0  0  0
  9 11  1  0  0  0  0
  9 22  1  0  0  0  0
 11 12  1  0  0  0  0
 11 13  1  0  0  0  0
 11 14  1  0  0  0  0
 14 15  1  0  0  0  0
 14 16  1  0  0  0  0
 14 17  1  0  0  0  0
 17 18  1  0  0  0  0
 18 19  1  0  0  0  0
 18 20  1  0  0  0  0
 18 21  1  0  0  0  0
 22 23  2  0  0  0  0
 22 24  1  0  0  0  0
 24 25  1  0  0  0  0
 24 26  1  0  0  0  0
 26 27  1  0  0  0  0
 26 28  1  0  0  0  0
 26 29  1  0  0  0  0
M  END
$$$$

  -OEChem-01062216093D

 29 28  0     1  0  0  0  0  0999 V2000
   -3.3029   -3.1339    1.1411 H   0  0  0  0  0  0  0  0  0  0  0  0
   -3.3528   -2.1378    0.6926 C   0  0  0  0  0  0  0  0  0  0  0  0
   -3.8202   -1.4552    1.4064 H   0  0  0  0  0  0  0  0  0  0  0  0
   -3.9638   -2.1871   -0.2116 H   0  0  0  0  0  0  0  0  0  0  0  0
   -1.9580   -1.6502    0.3510 C   0  0  0  0  0  0  0  0  0  0  0  0
   -0.9954   -2.3849    0.5137 O   0  0  0  0  0  0  0  0  0  0  0  0
   -1.7820   -0.3982   -0.2067 N   0  0  0  0  0  0  0  0  0  0  0  0
   -2.6156    0.1796   -0.1970 H   0  0  0  0  0  0  0  0  0  0  0  0
   -0.4943    0.3111   -0.0923 C   0  0  1  0  0  0  0  0  0  0  0  0
    0.2234   -0.1704   -0.7634 H   0  0  0  0  0  0  0  0  0  0  0  0
   -0.6975    1.7803   -0.5108 C   0  0  0  0  0  0  0  0  0  0  0  0
   -1.4914    2.2214    0.1011 H   0  0  0  0  0  0  0  0  0  0  0  0
    0.2174    2.3437   -0.3043 H   0  0  0  0  0  0  0  0  0  0  0  0
   -1.0540    1.9462   -1.9955 C   0  0  0  0  0  0  0  0  0  0  0  0
   -1.9848    1.4134   -2.2132 H   0  0  0  0  0  0  0  0  0  0  0  0
   -1.2240    3.0056   -2.2127 H   0  0  0  0  0  0  0  0  0  0  0  0
    0.2701    1.3079   -3.1038 S   0  0  0  0  0  0  0  0  0  0  0  0
    1.6417    2.5033   -2.8492 C   0  0  0  0  0  0  0  0  0  0  0  0
    2.0151    2.4483   -1.8229 H   0  0  0  0  0  0  0  0  0  0  0  0
    2.4666    2.2756   -3.5309 H   0  0  0  0  0  0  0  0  0  0  0  0
    1.2969    3.5227   -3.0463 H   0  0  0  0  0  0  0  0  0  0  0  0
    0.1203    0.2747    1.3287 C   0  0  0  0  0  0  0  0  0  0  0  0
   -0.5995    0.4346    2.3093 O   0  0  0  0  0  0  0  0  0  0  0  0
    1.4935    0.3076    1.4914 N   0  0  0  0  0  0  0  0  0  0  0  0
    2.0530    0.0733    0.6765 H   0  0  0  0  0  0  0  0  0  0  0  0
    2.1279    0.2692    2.8035 C   0  0  0  0  0  0  0  0  0  0  0  0
    1.8436   -0.6429    3.3391 H   0  0  0  0  0  0  0  0  0  0  0  0
    3.2167    0.2843    2.6971 H   0  0  0  0  0  0  0  0  0  0  0  0
    1.8283    1.1366    3.4010 H   0  0  0  0  0  0  0  0  0  0  0  0
  1  2  1  0  0  0  0
  2  3  1  0  0  0  0
  2  4  1  0  0  0  0
  2  5  1  0  0  0  0
  5  6  2  0  0  0  0
  5  7  1  0  0  0  0
  7  8  1  0  0  0  0
  7  9  1  0  0  0  0
  9 10  1  0  0  0  0
  9 11  1  0  0  0  0
  9 22  1  0  0  0  0
 11 12  1  0  0  0  0
 11 13  1  0  0  0  0
 11 14  1  0  0  0  0
 14 15  1  0  0  0  0
 14 16  1  0  0  0  0
 14 17  1  0  0  0  0
 17 18  1  0  0  0  0
 18 19  1  0  0  0  0
 18 20  1  0  0  0  0
 18 21  1  0  0  0  0
 22 23  2  0  0  0  0
 22 24  1  0  0  0  0
 24 25  1  0  0  0  0
 24 26  1  0  0  0  0
 26 27  1  0  0  0  0
 26 28  1  0  0  0  0
 26 29  1  0  0  0  0
M  END
$$$$

  -OEChem-01062216093D

 29 28  0     1  0  0  0  0  0999 V2000
   -3.3291   -3.1525    1.0854 H   0  0  0  0  0  0  0  0  0  0  0  0
   -3.3680   -2.1351    0.6863 C   0  0  0  0  0  0  0  0  0  0  0  0
   -3.8043   -1.4782    1.4427 H   0  0  0  0  0  0  0  0  0  0  0  0
   -4.0002   -2.1288   -0.2045 H   0  0  0  0  0  0  0  0  0  0  0  0
   -1.9713   -1.6598    0.3353 C   0  0  0  0  0  0  0  0  0  0  0  0
   -1.0171   -2.4119    0.4642 O   0  0  0  0  0  0  0  0  0  0  0  0
   -1.7867   -0.4049   -0.2138 N   0  0  0  0  0  0  0  0  0  0  0  0
   -2.6158    0.1783   -0.1889 H   0  0  0  0  0  0  0  0  0  0  0  0
   -0.4943    0.2953   -0.0857 C   0  0  1  0  0  0  0  0  0  0  0  0
    0.2242   -0.1855   -0.7565 H   0  0  0  0  0  0  0  0  0  0  0  0
   -0.7012    1.7664   -0.5013 C   0  0  0  0  0  0  0  0  0  0  0  0
   -1.5005    2.2012    0.1081 H   0  0  0  0  0  0  0  0  0  0  0  0
    0.2081    2.3367   -0.2898 H   0  0  0  0  0  0  0  0  0  0  0  0
   -1.0510    1.9358   -1.9875 C   0  0  0  0  0  0  0  0  0  0  0  0
   -1.9785    1.3999   -2.2116 H   0  0  0  0  0  0  0  0  0  0  0  0
   -1.2238    2.9953   -2.2023 H   0  0  0  0  0  0  0  0  0  0  0  0
    0.2808    1.3062   -3.0918 S   0  0  0  0  0  0  0  0  0  0  0  0
    1.6490    2.5039   -2.8296 C   0  0  0  0  0  0  0  0  0  0  0  0
    2.0111    2.4555   -1.7990 H   0  0  0  0  0  0  0  0  0  0  0  0
    2.4811    2.2715   -3.5011 H   0  0  0  0  0  0  0  0  0  0  0  0
    1.3065    3.5221   -3.0373 H   0  0  0  0  0  0  0  0  0  0  0  0
    0.1251    0.2556    1.3354 C   0  0  0  0  0  0  0  0  0  0  0  0
   -0.6010    0.2236    2.3240 O   0  0  0  0  0  0  0  0  0  0  0  0
    1.4563    0.5911    1.5108 N   0  0  0  0  0  0  0  0  0  0  0  0
    2.0492    0.5516    0.6871 H   0  0  0  0  0  0  0  0  0  0  0  0
    2.0901    0.6441    2.8230 C   0  0  0  0  0  0  0  0  0  0  0  0
    2.0210   -0.3288    3.3210 H   0  0  0  0  0  0  0  0  0  0  0  0
    3.1471    0.9080    2.7224 H   0  0  0  0  0  0  0  0  0  0  0  0
    1.6059    1.3974    3.4535 H   0  0  0  0  0  0  0  0  0  0  0  0
  1  2  1  0  0  0  0
  2  3  1  0  0  0  0
  2  4  1  0  0  0  0
  2  5  1  0  0  0  0
  5  6  2  0  0  0  0
  5  7  1  0  0  0  0
  7  8  1  0  0  0  0
  7  9  1  0  0  0  0
  9 10  1  0  0  0  0
  9 11  1  0  0  0  0
  9 22  1  0  0  0  0
 11 12  1  0  0  0  0
 11 13  1  0  0  0  0
 11 14  1  0  0  0  0
 14 15  1  0  0  0  0
 14 16  1  0  0  0  0
 14 17  1  0  0  0  0
 17 18  1  0  0  0  0
 18 19  1  0  0  0  0
 18 20  1  0  0  0  0
 18 21  1  0  0  0  0
 22 23  2  0  0  0  0
 22 24  1  0  0  0  0
 24 25  1  0  0  0  0
 24 26  1  0  0  0  0
 26 27  1  0  0  0  0
 26 28  1  0  0  0  0
 26 29  1  0  0  0  0
M  END
$$$$

  -OEChem-01062216093D

 29 28  0     1  0  0  0  0  0999 V2000
   -3.4290   -3.1375    1.0101 H   0  0  0  0  0  0  0  0  0  0  0  0
   -3.4184   -2.0963    0.6756 C   0  0  0  0  0  0  0  0  0  0  0  0
   -3.7548   -1.4610    1.4982 H   0  0  0  0  0  0  0  0  0  0  0  0
   -4.1044   -1.9890   -0.1677 H   0  0  0  0  0  0  0  0  0  0  0  0
   -2.0152   -1.6991    0.2596 C   0  0  0  0  0  0  0  0  0  0  0  0
   -1.1290   -2.5382    0.2172 O   0  0  0  0  0  0  0  0  0  0  0  0
   -1.7753   -0.4345   -0.2443 N   0  0  0  0  0  0  0  0  0  0  0  0
   -2.5903    0.1669   -0.2090 H   0  0  0  0  0  0  0  0  0  0  0  0
   -0.4750    0.2517   -0.0791 C   0  0  1  0  0  0  0  0  0  0  0  0
    0.1609   -0.0316   -0.9230 H   0  0  0  0  0  0  0  0  0  0  0  0
   -0.7684    1.7697   -0.1218 C   0  0  0  0  0  0  0  0  0  0  0  0
   -1.5092    2.0107    0.6480 H   0  0  0  0  0  0  0  0  0  0  0  0
    0.1368    2.3322    0.1218 H   0  0  0  0  0  0  0  0  0  0  0  0
   -1.2783    2.2570   -1.4873 C   0  0  0  0  0  0  0  0  0  0  0  0
   -2.2098    1.7428   -1.7427 H   0  0  0  0  0  0  0  0  0  0  0  0
   -1.5005    3.3274   -1.4308 H   0  0  0  0  0  0  0  0  0  0  0  0
   -0.0519    1.9669   -2.8292 S   0  0  0  0  0  0  0  0  0  0  0  0
    1.3030    3.1415   -2.4294 C   0  0  0  0  0  0  0  0  0  0  0  0
    1.7739    2.8781   -1.4786 H   0  0  0  0  0  0  0  0  0  0  0  0
    2.0654    3.1119   -3.2138 H   0  0  0  0  0  0  0  0  0  0  0  0
    0.9123    4.1610   -2.3607 H   0  0  0  0  0  0  0  0  0  0  0  0
    0.3496   -0.0733    1.2020 C   0  0  0  0  0  0  0  0  0  0  0  0
   -0.2039   -0.4839    2.2165 O   0  0  0  0  0  0  0  0  0  0  0  0
    1.5765    0.5447    1.3859 N   0  0  0  0  0  0  0  0  0  0  0  0
    2.0422    0.8938    0.5542 H   0  0  0  0  0  0  0  0  0  0  0  0
    2.3435    0.4469    2.6233 C   0  0  0  0  0  0  0  0  0  0  0  0
    2.5383   -0.6019    2.8714 H   0  0  0  0  0  0  0  0  0  0  0  0
    3.3032    0.9613    2.5158 H   0  0  0  0  0  0  0  0  0  0  0  0
    1.7961    0.9089    3.4518 H   0  0  0  0  0  0  0  0  0  0  0  0
  1  2  1  0  0  0  0
  2  3  1  0  0  0  0
  2  4  1  0  0  0  0
  2  5  1  0  0  0  0
  5  6  2  0  0  0  0
  5  7  1  0  0  0  0
  7  8  1  0  0  0  0
  7  9  1  0  0  0  0
  9 10  1  0  0  0  0
  9 11  1  0  0  0  0
  9 22  1  0  0  0  0
 11 12  1  0  0  0  0
 11 13  1  0  0  0  0
 11 14  1  0  0  0  0
 14 15  1  0  0  0  0
 14 16  1  0  0  0  0
 14 17  1  0  0  0  0
 17 18  1  0  0  0  0
 18 19  1  0  0  0  0
 18 20  1  0  0  0  0
 18 21  1  0  0  0  0
 22 23  2  0  0  0  0
 22 24  1  0  0  0  0
 24 25  1  0  0  0  0
 24 26  1  0  0  0  0
 26 27  1  0  0  0  0
 26 28  1  0  0  0  0
 26 29  1  0  0  0  0
M  END
$$$$

  -OEChem-01062216093D

 29 28  0     1  0  0  0  0  0999 V2000
   -3.4162   -3.1213    1.0363 H   0  0  0  0  0  0  0  0  0  0  0  0
   -3.4027   -2.0777    0.7096 C   0  0  0  0  0  0  0  0  0  0  0  0
   -3.6858   -1.4440    1.5534 H   0  0  0  0  0  0  0  0  0  0  0  0
   -4.1276   -1.9503   -0.0978 H   0  0  0  0  0  0  0  0  0  0  0  0
   -2.0137   -1.7031    0.2292 C   0  0  0  0  0  0  0  0  0  0  0  0
   -1.1617   -2.5660    0.0892 O   0  0  0  0  0  0  0  0  0  0  0  0
   -1.7653   -0.4311   -0.2510 N   0  0  0  0  0  0  0  0  0  0  0  0
   -2.5773    0.1714   -0.1850 H   0  0  0  0  0  0  0  0  0  0  0  0
   -0.4663    0.2577   -0.0702 C   0  0  1  0  0  0  0  0  0  0  0  0
    0.1744   -0.0223   -0.9117 H   0  0  0  0  0  0  0  0  0  0  0  0
   -0.7857    1.7733   -0.1368 C   0  0  0  0  0  0  0  0  0  0  0  0
   -1.5407    2.0127    0.6194 H   0  0  0  0  0  0  0  0  0  0  0  0
    0.1028    2.3610    0.1051 H   0  0  0  0  0  0  0  0  0  0  0  0
   -1.2811    2.2356   -1.5171 C   0  0  0  0  0  0  0  0  0  0  0  0
   -2.1988    1.7017   -1.7822 H   0  0  0  0  0  0  0  0  0  0  0  0
   -1.5236    3.3024   -1.4777 H   0  0  0  0  0  0  0  0  0  0  0  0
   -0.0298    1.9524   -2.8369 S   0  0  0  0  0  0  0  0  0  0  0  0
    1.2992    3.1545   -2.4323 C   0  0  0  0  0  0  0  0  0  0  0  0
    1.7628    2.9088   -1.4733 H   0  0  0  0  0  0  0  0  0  0  0  0
    2.0716    3.1305   -3.2070 H   0  0  0  0  0  0  0  0  0  0  0  0
    0.8901    4.1678   -2.3789 H   0  0  0  0  0  0  0  0  0  0  0  0
    0.3742   -0.0676    1.2082 C   0  0  0  0  0  0  0  0  0  0  0  0
   -0.0809   -0.7365    2.1280 O   0  0  0  0  0  0  0  0  0  0  0  0
    1.4264    0.7652    1.5595 N   0  0  0  0  0  0  0  0  0  0  0  0
    1.8162    1.3465    0.8249 H   0  0  0  0  0  0  0  0  0  0  0  0
    2.1528    0.6597    2.8213 C   0  0  0  0  0  0  0  0  0  0  0  0
    2.5588   -0.3499    2.9469 H   0  0  0  0  0  0  0  0  0  0  0  0
    2.9839    1.3711    2.8407 H   0  0  0  0  0  0  0  0  0  0  0  0
    1.4900    0.8804    3.6647 H   0  0  0  0  0  0  0  0  0  0  0  0
  1  2  1  0  0  0  0
  2  3  1  0  0  0  0
  2  4  1  0  0  0  0
  2  5  1  0  0  0  0
  5  6  2  0  0  0  0
  5  7  1  0  0  0  0
  7  8  1  0  0  0  0
  7  9  1  0  0  0  0
  9 10  1  0  0  0  0
  9 11  1  0  0  0  0
  9 22  1  0  0  0  0
 11 12  1  0  0  0  0
 11 13  1  0  0  0  0
 11 14  1  0  0  0  0
 14 15  1  0  0  0  0
 14 16  1  0  0  0  0
 14 17  1  0  0  0  0
 17 18  1  0  0  0  0
 18 19  1  0  0  0  0
 18 20  1  0  0  0  0
 18 21  1  0  0  0  0
 22 23  2  0  0  0  0
 22 24  1  0  0  0  0
 24 25  1  0  0  0  0
 24 26  1  0  0  0  0
 26 27  1  0  0  0  0
 26 28  1  0  0  0  0
 26 29  1  0  0  0  0
M  END
$$$$

  -OEChem-01062216093D

 29 28  0     1  0  0  0  0  0999 V2000
   -3.4213   -3.1154    1.0293 H   0  0  0  0  0  0  0  0  0  0  0  0
   -3.3947   -2.0641    0.7286 C   0  0  0  0  0  0  0  0  0  0  0  0
   -3.6453   -1.4471    1.5947 H   0  0  0  0  0  0  0  0  0  0  0  0
   -4.1359   -1.9022   -0.0574 H   0  0  0  0  0  0  0  0  0  0  0  0
   -2.0104   -1.7051    0.2226 C   0  0  0  0  0  0  0  0  0  0  0  0
   -1.1981   -2.5880    0.0032 O   0  0  0  0  0  0  0  0  0  0  0  0
   -1.7542   -0.4285   -0.2397 N   0  0  0  0  0  0  0  0  0  0  0  0
   -2.5702    0.1688   -0.1776 H   0  0  0  0  0  0  0  0  0  0  0  0
   -0.4657    0.2790   -0.0467 C   0  0  1  0  0  0  0  0  0  0  0  0
    0.1858   -0.0032   -0.8793 H   0  0  0  0  0  0  0  0  0  0  0  0
   -0.8092    1.7886   -0.1538 C   0  0  0  0  0  0  0  0  0  0  0  0
   -1.5794    2.0347    0.5847 H   0  0  0  0  0  0  0  0  0  0  0  0
    0.0663    2.3976    0.0800 H   0  0  0  0  0  0  0  0  0  0  0  0
   -1.2849    2.2134   -1.5535 C   0  0  0  0  0  0  0  0  0  0  0  0
   -2.1893    1.6600   -1.8243 H   0  0  0  0  0  0  0  0  0  0  0  0
   -1.5446    3.2768   -1.5408 H   0  0  0  0  0  0  0  0  0  0  0  0
   -0.0061    1.9247   -2.8455 S   0  0  0  0  0  0  0  0  0  0  0  0
    1.2992    3.1545   -2.4480 C   0  0  0  0  0  0  0  0  0  0  0  0
    1.7601    2.9286   -1.4827 H   0  0  0  0  0  0  0  0  0  0  0  0
    2.0775    3.1327   -3.2169 H   0  0  0  0  0  0  0  0  0  0  0  0
    0.8737    4.1618   -2.4115 H   0  0  0  0  0  0  0  0  0  0  0  0
    0.3853   -0.0304    1.2346 C   0  0  0  0  0  0  0  0  0  0  0  0
    0.1554   -0.9723    1.9790 O   0  0  0  0  0  0  0  0  0  0  0  0
    1.2041    0.9490    1.7793 N   0  0  0  0  0  0  0  0  0  0  0  0
    1.4232    1.7470    1.1933 H   0  0  0  0  0  0  0  0  0  0  0  0
    1.9242    0.7959    3.0404 C   0  0  0  0  0  0  0  0  0  0  0  0
    2.5826   -0.0785    3.0022 H   0  0  0  0  0  0  0  0  0  0  0  0
    2.5362    1.6814    3.2368 H   0  0  0  0  0  0  0  0  0  0  0  0
    1.2215    0.6717    3.8713 H   0  0  0  0  0  0  0  0  0  0  0  0
  1  2  1  0  0  0  0
  2  3  1  0  0  0  0
  2  4  1  0  0  0  0
  2  5  1  0  0  0  0
  5  6  2  0  0  0  0
  5  7  1  0  0  0  0
  7  8  1  0  0  0  0
  7  9  1  0  0  0  0
  9 10  1  0  0  0  0
  9 11  1  0  0  0  0
  9 22  1  0  0  0  0
 11 12  1  0  0  0  0
 11 13  1  0  0  0  0
 11 14  1  0  0  0  0
 14 15  1  0  0  0  0
 14 16  1  0  0  0  0
 14 17  1  0  0  0  0
 17 18  1  0  0  0  0
 18 19  1  0  0  0  0
 18 20  1  0  0  0  0
 18 21  1  0  0  0  0
 22 23  2  0  0  0  0
 22 24  1  0  0  0  0
 24 25  1  0  0  0  0
 24 26  1  0  0  0  0
 26 27  1  0  0  0  0
 26 28  1  0  0  0  0
 26 29  1  0  0  0  0
M  END
$$$$

  -OEChem-01062216093D

 29 28  0     1  0  0  0  0  0999 V2000
   -3.4487   -3.2144    0.6232 H   0  0  0  0  0  0  0  0  0  0  0  0
   -3.3183   -2.2826    0.0657 C   0  0  0  0  0  0  0  0  0  0  0  0
   -4.2864   -1.7839   -0.0209 H   0  0  0  0  0  0  0  0  0  0  0  0
   -2.9462   -2.5233   -0.9330 H   0  0  0  0  0  0  0  0  0  0  0  0
   -2.3312   -1.3817    0.7838 C   0  0  0  0  0  0  0  0  0  0  0  0
   -2.0616   -1.6125    1.9478 O   0  0  0  0  0  0  0  0  0  0  0  0
   -1.9708   -0.1816    0.1998 N   0  0  0  0  0  0  0  0  0  0  0  0
   -2.4524   -0.0432   -0.6824 H   0  0  0  0  0  0  0  0  0  0  0  0
   -0.6122    0.4107    0.2155 C   0  0  1  0  0  0  0  0  0  0  0  0
   -0.0625    0.0206   -0.6465 H   0  0  0  0  0  0  0  0  0  0  0  0
   -0.8157    1.9365    0.0398 C   0  0  0  0  0  0  0  0  0  0  0  0
   -1.4796    2.3032    0.8301 H   0  0  0  0  0  0  0  0  0  0  0  0
    0.1403    2.4561    0.1436 H   0  0  0  0  0  0  0  0  0  0  0  0
   -1.3925    2.3261   -1.3309 C   0  0  0  0  0  0  0  0  0  0  0  0
   -2.3756    1.8659   -1.4672 H   0  0  0  0  0  0  0  0  0  0  0  0
   -1.5370    3.4108   -1.3648 H   0  0  0  0  0  0  0  0  0  0  0  0
   -0.2942    1.8289   -2.7208 S   0  0  0  0  0  0  0  0  0  0  0  0
    1.1598    2.9368   -2.5370 C   0  0  0  0  0  0  0  0  0  0  0  0
    1.6987    2.7137   -1.6119 H   0  0  0  0  0  0  0  0  0  0  0  0
    1.8447    2.7950   -3.3786 H   0  0  0  0  0  0  0  0  0  0  0  0
    0.8408    3.9832   -2.5183 H   0  0  0  0  0  0  0  0  0  0  0  0
    0.3091    0.0949    1.4335 C   0  0  0  0  0  0  0  0  0  0  0  0
    0.7470   -1.0427    1.5472 O   0  0  0  0  0  0  0  0  0  0  0  0
    1.0437    1.0837    2.0722 N   0  0  0  0  0  0  0  0  0  0  0  0
    0.7000    2.0340    1.9888 H   0  0  0  0  0  0  0  0  0  0  0  0
    2.0518    0.7980    3.0880 C   0  0  0  0  0  0  0  0  0  0  0  0
    2.8754    0.2173    2.6591 H   0  0  0  0  0  0  0  0  0  0  0  0
    2.4604    1.7306    3.4883 H   0  0  0  0  0  0  0  0  0  0  0  0
    1.6124    0.2285    3.9141 H   0  0  0  0  0  0  0  0  0  0  0  0
  1  2  1  0  0  0  0
  2  3  1  0  0  0  0
  2  4  1  0  0  0  0
  2  5  1  0  0  0  0
  5  6  2  0  0  0  0
  5  7  1  0  0  0  0
  7  8  1  0  0  0  0
  7  9  1  0  0  0  0
  9 10  1  0  0  0  0
  9 11  1  0  0  0  0
  9 22  1  0  0  0  0
 11 12  1  0  0  0  0
 11 13  1  0  0  0  0
 11 14  1  0  0  0  0
 14 15  1  0  0  0  0
 14 16  1  0  0  0  0
 14 17  1  0  0  0  0
 17 18  1  0  0  0  0
 18 19  1  0  0  0  0
 18 20  1  0  0  0  0
 18 21  1  0  0  0  0
 22 23  2  0  0  0  0
 22 24  1  0  0  0  0
 24 25  1  0  0  0  0
 24 26  1  0  0  0  0
 26 27  1  0  0  0  0
 26 28  1  0  0  0  0
 26 29  1  0  0  0  0
M  END
$$$$

  -OEChem-01062216093D

 29 28  0     1  0  0  0  0  0999 V2000
   -3.5647   -3.1897    0.6140 H   0  0  0  0  0  0  0  0  0  0  0  0
   -3.4390   -2.2317    0.1014 C   0  0  0  0  0  0  0  0  0  0  0  0
   -4.3634   -1.6570    0.1956 H   0  0  0  0  0  0  0  0  0  0  0  0
   -3.2413   -2.4248   -0.9557 H   0  0  0  0  0  0  0  0  0  0  0  0
   -2.2837   -1.4615    0.7130 C   0  0  0  0  0  0  0  0  0  0  0  0
   -1.8117   -1.8510    1.7637 O   0  0  0  0  0  0  0  0  0  0  0  0
   -1.9236   -0.2495    0.1516 N   0  0  0  0  0  0  0  0  0  0  0  0
   -2.4611   -0.0368   -0.6821 H   0  0  0  0  0  0  0  0  0  0  0  0
   -0.5829    0.3807    0.1869 C   0  0  1  0  0  0  0  0  0  0  0  0
   -0.0157    0.0057   -0.6710 H   0  0  0  0  0  0  0  0  0  0  0  0
   -0.8065    1.9029    0.0156 C   0  0  0  0  0  0  0  0  0  0  0  0
   -1.4884    2.2564    0.7961 H   0  0  0  0  0  0  0  0  0  0  0  0
    0.1438    2.4295    0.1430 H   0  0  0  0  0  0  0  0  0  0  0  0
   -1.3691    2.2937   -1.3605 C   0  0  0  0  0  0  0  0  0  0  0  0
   -2.3426    1.8194   -1.5139 H   0  0  0  0  0  0  0  0  0  0  0  0
   -1.5289    3.3764   -1.3890 H   0  0  0  0  0  0  0  0  0  0  0  0
   -0.2456    1.8229   -2.7390 S   0  0  0  0  0  0  0  0  0  0  0  0
    1.1870    2.9526   -2.5230 C   0  0  0  0  0  0  0  0  0  0  0  0
    1.7085    2.7369   -1.5861 H   0  0  0  0  0  0  0  0  0  0  0  0
    1.8924    2.8223   -3.3491 H   0  0  0  0  0  0  0  0  0  0  0  0
    0.8520    3.9940   -2.5109 H   0  0  0  0  0  0  0  0  0  0  0  0
    0.3294    0.0808    1.4138 C   0  0  0  0  0  0  0  0  0  0  0  0
    0.9800   -0.9566    1.4121 O   0  0  0  0  0  0  0  0  0  0  0  0
    0.7817    1.0879    2.2537 N   0  0  0  0  0  0  0  0  0  0  0  0
    0.2297    1.9381    2.2805 H   0  0  0  0  0  0  0  0  0  0  0  0
    1.7494    0.8544    3.3203 C   0  0  0  0  0  0  0  0  0  0  0  0
    2.7120    0.5406    2.9029 H   0  0  0  0  0  0  0  0  0  0  0  0
    1.9063    1.7709    3.8968 H   0  0  0  0  0  0  0  0  0  0  0  0
    1.3898    0.0743    3.9998 H   0  0  0  0  0  0  0  0  0  0  0  0
  1  2  1  0  0  0  0
  2  3  1  0  0  0  0
  2  4  1  0  0  0  0
  2  5  1  0  0  0  0
  5  6  2  0  0  0  0
  5  7  1  0  0  0  0
  7  8  1  0  0  0  0
  7  9  1  0  0  0  0
  9 10  1  0  0  0  0
  9 11  1  0  0  0  0
  9 22  1  0  0  0  0
 11 12  1  0  0  0  0
 11 13  1  0  0  0  0
 11 14  1  0  0  0  0
 14 15  1  0  0  0  0
 14 16  1  0  0  0  0
 14 17  1  0  0  0  0
 17 18  1  0  0  0  0
 18 19  1  0  0  0  0
 18 20  1  0  0  0  0
 18 21  1  0  0  0  0
 22 23  2  0  0  0  0
 22 24  1  0  0  0  0
 24 25  1  0  0  0  0
 24 26  1  0  0  0  0
 26 27  1  0  0  0  0
 26 28  1  0  0  0  0
 26 29  1  0  0  0  0
M  END
$$$$

  -OEChem-01062216093D

 29 28  0     1  0  0  0  0  0999 V2000
   -3.5927   -3.1858    0.6407 H   0  0  0  0  0  0  0  0  0  0  0  0
   -3.4751   -2.2214    0.1382 C   0  0  0  0  0  0  0  0  0  0  0  0
   -4.3686   -1.6190    0.3181 H   0  0  0  0  0  0  0  0  0  0  0  0
   -3.3701   -2.3978   -0.9349 H   0  0  0  0  0  0  0  0  0  0  0  0
   -2.2488   -1.5025    0.6688 C   0  0  0  0  0  0  0  0  0  0  0  0
   -1.6680   -1.9674    1.6306 O   0  0  0  0  0  0  0  0  0  0  0  0
   -1.9033   -0.2823    0.1151 N   0  0  0  0  0  0  0  0  0  0  0  0
   -2.4768   -0.0325   -0.6837 H   0  0  0  0  0  0  0  0  0  0  0  0
   -0.5732    0.3682    0.1574 C   0  0  1  0  0  0  0  0  0  0  0  0
    0.0004    0.0047   -0.7014 H   0  0  0  0  0  0  0  0  0  0  0  0
   -0.7980    1.8904    0.0018 C   0  0  0  0  0  0  0  0  0  0  0  0
   -1.4856    2.2348    0.7810 H   0  0  0  0  0  0  0  0  0  0  0  0
    0.1528    2.4129    0.1472 H   0  0  0  0  0  0  0  0  0  0  0  0
   -1.3574    2.2966   -1.3708 C   0  0  0  0  0  0  0  0  0  0  0  0
   -2.3299    1.8227   -1.5320 H   0  0  0  0  0  0  0  0  0  0  0  0
   -1.5177    3.3794   -1.3871 H   0  0  0  0  0  0  0  0  0  0  0  0
   -0.2304    1.8425   -2.7522 S   0  0  0  0  0  0  0  0  0  0  0  0
    1.2034    2.9683   -2.5239 C   0  0  0  0  0  0  0  0  0  0  0  0
    1.7221    2.7445   -1.5873 H   0  0  0  0  0  0  0  0  0  0  0  0
    1.9109    2.8427   -3.3492 H   0  0  0  0  0  0  0  0  0  0  0  0
    0.8705    4.0102   -2.5047 H   0  0  0  0  0  0  0  0  0  0  0  0
    0.3334    0.0741    1.3870 C   0  0  0  0  0  0  0  0  0  0  0  0
    1.1561   -0.8291    1.3034 O   0  0  0  0  0  0  0  0  0  0  0  0
    0.5158    1.0072    2.3963 N   0  0  0  0  0  0  0  0  0  0  0  0
   -0.2099    1.7081    2.4981 H   0  0  0  0  0  0  0  0  0  0  0  0
    1.4280    0.7875    3.5130 C   0  0  0  0  0  0  0  0  0  0  0  0
    2.4587    0.6960    3.1544 H   0  0  0  0  0  0  0  0  0  0  0  0
    1.3806    1.6275    4.2124 H   0  0  0  0  0  0  0  0  0  0  0  0
    1.1601   -0.1283    4.0509 H   0  0  0  0  0  0  0  0  0  0  0  0
  1  2  1  0  0  0  0
  2  3  1  0  0  0  0
  2  4  1  0  0  0  0
  2  5  1  0  0  0  0
  5  6  2  0  0  0  0
  5  7  1  0  0  0  0
  7  8  1  0  0  0  0
  7  9  1  0  0  0  0
  9 10  1  0  0  0  0
  9 11  1  0  0  0  0
  9 22  1  0  0  0  0
 11 12  1  0  0  0  0
 11 13  1  0  0  0  0
 11 14  1  0  0  0  0
 14 15  1  0  0  0  0
 14 16  1  0  0  0  0
 14 17  1  0  0  0  0
 17 18  1  0  0  0  0
 18 19  1  0  0  0  0
 18 20  1  0  0  0  0
 18 21  1  0  0  0  0
 22 23  2  0  0  0  0
 22 24  1  0  0  0  0
 24 25  1  0  0  0  0
 24 26  1  0  0  0  0
 26 27  1  0  0  0  0
 26 28  1  0  0  0  0
 26 29  1  0  0  0  0
M  END
$$$$

  -OEChem-01062216093D

 29 28  0     1  0  0  0  0  0999 V2000
   -3.6053   -3.1802    0.6746 H   0  0  0  0  0  0  0  0  0  0  0  0
   -3.4934   -2.2157    0.1706 C   0  0  0  0  0  0  0  0  0  0  0  0
   -4.3625   -1.5952    0.4015 H   0  0  0  0  0  0  0  0  0  0  0  0
   -3.4506   -2.3880   -0.9076 H   0  0  0  0  0  0  0  0  0  0  0  0
   -2.2243   -1.5268    0.6374 C   0  0  0  0  0  0  0  0  0  0  0  0
   -1.5760   -2.0339    1.5329 O   0  0  0  0  0  0  0  0  0  0  0  0
   -1.8889   -0.3033    0.0848 N   0  0  0  0  0  0  0  0  0  0  0  0
   -2.4903   -0.0246   -0.6835 H   0  0  0  0  0  0  0  0  0  0  0  0
   -0.5647    0.3576    0.1302 C   0  0  1  0  0  0  0  0  0  0  0  0
    0.0118    0.0011   -0.7297 H   0  0  0  0  0  0  0  0  0  0  0  0
   -0.7866    1.8803   -0.0090 C   0  0  0  0  0  0  0  0  0  0  0  0
   -1.4751    2.2178    0.7724 H   0  0  0  0  0  0  0  0  0  0  0  0
    0.1656    2.3972    0.1483 H   0  0  0  0  0  0  0  0  0  0  0  0
   -1.3464    2.3026   -1.3762 C   0  0  0  0  0  0  0  0  0  0  0  0
   -2.3190    1.8310   -1.5422 H   0  0  0  0  0  0  0  0  0  0  0  0
   -1.5055    3.3857   -1.3807 H   0  0  0  0  0  0  0  0  0  0  0  0
   -0.2212    1.8610   -2.7626 S   0  0  0  0  0  0  0  0  0  0  0  0
    1.2134    2.9829   -2.5196 C   0  0  0  0  0  0  0  0  0  0  0  0
    1.7299    2.7483   -1.5844 H   0  0  0  0  0  0  0  0  0  0  0  0
    1.9226    2.8650   -3.3444 H   0  0  0  0  0  0  0  0  0  0  0  0
    0.8818    4.0250   -2.4895 H   0  0  0  0  0  0  0  0  0  0  0  0
    0.3369    0.0694    1.3616 C   0  0  0  0  0  0  0  0  0  0  0  0
    1.3132   -0.6568    1.2224 O   0  0  0  0  0  0  0  0  0  0  0  0
    0.2677    0.8573    2.4994 N   0  0  0  0  0  0  0  0  0  0  0  0
   -0.6017    1.3613    2.6376 H   0  0  0  0  0  0  0  0  0  0  0  0
    1.1234    0.6281    3.6574 C   0  0  0  0  0  0  0  0  0  0  0  0
    2.1770    0.7561    3.3877 H   0  0  0  0  0  0  0  0  0  0  0  0
    0.8835    1.3399    4.4529 H   0  0  0  0  0  0  0  0  0  0  0  0
    0.9797   -0.3868    4.0433 H   0  0  0  0  0  0  0  0  0  0  0  0
  1  2  1  0  0  0  0
  2  3  1  0  0  0  0
  2  4  1  0  0  0  0
  2  5  1  0  0  0  0
  5  6  2  0  0  0  0
  5  7  1  0  0  0  0
  7  8  1  0  0  0  0
  7  9  1  0  0  0  0
  9 10  1  0  0  0  0
  9 11  1  0  0  0  0
  9 22  1  0  0  0  0
 11 12  1  0  0  0  0
 11 13  1  0  0  0  0
 11 14  1  0  0  0  0
 14 15  1  0  0  0  0
 14 16  1  0  0  0  0
 14 17  1  0  0  0  0
 17 18  1  0  0  0  0
 18 19  1  0  0  0  0
 18 20  1  0  0  0  0
 18 21  1  0  0  0  0
 22 23  2  0  0  0  0
 22 24  1  0  0  0  0
 24 25  1  0  0  0  0
 24 26  1  0  0  0  0
 26 27  1  0  0  0  0
 26 28  1  0  0  0  0
 26 29  1  0  0  0  0
M  END
$$$$

  -OEChem-01062216093D

 29 28  0     1  0  0  0  0  0999 V2000
   -3.6284   -3.1676    0.7031 H   0  0  0  0  0  0  0  0  0  0  0  0
   -3.5104   -2.2088    0.1898 C   0  0  0  0  0  0  0  0  0  0  0  0
   -4.3579   -1.5676    0.4436 H   0  0  0  0  0  0  0  0  0  0  0  0
   -3.5055   -2.3875   -0.8882 H   0  0  0  0  0  0  0  0  0  0  0  0
   -2.2122   -1.5459    0.6121 C   0  0  0  0  0  0  0  0  0  0  0  0
   -1.5260   -2.0804    1.4629 O   0  0  0  0  0  0  0  0  0  0  0  0
   -1.8783   -0.3225    0.0590 N   0  0  0  0  0  0  0  0  0  0  0  0
   -2.4955   -0.0250   -0.6897 H   0  0  0  0  0  0  0  0  0  0  0  0
   -0.5573    0.3439    0.1084 C   0  0  1  0  0  0  0  0  0  0  0  0
    0.0227   -0.0064   -0.7519 H   0  0  0  0  0  0  0  0  0  0  0  0
   -0.7759    1.8673   -0.0118 C   0  0  0  0  0  0  0  0  0  0  0  0
   -1.4611    2.1969    0.7756 H   0  0  0  0  0  0  0  0  0  0  0  0
    0.1779    2.3790    0.1524 H   0  0  0  0  0  0  0  0  0  0  0  0
   -1.3379    2.3072   -1.3723 C   0  0  0  0  0  0  0  0  0  0  0  0
   -2.3119    1.8393   -1.5412 H   0  0  0  0  0  0  0  0  0  0  0  0
   -1.4949    3.3907   -1.3631 H   0  0  0  0  0  0  0  0  0  0  0  0
   -0.2172    1.8800   -2.7669 S   0  0  0  0  0  0  0  0  0  0  0  0
    1.2205    2.9957   -2.5137 C   0  0  0  0  0  0  0  0  0  0  0  0
    1.7404    2.7464   -1.5840 H   0  0  0  0  0  0  0  0  0  0  0  0
    1.9260    2.8887   -3.3432 H   0  0  0  0  0  0  0  0  0  0  0  0
    0.8913    4.0378   -2.4672 H   0  0  0  0  0  0  0  0  0  0  0  0
    0.3374    0.0621    1.3431 C   0  0  0  0  0  0  0  0  0  0  0  0
    1.4434   -0.4369    1.1766 O   0  0  0  0  0  0  0  0  0  0  0  0
    0.0484    0.6421    2.5667 N   0  0  0  0  0  0  0  0  0  0  0  0
   -0.9214    0.9069    2.7042 H   0  0  0  0  0  0  0  0  0  0  0  0
    0.8675    0.4026    3.7484 C   0  0  0  0  0  0  0  0  0  0  0  0
    1.8921    0.7522    3.5833 H   0  0  0  0  0  0  0  0  0  0  0  0
    0.4564    0.9387    4.6089 H   0  0  0  0  0  0  0  0  0  0  0  0
    0.8939   -0.6667    3.9842 H   0  0  0  0  0  0  0  0  0  0  0  0
  1  2  1  0  0  0  0
  2  3  1  0  0  0  0
  2  4  1  0  0  0  0
  2  5  1  0  0  0  0
  5  6  2  0  0  0  0
  5  7  1  0  0  0  0
  7  8  1  0  0  0  0
  7  9  1  0  0  0  0
  9 10  1  0  0  0  0
  9 11  1  0  0  0  0
  9 22  1  0  0  0  0
 11 12  1  0  0  0  0
 11 13  1  0  0  0  0
 11 14  1  0  0  0  0
 14 15  1  0  0  0  0
 14 16  1  0  0  0  0
 14 17  1  0  0  0  0
 17 18  1  0  0  0  0
 18 19  1  0  0  0  0
 18 20  1  0  0  0  0
 18 21  1  0  0  0  0
 22 23  2  0  0  0  0
 22 24  1  0  0  0  0
 24 25  1  0  0  0  0
 24 26  1  0  0  0  0
 26 27  1  0  0  0  0
 26 28  1  0  0  0  0
 26 29  1  0  0  0  0
M  END
$$$$

  -OEChem-01062216093D

 29 28  0     1  0  0  0  0  0999 V2000
   -3.6426   -3.1793    0.6624 H   0  0  0  0  0  0  0  0  0  0  0  0
   -3.5373   -2.2016    0.1831 C   0  0  0  0  0  0  0  0  0  0  0  0
   -4.3736   -1.5681    0.4883 H   0  0  0  0  0  0  0  0  0  0  0  0
   -3.5672   -2.3386   -0.9006 H   0  0  0  0  0  0  0  0  0  0  0  0
   -2.2240   -1.5592    0.5889 C   0  0  0  0  0  0  0  0  0  0  0  0
   -1.5243   -2.1134    1.4158 O   0  0  0  0  0  0  0  0  0  0  0  0
   -1.8795   -0.3385    0.0375 N   0  0  0  0  0  0  0  0  0  0  0  0
   -2.5035   -0.0222   -0.6980 H   0  0  0  0  0  0  0  0  0  0  0  0
   -0.5574    0.3265    0.0942 C   0  0  1  0  0  0  0  0  0  0  0  0
    0.0255   -0.0196   -0.7657 H   0  0  0  0  0  0  0  0  0  0  0  0
   -0.7711    1.8505   -0.0086 C   0  0  0  0  0  0  0  0  0  0  0  0
   -1.4521    2.1735    0.7855 H   0  0  0  0  0  0  0  0  0  0  0  0
    0.1844    2.3579    0.1598 H   0  0  0  0  0  0  0  0  0  0  0  0
   -1.3322    2.3050   -1.3643 C   0  0  0  0  0  0  0  0  0  0  0  0
   -2.3079    1.8423   -1.5370 H   0  0  0  0  0  0  0  0  0  0  0  0
   -1.4850    3.3888   -1.3442 H   0  0  0  0  0  0  0  0  0  0  0  0
   -0.2126    1.8879   -2.7628 S   0  0  0  0  0  0  0  0  0  0  0  0
    1.2277    2.9972   -2.4981 C   0  0  0  0  0  0  0  0  0  0  0  0
    1.7483    2.7346   -1.5724 H   0  0  0  0  0  0  0  0  0  0  0  0
    1.9314    2.8990   -3.3300 H   0  0  0  0  0  0  0  0  0  0  0  0
    0.9003    4.0392   -2.4377 H   0  0  0  0  0  0  0  0  0  0  0  0
    0.3358    0.0543    1.3308 C   0  0  0  0  0  0  0  0  0  0  0  0
    1.5270   -0.1782    1.1658 O   0  0  0  0  0  0  0  0  0  0  0  0
   -0.1148    0.3779    2.5986 N   0  0  0  0  0  0  0  0  0  0  0  0
   -1.1246    0.3651    2.7036 H   0  0  0  0  0  0  0  0  0  0  0  0
    0.6933    0.1415    3.7883 C   0  0  0  0  0  0  0  0  0  0  0  0
    1.6336    0.7001    3.7327 H   0  0  0  0  0  0  0  0  0  0  0  0
    0.1532    0.4674    4.6823 H   0  0  0  0  0  0  0  0  0  0  0  0
    0.9222   -0.9248    3.8888 H   0  0  0  0  0  0  0  0  0  0  0  0
  1  2  1  0  0  0  0
  2  3  1  0  0  0  0
  2  4  1  0  0  0  0
  2  5  1  0  0  0  0
  5  6  2  0  0  0  0
  5  7  1  0  0  0  0
  7  8  1  0  0  0  0
  7  9  1  0  0  0  0
  9 10  1  0  0  0  0
  9 11  1  0  0  0  0
  9 22  1  0  0  0  0
 11 12  1  0  0  0  0
 11 13  1  0  0  0  0
 11 14  1  0  0  0  0
 14 15  1  0  0  0  0
 14 16  1  0  0  0  0
 14 17  1  0  0  0  0
 17 18  1  0  0  0  0
 18 19  1  0  0  0  0
 18 20  1  0  0  0  0
 18 21  1  0  0  0  0
 22 23  2  0  0  0  0
 22 24  1  0  0  0  0
 24 25  1  0  0  0  0
 24 26  1  0  0  0  0
 26 27  1  0  0  0  0
 26 28  1  0  0  0  0
 26 29  1  0  0  0  0
M  END
$$$$

  -OEChem-01062216093D

 29 28  0     1  0  0  0  0  0999 V2000
   -3.7141   -3.1648    0.6134 H   0  0  0  0  0  0  0  0  0  0  0  0
   -3.5917   -2.1803    0.1525 C   0  0  0  0  0  0  0  0  0  0  0  0
   -4.4079   -1.5331    0.4825 H   0  0  0  0  0  0  0  0  0  0  0  0
   -3.6413   -2.2940   -0.9332 H   0  0  0  0  0  0  0  0  0  0  0  0
   -2.2574   -1.5778    0.5510 C   0  0  0  0  0  0  0  0  0  0  0  0
   -1.5587   -2.1628    1.3575 O   0  0  0  0  0  0  0  0  0  0  0  0
   -1.8870   -0.3598    0.0124 N   0  0  0  0  0  0  0  0  0  0  0  0
   -2.5170   -0.0096   -0.7023 H   0  0  0  0  0  0  0  0  0  0  0  0
   -0.5629    0.3019    0.0885 C   0  0  1  0  0  0  0  0  0  0  0  0
    0.0272   -0.0397   -0.7679 H   0  0  0  0  0  0  0  0  0  0  0  0
   -0.7833    1.8254   -0.0080 C   0  0  0  0  0  0  0  0  0  0  0  0
   -1.4732    2.1383    0.7826 H   0  0  0  0  0  0  0  0  0  0  0  0
    0.1670    2.3387    0.1728 H   0  0  0  0  0  0  0  0  0  0  0  0
   -1.3317    2.2867   -1.3667 C   0  0  0  0  0  0  0  0  0  0  0  0
   -2.3035    1.8218   -1.5542 H   0  0  0  0  0  0  0  0  0  0  0  0
   -1.4887    3.3698   -1.3412 H   0  0  0  0  0  0  0  0  0  0  0  0
   -0.1936    1.8833   -2.7541 S   0  0  0  0  0  0  0  0  0  0  0  0
    1.2371    2.9983   -2.4626 C   0  0  0  0  0  0  0  0  0  0  0  0
    1.7496    2.7291   -1.5342 H   0  0  0  0  0  0  0  0  0  0  0  0
    1.9506    2.9130   -3.2877 H   0  0  0  0  0  0  0  0  0  0  0  0
    0.9029    4.0377   -2.3945 H   0  0  0  0  0  0  0  0  0  0  0  0
    0.3337    0.0445    1.3268 C   0  0  0  0  0  0  0  0  0  0  0  0
    1.5505    0.0887    1.1898 O   0  0  0  0  0  0  0  0  0  0  0  0
   -0.1970    0.0750    2.6038 N   0  0  0  0  0  0  0  0  0  0  0  0
   -1.1629   -0.2403    2.6489 H   0  0  0  0  0  0  0  0  0  0  0  0
    0.6297   -0.1366    3.7852 C   0  0  0  0  0  0  0  0  0  0  0  0
    1.4214    0.6179    3.8408 H   0  0  0  0  0  0  0  0  0  0  0  0
    0.0203   -0.0613    4.6907 H   0  0  0  0  0  0  0  0  0  0  0  0
    1.0902   -1.1298    3.7560 H   0  0  0  0  0  0  0  0  0  0  0  0
  1  2  1  0  0  0  0
  2  3  1  0  0  0  0
  2  4  1  0  0  0  0
  2  5  1  0  0  0  0
  5  6  2  0  0  0  0
  5  7  1  0  0  0  0
  7  8  1  0  0  0  0
  7  9  1  0  0  0  0
  9 10  1  0  0  0  0
  9 11  1  0  0  0  0
  9 22  1  0  0  0  0
 11 12  1  0  0  0  0
 11 13  1  0  0  0  0
 11 14  1  0  0  0  0
 14 15  1  0  0  0  0
 14 16  1  0  0  0  0
 14 17  1  0  0  0  0
 17 18  1  0  0  0  0
 18 19  1  0  0  0  0
 18 20  1  0  0  0  0
 18 21  1  0  0  0  0
 22 23  2  0  0  0  0
 22 24  1  0  0  0  0
 24 25  1  0  0  0  0
 24 26  1  0  0  0  0
 26 27  1  0  0  0  0
 26 28  1  0  0  0  0
 26 29  1  0  0  0  0
M  END
$$$$

  -OEChem-01062216093D

 29 28  0     1  0  0  0  0  0999 V2000
   -3.8133   -3.1264    0.5680 H   0  0  0  0  0  0  0  0  0  0  0  0
   -3.6606   -2.1374    0.1266 C   0  0  0  0  0  0  0  0  0  0  0  0
   -4.4365   -1.4634    0.4973 H   0  0  0  0  0  0  0  0  0  0  0  0
   -3.7481   -2.2223   -0.9594 H   0  0  0  0  0  0  0  0  0  0  0  0
   -2.2893   -1.6044    0.4973 C   0  0  0  0  0  0  0  0  0  0  0  0
   -1.5835   -2.2537    1.2466 O   0  0  0  0  0  0  0  0  0  0  0  0
   -1.8853   -0.3880   -0.0191 N   0  0  0  0  0  0  0  0  0  0  0  0
   -2.5324    0.0192   -0.6866 H   0  0  0  0  0  0  0  0  0  0  0  0
   -0.5618    0.2745    0.0845 C   0  0  1  0  0  0  0  0  0  0  0  0
    0.0406   -0.0605   -0.7658 H   0  0  0  0  0  0  0  0  0  0  0  0
   -0.8040    1.7965   -0.0157 C   0  0  0  0  0  0  0  0  0  0  0  0
   -1.5117    2.0977    0.7638 H   0  0  0  0  0  0  0  0  0  0  0  0
    0.1332    2.3272    0.1811 H   0  0  0  0  0  0  0  0  0  0  0  0
   -1.3337    2.2539   -1.3837 C   0  0  0  0  0  0  0  0  0  0  0  0
   -2.2948    1.7760   -1.5922 H   0  0  0  0  0  0  0  0  0  0  0  0
   -1.5065    3.3346   -1.3578 H   0  0  0  0  0  0  0  0  0  0  0  0
   -0.1628    1.8704   -2.7496 S   0  0  0  0  0  0  0  0  0  0  0  0
    1.2437    3.0066   -2.4244 C   0  0  0  0  0  0  0  0  0  0  0  0
    1.7413    2.7417   -1.4865 H   0  0  0  0  0  0  0  0  0  0  0  0
    1.9752    2.9372   -3.2350 H   0  0  0  0  0  0  0  0  0  0  0  0
    0.8908    4.0398   -2.3587 H   0  0  0  0  0  0  0  0  0  0  0  0
    0.3380    0.0350    1.3283 C   0  0  0  0  0  0  0  0  0  0  0  0
    1.5278    0.3181    1.2480 O   0  0  0  0  0  0  0  0  0  0  0  0
   -0.1921   -0.2379    2.5756 N   0  0  0  0  0  0  0  0  0  0  0  0
   -1.0596   -0.7720    2.5313 H   0  0  0  0  0  0  0  0  0  0  0  0
    0.6520   -0.4417    3.7463 C   0  0  0  0  0  0  0  0  0  0  0  0
    1.2562    0.4498    3.9449 H   0  0  0  0  0  0  0  0  0  0  0  0
    0.0330   -0.6398    4.6263 H   0  0  0  0  0  0  0  0  0  0  0  0
    1.3210   -1.2947    3.5923 H   0  0  0  0  0  0  0  0  0  0  0  0
  1  2  1  0  0  0  0
  2  3  1  0  0  0  0
  2  4  1  0  0  0  0
  2  5  1  0  0  0  0
  5  6  2  0  0  0  0
  5  7  1  0  0  0  0
  7  8  1  0  0  0  0
  7  9  1  0  0  0  0
  9 10  1  0  0  0  0
  9 11  1  0  0  0  0
  9 22  1  0  0  0  0
 11 12  1  0  0  0  0
 11 13  1  0  0  0  0
 11 14  1  0  0  0  0
 14 15  1  0  0  0  0
 14 16  1  0  0  0  0
 14 17  1  0  0  0  0
 17 18  1  0  0  0  0
 18 19  1  0  0  0  0
 18 20  1  0  0  0  0
 18 21  1  0  0  0  0
 22 23  2  0  0  0  0
 22 24  1  0  0  0  0
 24 25  1  0  0  0  0
 24 26  1  0  0  0  0
 26 27  1  0  0  0  0
 26 28  1  0  0  0  0
 26 29  1  0  0  0  0
M  END
$$$$

  -OEChem-01062216093D

 29 28  0     1  0  0  0  0  0999 V2000
   -3.8993   -3.0778    0.5566 H   0  0  0  0  0  0  0  0  0  0  0  0
   -3.7190   -2.0867    0.1305 C   0  0  0  0  0  0  0  0  0  0  0  0
   -4.4336   -1.3829    0.5639 H   0  0  0  0  0  0  0  0  0  0  0  0
   -3.8749   -2.1365   -0.9500 H   0  0  0  0  0  0  0  0  0  0  0  0
   -2.3012   -1.6373    0.4299 C   0  0  0  0  0  0  0  0  0  0  0  0
   -1.5697   -2.3726    1.0672 O   0  0  0  0  0  0  0  0  0  0  0  0
   -1.8745   -0.4168   -0.0575 N   0  0  0  0  0  0  0  0  0  0  0  0
   -2.5552    0.0617   -0.6382 H   0  0  0  0  0  0  0  0  0  0  0  0
   -0.5574    0.2548    0.0797 C   0  0  1  0  0  0  0  0  0  0  0  0
    0.0627   -0.0713   -0.7611 H   0  0  0  0  0  0  0  0  0  0  0  0
   -0.8300    1.7733   -0.0327 C   0  0  0  0  0  0  0  0  0  0  0  0
   -1.5626    2.0612    0.7284 H   0  0  0  0  0  0  0  0  0  0  0  0
    0.0872    2.3302    0.1834 H   0  0  0  0  0  0  0  0  0  0  0  0
   -1.3343    2.2166   -1.4155 C   0  0  0  0  0  0  0  0  0  0  0  0
   -2.2791    1.7183   -1.6494 H   0  0  0  0  0  0  0  0  0  0  0  0
   -1.5297    3.2936   -1.3968 H   0  0  0  0  0  0  0  0  0  0  0  0
   -0.1205    1.8551   -2.7493 S   0  0  0  0  0  0  0  0  0  0  0  0
    1.2526    3.0220   -2.3903 C   0  0  0  0  0  0  0  0  0  0  0  0
    1.7301    2.7701   -1.4386 H   0  0  0  0  0  0  0  0  0  0  0  0
    2.0067    2.9661   -3.1810 H   0  0  0  0  0  0  0  0  0  0  0  0
    0.8768    4.0479   -2.3373 H   0  0  0  0  0  0  0  0  0  0  0  0
    0.3384    0.0285    1.3341 C   0  0  0  0  0  0  0  0  0  0  0  0
    1.4675    0.5064    1.3339 O   0  0  0  0  0  0  0  0  0  0  0  0
   -0.1218   -0.5381    2.5076 N   0  0  0  0  0  0  0  0  0  0  0  0
   -0.9013   -1.1833    2.3729 H   0  0  0  0  0  0  0  0  0  0  0  0
    0.7418   -0.7646    3.6601 C   0  0  0  0  0  0  0  0  0  0  0  0
    1.1602    0.1817    4.0189 H   0  0  0  0  0  0  0  0  0  0  0  0
    0.1698   -1.2179    4.4752 H   0  0  0  0  0  0  0  0  0  0  0  0
    1.5648   -1.4370    3.3963 H   0  0  0  0  0  0  0  0  0  0  0  0
  1  2  1  0  0  0  0
  2  3  1  0  0  0  0
  2  4  1  0  0  0  0
  2  5  1  0  0  0  0
  5  6  2  0  0  0  0
  5  7  1  0  0  0  0
  7  8  1  0  0  0  0
  7  9  1  0  0  0  0
  9 10  1  0  0  0  0
  9 11  1  0  0  0  0
  9 22  1  0  0  0  0
 11 12  1  0  0  0  0
 11 13  1  0  0  0  0
 11 14  1  0  0  0  0
 14 15  1  0  0  0  0
 14 16  1  0  0  0  0
 14 17  1  0  0  0  0
 17 18  1  0  0  0  0
 18 19  1  0  0  0  0
 18 20  1  0  0  0  0
 18 21  1  0  0  0  0
 22 23  2  0  0  0  0
 22 24  1  0  0  0  0
 24 25  1  0  0  0  0
 24 26  1  0  0  0  0
 26 27  1  0  0  0  0
 26 28  1  0  0  0  0
 26 29  1  0  0  0  0
M  END
$$$$

  -OEChem-01062216093D

 29 28  0     1  0  0  0  0  0999 V2000
   -3.9543   -3.0315    0.5795 H   0  0  0  0  0  0  0  0  0  0  0  0
   -3.7585   -2.0410    0.1590 C   0  0  0  0  0  0  0  0  0  0  0  0
   -4.4096   -1.3155    0.6526 H   0  0  0  0  0  0  0  0  0  0  0  0
   -3.9892   -2.0616   -0.9090 H   0  0  0  0  0  0  0  0  0  0  0  0
   -2.3046   -1.6610    0.3681 C   0  0  0  0  0  0  0  0  0  0  0  0
   -1.5498   -2.4707    0.8749 O   0  0  0  0  0  0  0  0  0  0  0  0
   -1.8667   -0.4335   -0.0899 N   0  0  0  0  0  0  0  0  0  0  0  0
   -2.5803    0.1072   -0.5670 H   0  0  0  0  0  0  0  0  0  0  0  0
   -0.5551    0.2447    0.0757 C   0  0  1  0  0  0  0  0  0  0  0  0
    0.0783   -0.0736   -0.7579 H   0  0  0  0  0  0  0  0  0  0  0  0
   -0.8515    1.7605   -0.0509 C   0  0  0  0  0  0  0  0  0  0  0  0
   -1.6045    2.0402    0.6929 H   0  0  0  0  0  0  0  0  0  0  0  0
    0.0485    2.3390    0.1778 H   0  0  0  0  0  0  0  0  0  0  0  0
   -1.3318    2.1888   -1.4474 C   0  0  0  0  0  0  0  0  0  0  0  0
   -2.2619    1.6734   -1.7018 H   0  0  0  0  0  0  0  0  0  0  0  0
   -1.5464    3.2621   -1.4392 H   0  0  0  0  0  0  0  0  0  0  0  0
   -0.0804    1.8416   -2.7506 S   0  0  0  0  0  0  0  0  0  0  0  0
    1.2637    3.0339   -2.3656 C   0  0  0  0  0  0  0  0  0  0  0  0
    1.7239    2.7946   -1.4022 H   0  0  0  0  0  0  0  0  0  0  0  0
    2.0366    2.9876   -3.1385 H   0  0  0  0  0  0  0  0  0  0  0  0
    0.8689    4.0533   -2.3256 H   0  0  0  0  0  0  0  0  0  0  0  0
    0.3356    0.0156    1.3388 C   0  0  0  0  0  0  0  0  0  0  0  0
    1.3748    0.6579    1.4442 O   0  0  0  0  0  0  0  0  0  0  0  0
    0.0014   -0.8128    2.3929 N   0  0  0  0  0  0  0  0  0  0  0  0
   -0.6966   -1.5241    2.1704 H   0  0  0  0  0  0  0  0  0  0  0  0
    0.8914   -1.0687    3.5190 C   0  0  0  0  0  0  0  0  0  0  0  0
    1.1231   -0.1368    4.0451 H   0  0  0  0  0  0  0  0  0  0  0  0
    0.4144   -1.7531    4.2270 H   0  0  0  0  0  0  0  0  0  0  0  0
    1.8267   -1.5215    3.1740 H   0  0  0  0  0  0  0  0  0  0  0  0
  1  2  1  0  0  0  0
  2  3  1  0  0  0  0
  2  4  1  0  0  0  0
  2  5  1  0  0  0  0
  5  6  2  0  0  0  0
  5  7  1  0  0  0  0
  7  8  1  0  0  0  0
  7  9  1  0  0  0  0
  9 10  1  0  0  0  0
  9 11  1  0  0  0  0
  9 22  1  0  0  0  0
 11 12  1  0  0  0  0
 11 13  1  0  0  0  0
 11 14  1  0  0  0  0
 14 15  1  0  0  0  0
 14 16  1  0  0  0  0
 14 17  1  0  0  0  0
 17 18  1  0  0  0  0
 18 19  1  0  0  0  0
 18 20  1  0  0  0  0
 18 21  1  0  0  0  0
 22 23  2  0  0  0  0
 22 24  1  0  0  0  0
 24 25  1  0  0  0  0
 24 26  1  0  0  0  0
 26 27  1  0  0  0  0
 26 28  1  0  0  0  0
 26 29  1  0  0  0  0
M  END
$$$$

  -OEChem-01062216093D

 29 28  0     1  0  0  0  0  0999 V2000
   -3.9888   -2.9735    0.7160 H   0  0  0  0  0  0  0  0  0  0  0  0
   -3.7904   -1.9848    0.2923 C   0  0  0  0  0  0  0  0  0  0  0  0
   -4.3719   -1.2437    0.8460 H   0  0  0  0  0  0  0  0  0  0  0  0
   -4.1076   -1.9813   -0.7534 H   0  0  0  0  0  0  0  0  0  0  0  0
   -2.3113   -1.6603    0.3861 C   0  0  0  0  0  0  0  0  0  0  0  0
   -1.5422   -2.5199    0.7764 O   0  0  0  0  0  0  0  0  0  0  0  0
   -1.8705   -0.4360   -0.0776 N   0  0  0  0  0  0  0  0  0  0  0  0
   -2.6107    0.1439   -0.4581 H   0  0  0  0  0  0  0  0  0  0  0  0
   -0.5549    0.2392    0.0714 C   0  0  1  0  0  0  0  0  0  0  0  0
    0.0697   -0.0965   -0.7618 H   0  0  0  0  0  0  0  0  0  0  0  0
   -0.8548    1.7529   -0.0934 C   0  0  0  0  0  0  0  0  0  0  0  0
   -1.6060    2.0505    0.6455 H   0  0  0  0  0  0  0  0  0  0  0  0
    0.0425    2.3427    0.1142 H   0  0  0  0  0  0  0  0  0  0  0  0
   -1.3369    2.1432   -1.5007 C   0  0  0  0  0  0  0  0  0  0  0  0
   -2.2653    1.6179   -1.7414 H   0  0  0  0  0  0  0  0  0  0  0  0
   -1.5547    3.2158   -1.5213 H   0  0  0  0  0  0  0  0  0  0  0  0
   -0.0832    1.7637   -2.7929 S   0  0  0  0  0  0  0  0  0  0  0  0
    1.2576    2.9689   -2.4383 C   0  0  0  0  0  0  0  0  0  0  0  0
    1.7102    2.7631   -1.4636 H   0  0  0  0  0  0  0  0  0  0  0  0
    2.0368    2.8962   -3.2029 H   0  0  0  0  0  0  0  0  0  0  0  0
    0.8624    3.9889   -2.4367 H   0  0  0  0  0  0  0  0  0  0  0  0
    0.3515    0.0115    1.3276 C   0  0  0  0  0  0  0  0  0  0  0  0
    1.2714    0.7928    1.5443 O   0  0  0  0  0  0  0  0  0  0  0  0
    0.1919   -1.0116    2.2416 N   0  0  0  0  0  0  0  0  0  0  0  0
   -0.4347   -1.7653    1.9548 H   0  0  0  0  0  0  0  0  0  0  0  0
    1.1152   -1.2678    3.3404 C   0  0  0  0  0  0  0  0  0  0  0  0
    1.1834   -0.3938    3.9966 H   0  0  0  0  0  0  0  0  0  0  0  0
    0.7655   -2.1173    3.9347 H   0  0  0  0  0  0  0  0  0  0  0  0
    2.1139   -1.5003    2.9562 H   0  0  0  0  0  0  0  0  0  0  0  0
  1  2  1  0  0  0  0
  2  3  1  0  0  0  0
  2  4  1  0  0  0  0
  2  5  1  0  0  0  0
  5  6  2  0  0  0  0
  5  7  1  0  0  0  0
  7  8  1  0  0  0  0
  7  9  1  0  0  0  0
  9 10  1  0  0  0  0
  9 11  1  0  0  0  0
  9 22  1  0  0  0  0
 11 12  1  0  0  0  0
 11 13  1  0  0  0  0
 11 14  1  0  0  0  0
 14 15  1  0  0  0  0
 14 16  1  0  0  0  0
 14 17  1  0  0  0  0
 17 18  1  0  0  0  0
 18 19  1  0  0  0  0
 18 20  1  0  0  0  0
 18 21  1  0  0  0  0
 22 23  2  0  0  0  0
 22 24  1  0  0  0  0
 24 25  1  0  0  0  0
 24 26  1  0  0  0  0
 26 27  1  0  0  0  0
 26 28  1  0  0  0  0
 26 29  1  0  0  0  0
M  END
$$$$

  -OEChem-01062216093D

 29 28  0     1  0  0  0  0  0999 V2000
   -3.4428   -3.1114    1.1996 H   0  0  0  0  0  0  0  0  0  0  0  0
   -3.3893   -2.0994    0.7882 C   0  0  0  0  0  0  0  0  0  0  0  0
   -3.7858   -1.3996    1.5275 H   0  0  0  0  0  0  0  0  0  0  0  0
   -4.0023   -2.0541   -0.1152 H   0  0  0  0  0  0  0  0  0  0  0  0
   -1.9517   -1.7476    0.4555 C   0  0  0  0  0  0  0  0  0  0  0  0
   -1.1150   -2.6298    0.4418 O   0  0  0  0  0  0  0  0  0  0  0  0
   -1.6591   -0.4784    0.0014 N   0  0  0  0  0  0  0  0  0  0  0  0
   -2.4718    0.1226   -0.0785 H   0  0  0  0  0  0  0  0  0  0  0  0
   -0.3510    0.2202   -0.0297 C   0  0  1  0  0  0  0  0  0  0  0  0
    0.1186   -0.0515   -0.9801 H   0  0  0  0  0  0  0  0  0  0  0  0
   -0.7000    1.7321   -0.0462 C   0  0  0  0  0  0  0  0  0  0  0  0
   -1.3214    1.9655    0.8242 H   0  0  0  0  0  0  0  0  0  0  0  0
    0.2095    2.3322    0.0461 H   0  0  0  0  0  0  0  0  0  0  0  0
   -1.4193    2.1933   -1.3253 C   0  0  0  0  0  0  0  0  0  0  0  0
   -2.3651    1.6566   -1.4409 H   0  0  0  0  0  0  0  0  0  0  0  0
   -1.6566    3.2587   -1.2413 H   0  0  0  0  0  0  0  0  0  0  0  0
   -0.3972    1.9275   -2.8319 S   0  0  0  0  0  0  0  0  0  0  0  0
    0.9641    3.1449   -2.6317 C   0  0  0  0  0  0  0  0  0  0  0  0
    1.5845    2.8859   -1.7683 H   0  0  0  0  0  0  0  0  0  0  0  0
    1.5973    3.1470   -3.5238 H   0  0  0  0  0  0  0  0  0  0  0  0
    0.5583    4.1503   -2.4875 H   0  0  0  0  0  0  0  0  0  0  0  0
    0.7854   -0.0382    1.0204 C   0  0  0  0  0  0  0  0  0  0  0  0
    1.7580    0.7028    1.0266 O   0  0  0  0  0  0  0  0  0  0  0  0
    1.0881   -1.1751    1.7300 N   0  0  0  0  0  0  0  0  0  0  0  0
    2.0824   -1.1887    1.9402 H   0  0  0  0  0  0  0  0  0  0  0  0
    0.2448   -1.5866    2.8454 C   0  0  0  0  0  0  0  0  0  0  0  0
   -0.7232   -1.0766    2.8288 H   0  0  0  0  0  0  0  0  0  0  0  0
    0.0722   -2.6672    2.8106 H   0  0  0  0  0  0  0  0  0  0  0  0
    0.7370   -1.3447    3.7925 H   0  0  0  0  0  0  0  0  0  0  0  0
  1  2  1  0  0  0  0
  2  3  1  0  0  0  0
  2  4  1  0  0  0  0
  2  5  1  0  0  0  0
  5  6  2  0  0  0  0
  5  7  1  0  0  0  0
  7  8  1  0  0  0  0
  7  9  1  0  0  0  0
  9 10  1  0  0  0  0
  9 11  1  0  0  0  0
  9 22  1  0  0  0  0
 11 12  1  0  0  0  0
 11 13  1  0  0  0  0
 11 14  1  0  0  0  0
 14 15  1  0  0  0  0
 14 16  1  0  0  0  0
 14 17  1  0  0  0  0
 17 18  1  0  0  0  0
 18 19  1  0  0  0  0
 18 20  1  0  0  0  0
 18 21  1  0  0  0  0
 22 23  2  0  0  0  0
 22 24  1  0  0  0  0
 24 25  1  0  0  0  0
 24 26  1  0  0  0  0
 26 27  1  0  0  0  0
 26 28  1  0  0  0  0
 26 29  1  0  0  0  0
M  END
$$$$

  -OEChem-01062216093D

 29 28  0     1  0  0  0  0  0999 V2000
   -3.8667   -3.0128    0.7324 H   0  0  0  0  0  0  0  0  0  0  0  0
   -3.7050   -2.0046    0.3403 C   0  0  0  0  0  0  0  0  0  0  0  0
   -4.2297   -1.2920    0.9813 H   0  0  0  0  0  0  0  0  0  0  0  0
   -4.1178   -1.9501   -0.6701 H   0  0  0  0  0  0  0  0  0  0  0  0
   -2.2222   -1.6850    0.3119 C   0  0  0  0  0  0  0  0  0  0  0  0
   -1.4234   -2.5749    0.5422 O   0  0  0  0  0  0  0  0  0  0  0  0
   -1.8212   -0.4303   -0.1058 N   0  0  0  0  0  0  0  0  0  0  0  0
   -2.5954    0.1788   -0.3480 H   0  0  0  0  0  0  0  0  0  0  0  0
   -0.5113    0.2553    0.0408 C   0  0  1  0  0  0  0  0  0  0  0  0
    0.1003   -0.0449   -0.8150 H   0  0  0  0  0  0  0  0  0  0  0  0
   -0.8155    1.7725   -0.0747 C   0  0  0  0  0  0  0  0  0  0  0  0
   -1.5511    2.0504    0.6871 H   0  0  0  0  0  0  0  0  0  0  0  0
    0.0899    2.3514    0.1300 H   0  0  0  0  0  0  0  0  0  0  0  0
   -1.3205    2.2025   -1.4621 C   0  0  0  0  0  0  0  0  0  0  0  0
   -2.2515    1.6809   -1.7018 H   0  0  0  0  0  0  0  0  0  0  0  0
   -1.5415    3.2746   -1.4469 H   0  0  0  0  0  0  0  0  0  0  0  0
   -0.0913    1.8663   -2.7895 S   0  0  0  0  0  0  0  0  0  0  0  0
    1.2534    3.0643   -2.4251 C   0  0  0  0  0  0  0  0  0  0  0  0
    1.7211    2.8362   -1.4629 H   0  0  0  0  0  0  0  0  0  0  0  0
    2.0204    3.0123   -3.2034 H   0  0  0  0  0  0  0  0  0  0  0  0
    0.8566    4.0832   -2.3924 H   0  0  0  0  0  0  0  0  0  0  0  0
    0.4061   -0.0496    1.2735 C   0  0  0  0  0  0  0  0  0  0  0  0
    0.9450    0.8687    1.8821 O   0  0  0  0  0  0  0  0  0  0  0  0
    0.6641   -1.3230    1.7395 N   0  0  0  0  0  0  0  0  0  0  0  0
    0.1391   -2.0811    1.2971 H   0  0  0  0  0  0  0  0  0  0  0  0
    1.4685   -1.6225    2.9176 C   0  0  0  0  0  0  0  0  0  0  0  0
    1.0228   -1.1724    3.8107 H   0  0  0  0  0  0  0  0  0  0  0  0
    1.5272   -2.7048    3.0669 H   0  0  0  0  0  0  0  0  0  0  0  0
    2.4856   -1.2356    2.7964 H   0  0  0  0  0  0  0  0  0  0  0  0
  1  2  1  0  0  0  0
  2  3  1  0  0  0  0
  2  4  1  0  0  0  0
  2  5  1  0  0  0  0
  5  6  2  0  0  0  0
  5  7  1  0  0  0  0
  7  8  1  0  0  0  0
  7  9  1  0  0  0  0
  9 10  1  0  0  0  0
  9 11  1  0  0  0  0
  9 22  1  0  0  0  0
 11 12  1  0  0  0  0
 11 13  1  0  0  0  0
 11 14  1  0  0  0  0
 14 15  1  0  0  0  0
 14 16  1  0  0  0  0
 14 17  1  0  0  0  0
 17 18  1  0  0  0  0
 18 19  1  0  0  0  0
 18 20  1  0  0  0  0
 18 21  1  0  0  0  0
 22 23  2  0  0  0  0
 22 24  1  0  0  0  0
 24 25  1  0  0  0  0
 24 26  1  0  0  0  0
 26 27  1  0  0  0  0
 26 28  1  0  0  0  0
 26 29  1  0  0  0  0
M  END
$$$$

  -OEChem-01062216093D

 29 28  0     1  0  0  0  0  0999 V2000
   -3.7468   -3.0567    0.8026 H   0  0  0  0  0  0  0  0  0  0  0  0
   -3.6283   -2.0391    0.4193 C   0  0  0  0  0  0  0  0  0  0  0  0
   -4.1446   -1.3496    1.0916 H   0  0  0  0  0  0  0  0  0  0  0  0
   -4.0830   -1.9818   -0.5727 H   0  0  0  0  0  0  0  0  0  0  0  0
   -2.1567   -1.6801    0.3368 C   0  0  0  0  0  0  0  0  0  0  0  0
   -1.3242   -2.5438    0.5488 O   0  0  0  0  0  0  0  0  0  0  0  0
   -1.7993   -0.4196   -0.1020 N   0  0  0  0  0  0  0  0  0  0  0  0
   -2.5912    0.1811   -0.3053 H   0  0  0  0  0  0  0  0  0  0  0  0
   -0.4947    0.2759    0.0217 C   0  0  1  0  0  0  0  0  0  0  0  0
    0.1095   -0.0206   -0.8403 H   0  0  0  0  0  0  0  0  0  0  0  0
   -0.7898    1.7934   -0.0831 C   0  0  0  0  0  0  0  0  0  0  0  0
   -1.5123    2.0739    0.6904 H   0  0  0  0  0  0  0  0  0  0  0  0
    0.1259    2.3590    0.1145 H   0  0  0  0  0  0  0  0  0  0  0  0
   -1.3154    2.2311   -1.4602 C   0  0  0  0  0  0  0  0  0  0  0  0
   -2.2534    1.7151   -1.6845 H   0  0  0  0  0  0  0  0  0  0  0  0
   -1.5299    3.3044   -1.4383 H   0  0  0  0  0  0  0  0  0  0  0  0
   -0.1102    1.8902   -2.8089 S   0  0  0  0  0  0  0  0  0  0  0  0
    1.2488    3.0777   -2.4637 C   0  0  0  0  0  0  0  0  0  0  0  0
    1.7304    2.8436   -1.5100 H   0  0  0  0  0  0  0  0  0  0  0  0
    2.0026    3.0222   -3.2547 H   0  0  0  0  0  0  0  0  0  0  0  0
    0.8598    4.0993   -2.4218 H   0  0  0  0  0  0  0  0  0  0  0  0
    0.4192   -0.0390    1.2496 C   0  0  0  0  0  0  0  0  0  0  0  0
    0.7586    0.8560    2.0167 O   0  0  0  0  0  0  0  0  0  0  0  0
    0.9008   -1.3072    1.5064 N   0  0  0  0  0  0  0  0  0  0  0  0
    0.4124   -2.0602    1.0149 H   0  0  0  0  0  0  0  0  0  0  0  0
    1.6629   -1.6513    2.7001 C   0  0  0  0  0  0  0  0  0  0  0  0
    1.0593   -1.4912    3.5993 H   0  0  0  0  0  0  0  0  0  0  0  0
    1.9621   -2.7031    2.6644 H   0  0  0  0  0  0  0  0  0  0  0  0
    2.5682   -1.0389    2.7681 H   0  0  0  0  0  0  0  0  0  0  0  0
  1  2  1  0  0  0  0
  2  3  1  0  0  0  0
  2  4  1  0  0  0  0
  2  5  1  0  0  0  0
  5  6  2  0  0  0  0
  5  7  1  0  0  0  0
  7  8  1  0  0  0  0
  7  9  1  0  0  0  0
  9 10  1  0  0  0  0
  9 11  1  0  0  0  0
  9 22  1  0  0  0  0
 11 12  1  0  0  0  0
 11 13  1  0  0  0  0
 11 14  1  0  0  0  0
 14 15  1  0  0  0  0
 14 16  1  0  0  0  0
 14 17  1  0  0  0  0
 17 18  1  0  0  0  0
 18 19  1  0  0  0  0
 18 20  1  0  0  0  0
 18 21  1  0  0  0  0
 22 23  2  0  0  0  0
 22 24  1  0  0  0  0
 24 25  1  0  0  0  0
 24 26  1  0  0  0  0
 26 27  1  0  0  0  0
 26 28  1  0  0  0  0
 26 29  1  0  0  0  0
M  END
$$$$

  -OEChem-01062216093D

 29 28  0     1  0  0  0  0  0999 V2000
   -3.6127   -3.0973    0.8906 H   0  0  0  0  0  0  0  0  0  0  0  0
   -3.5430   -2.0802    0.4944 C   0  0  0  0  0  0  0  0  0  0  0  0
   -4.0536   -1.4013    1.1816 H   0  0  0  0  0  0  0  0  0  0  0  0
   -4.0396   -2.0465   -0.4783 H   0  0  0  0  0  0  0  0  0  0  0  0
   -2.0884   -1.6743    0.3494 C   0  0  0  0  0  0  0  0  0  0  0  0
   -1.2141   -2.5007    0.5480 O   0  0  0  0  0  0  0  0  0  0  0  0
   -1.7829   -0.4113   -0.1202 N   0  0  0  0  0  0  0  0  0  0  0  0
   -2.5923    0.1777   -0.2858 H   0  0  0  0  0  0  0  0  0  0  0  0
   -0.4868    0.2955   -0.0035 C   0  0  1  0  0  0  0  0  0  0  0  0
    0.1254    0.0031   -0.8616 H   0  0  0  0  0  0  0  0  0  0  0  0
   -0.7743    1.8130   -0.0979 C   0  0  0  0  0  0  0  0  0  0  0  0
   -1.4945    2.0918    0.6784 H   0  0  0  0  0  0  0  0  0  0  0  0
    0.1467    2.3680    0.1059 H   0  0  0  0  0  0  0  0  0  0  0  0
   -1.3056    2.2599   -1.4692 C   0  0  0  0  0  0  0  0  0  0  0  0
   -2.2467    1.7476   -1.6895 H   0  0  0  0  0  0  0  0  0  0  0  0
   -1.5163    3.3338   -1.4413 H   0  0  0  0  0  0  0  0  0  0  0  0
   -0.1099    1.9201   -2.8268 S   0  0  0  0  0  0  0  0  0  0  0  0
    1.2571    3.0995   -2.4842 C   0  0  0  0  0  0  0  0  0  0  0  0
    1.7444    2.8580   -1.5352 H   0  0  0  0  0  0  0  0  0  0  0  0
    2.0055    3.0461   -3.2805 H   0  0  0  0  0  0  0  0  0  0  0  0
    0.8727    4.1224   -2.4338 H   0  0  0  0  0  0  0  0  0  0  0  0
    0.3952   -0.0250    1.2406 C   0  0  0  0  0  0  0  0  0  0  0  0
    0.5336    0.8016    2.1365 O   0  0  0  0  0  0  0  0  0  0  0  0
    1.0981   -1.2111    1.3283 N   0  0  0  0  0  0  0  0  0  0  0  0
    0.6971   -1.9671    0.7683 H   0  0  0  0  0  0  0  0  0  0  0  0
    1.8579   -1.5875    2.5137 C   0  0  0  0  0  0  0  0  0  0  0  0
    1.1943   -1.6820    3.3794 H   0  0  0  0  0  0  0  0  0  0  0  0
    2.3569   -2.5475    2.3507 H   0  0  0  0  0  0  0  0  0  0  0  0
    2.6232   -0.8364    2.7356 H   0  0  0  0  0  0  0  0  0  0  0  0
  1  2  1  0  0  0  0
  2  3  1  0  0  0  0
  2  4  1  0  0  0  0
  2  5  1  0  0  0  0
  5  6  2  0  0  0  0
  5  7  1  0  0  0  0
  7  8  1  0  0  0  0
  7  9  1  0  0  0  0
  9 10  1  0  0  0  0
  9 11  1  0  0  0  0
  9 22  1  0  0  0  0
 11 12  1  0  0  0  0
 11 13  1  0  0  0  0
 11 14  1  0  0  0  0
 14 15  1  0  0  0  0
 14 16  1  0  0  0  0
 14 17  1  0  0  0  0
 17 18  1  0  0  0  0
 18 19  1  0  0  0  0
 18 20  1  0  0  0  0
 18 21  1  0  0  0  0
 22 23  2  0  0  0  0
 22 24  1  0  0  0  0
 24 25  1  0  0  0  0
 24 26  1  0  0  0  0
 26 27  1  0  0  0  0
 26 28  1  0  0  0  0
 26 29  1  0  0  0  0
M  END
$$$$

  -OEChem-01062216093D

 29 28  0     1  0  0  0  0  0999 V2000
   -3.4921   -3.1248    0.9642 H   0  0  0  0  0  0  0  0  0  0  0  0
   -3.4659   -2.1092    0.5591 C   0  0  0  0  0  0  0  0  0  0  0  0
   -3.9670   -1.4392    1.2619 H   0  0  0  0  0  0  0  0  0  0  0  0
   -4.0009   -2.0958   -0.3934 H   0  0  0  0  0  0  0  0  0  0  0  0
   -2.0299   -1.6658    0.3537 C   0  0  0  0  0  0  0  0  0  0  0  0
   -1.1211   -2.4598    0.5350 O   0  0  0  0  0  0  0  0  0  0  0  0
   -1.7713   -0.4035   -0.1452 N   0  0  0  0  0  0  0  0  0  0  0  0
   -2.5939    0.1781   -0.2646 H   0  0  0  0  0  0  0  0  0  0  0  0
   -0.4813    0.3101   -0.0320 C   0  0  1  0  0  0  0  0  0  0  0  0
    0.1386    0.0220   -0.8861 H   0  0  0  0  0  0  0  0  0  0  0  0
   -0.7631    1.8273   -0.1132 C   0  0  0  0  0  0  0  0  0  0  0  0
   -1.4827    2.1012    0.6656 H   0  0  0  0  0  0  0  0  0  0  0  0
    0.1603    2.3754    0.0984 H   0  0  0  0  0  0  0  0  0  0  0  0
   -1.2997    2.2849   -1.4785 C   0  0  0  0  0  0  0  0  0  0  0  0
   -2.2429    1.7757   -1.6971 H   0  0  0  0  0  0  0  0  0  0  0  0
   -1.5080    3.3590   -1.4428 H   0  0  0  0  0  0  0  0  0  0  0  0
   -0.1113    1.9494   -2.8434 S   0  0  0  0  0  0  0  0  0  0  0  0
    1.2613    3.1217   -2.4999 C   0  0  0  0  0  0  0  0  0  0  0  0
    1.7527    2.8726   -1.5550 H   0  0  0  0  0  0  0  0  0  0  0  0
    2.0048    3.0702   -3.3008 H   0  0  0  0  0  0  0  0  0  0  0  0
    0.8809    4.1457   -2.4415 H   0  0  0  0  0  0  0  0  0  0  0  0
    0.3671   -0.0166    1.2290 C   0  0  0  0  0  0  0  0  0  0  0  0
    0.2989    0.6960    2.2252 O   0  0  0  0  0  0  0  0  0  0  0  0
    1.2872   -1.0472    1.2015 N   0  0  0  0  0  0  0  0  0  0  0  0
    1.0556   -1.7812    0.5322 H   0  0  0  0  0  0  0  0  0  0  0  0
    2.0414   -1.4414    2.3848 C   0  0  0  0  0  0  0  0  0  0  0  0
    1.3637   -1.7870    3.1723 H   0  0  0  0  0  0  0  0  0  0  0  0
    2.7315   -2.2536    2.1377 H   0  0  0  0  0  0  0  0  0  0  0  0
    2.6266   -0.5987    2.7679 H   0  0  0  0  0  0  0  0  0  0  0  0
  1  2  1  0  0  0  0
  2  3  1  0  0  0  0
  2  4  1  0  0  0  0
  2  5  1  0  0  0  0
  5  6  2  0  0  0  0
  5  7  1  0  0  0  0
  7  8  1  0  0  0  0
  7  9  1  0  0  0  0
  9 10  1  0  0  0  0
  9 11  1  0  0  0  0
  9 22  1  0  0  0  0
 11 12  1  0  0  0  0
 11 13  1  0  0  0  0
 11 14  1  0  0  0  0
 14 15  1  0  0  0  0
 14 16  1  0  0  0  0
 14 17  1  0  0  0  0
 17 18  1  0  0  0  0
 18 19  1  0  0  0  0
 18 20  1  0  0  0  0
 18 21  1  0  0  0  0
 22 23  2  0  0  0  0
 22 24  1  0  0  0  0
 24 25  1  0  0  0  0
 24 26  1  0  0  0  0
 26 27  1  0  0  0  0
 26 28  1  0  0  0  0
 26 29  1  0  0  0  0
M  END
$$$$

  -OEChem-01062216093D

 29 28  0     1  0  0  0  0  0999 V2000
   -3.4117   -3.1300    1.0404 H   0  0  0  0  0  0  0  0  0  0  0  0
   -3.4169   -2.1264    0.6057 C   0  0  0  0  0  0  0  0  0  0  0  0
   -3.9157   -1.4465    1.3006 H   0  0  0  0  0  0  0  0  0  0  0  0
   -3.9731   -2.1524   -0.3343 H   0  0  0  0  0  0  0  0  0  0  0  0
   -1.9954   -1.6604    0.3550 C   0  0  0  0  0  0  0  0  0  0  0  0
   -1.0666   -2.4352    0.5205 O   0  0  0  0  0  0  0  0  0  0  0  0
   -1.7690   -0.3995   -0.1640 N   0  0  0  0  0  0  0  0  0  0  0  0
   -2.5998    0.1764   -0.2488 H   0  0  0  0  0  0  0  0  0  0  0  0
   -0.4840    0.3201   -0.0524 C   0  0  1  0  0  0  0  0  0  0  0  0
    0.1386    0.0327   -0.9045 H   0  0  0  0  0  0  0  0  0  0  0  0
   -0.7583    1.8375   -0.1225 C   0  0  0  0  0  0  0  0  0  0  0  0
   -1.4763    2.1096    0.6584 H   0  0  0  0  0  0  0  0  0  0  0  0
    0.1681    2.3791    0.0922 H   0  0  0  0  0  0  0  0  0  0  0  0
   -1.2972    2.3025   -1.4838 C   0  0  0  0  0  0  0  0  0  0  0  0
   -2.2428    1.7970   -1.7008 H   0  0  0  0  0  0  0  0  0  0  0  0
   -1.5015    3.3772   -1.4430 H   0  0  0  0  0  0  0  0  0  0  0  0
   -0.1135    1.9671   -2.8529 S   0  0  0  0  0  0  0  0  0  0  0  0
    1.2652    3.1318   -2.5094 C   0  0  0  0  0  0  0  0  0  0  0  0
    1.7597    2.8754   -1.5682 H   0  0  0  0  0  0  0  0  0  0  0  0
    2.0048    3.0817   -3.3141 H   0  0  0  0  0  0  0  0  0  0  0  0
    0.8893    4.1571   -2.4436 H   0  0  0  0  0  0  0  0  0  0  0  0
    0.3463   -0.0040    1.2174 C   0  0  0  0  0  0  0  0  0  0  0  0
    0.0740    0.5379    2.2837 O   0  0  0  0  0  0  0  0  0  0  0  0
    1.4659   -0.8099    1.1298 N   0  0  0  0  0  0  0  0  0  0  0  0
    1.4795   -1.4308    0.3241 H   0  0  0  0  0  0  0  0  0  0  0  0
    2.2119   -1.2249    2.3110 C   0  0  0  0  0  0  0  0  0  0  0  0
    1.5731   -1.8116    2.9796 H   0  0  0  0  0  0  0  0  0  0  0  0
    3.0682   -1.8403    2.0191 H   0  0  0  0  0  0  0  0  0  0  0  0
    2.5860   -0.3520    2.8563 H   0  0  0  0  0  0  0  0  0  0  0  0
  1  2  1  0  0  0  0
  2  3  1  0  0  0  0
  2  4  1  0  0  0  0
  2  5  1  0  0  0  0
  5  6  2  0  0  0  0
  5  7  1  0  0  0  0
  7  8  1  0  0  0  0
  7  9  1  0  0  0  0
  9 10  1  0  0  0  0
  9 11  1  0  0  0  0
  9 22  1  0  0  0  0
 11 12  1  0  0  0  0
 11 13  1  0  0  0  0
 11 14  1  0  0  0  0
 14 15  1  0  0  0  0
 14 16  1  0  0  0  0
 14 17  1  0  0  0  0
 17 18  1  0  0  0  0
 18 19  1  0  0  0  0
 18 20  1  0  0  0  0
 18 21  1  0  0  0  0
 22 23  2  0  0  0  0
 22 24  1  0  0  0  0
 24 25  1  0  0  0  0
 24 26  1  0  0  0  0
 26 27  1  0  0  0  0
 26 28  1  0  0  0  0
 26 29  1  0  0  0  0
M  END
$$$$

  -OEChem-01062216093D

 29 28  0     1  0  0  0  0  0999 V2000
   -3.3875   -3.1390    1.0412 H   0  0  0  0  0  0  0  0  0  0  0  0
   -3.3986   -2.1251    0.6315 C   0  0  0  0  0  0  0  0  0  0  0  0
   -3.8704   -1.4590    1.3579 H   0  0  0  0  0  0  0  0  0  0  0  0
   -3.9838   -2.1236   -0.2911 H   0  0  0  0  0  0  0  0  0  0  0  0
   -1.9826   -1.6616    0.3480 C   0  0  0  0  0  0  0  0  0  0  0  0
   -1.0495   -2.4354    0.4947 O   0  0  0  0  0  0  0  0  0  0  0  0
   -1.7675   -0.4040   -0.1836 N   0  0  0  0  0  0  0  0  0  0  0  0
   -2.6000    0.1726   -0.2390 H   0  0  0  0  0  0  0  0  0  0  0  0
   -0.4837    0.3161   -0.0681 C   0  0  1  0  0  0  0  0  0  0  0  0
    0.1419    0.0273   -0.9173 H   0  0  0  0  0  0  0  0  0  0  0  0
   -0.7572    1.8329   -0.1305 C   0  0  0  0  0  0  0  0  0  0  0  0
   -1.4754    2.1013    0.6518 H   0  0  0  0  0  0  0  0  0  0  0  0
    0.1693    2.3731    0.0872 H   0  0  0  0  0  0  0  0  0  0  0  0
   -1.2955    2.3033   -1.4904 C   0  0  0  0  0  0  0  0  0  0  0  0
   -2.2405    1.7976   -1.7099 H   0  0  0  0  0  0  0  0  0  0  0  0
   -1.5009    3.3776   -1.4463 H   0  0  0  0  0  0  0  0  0  0  0  0
   -0.1111    1.9737   -2.8604 S   0  0  0  0  0  0  0  0  0  0  0  0
    1.2659    3.1384   -2.5100 C   0  0  0  0  0  0  0  0  0  0  0  0
    1.7597    2.8781   -1.5696 H   0  0  0  0  0  0  0  0  0  0  0  0
    2.0063    3.0936   -3.3142 H   0  0  0  0  0  0  0  0  0  0  0  0
    0.8881    4.1628   -2.4395 H   0  0  0  0  0  0  0  0  0  0  0  0
    0.3327   -0.0029    1.2105 C   0  0  0  0  0  0  0  0  0  0  0  0
   -0.0918    0.3523    2.3052 O   0  0  0  0  0  0  0  0  0  0  0  0
    1.6031   -0.5406    1.1146 N   0  0  0  0  0  0  0  0  0  0  0  0
    1.8212   -0.9958    0.2326 H   0  0  0  0  0  0  0  0  0  0  0  0
    2.3661   -0.9362    2.2920 C   0  0  0  0  0  0  0  0  0  0  0  0
    1.8363   -1.7197    2.8440 H   0  0  0  0  0  0  0  0  0  0  0  0
    3.3463   -1.3215    1.9954 H   0  0  0  0  0  0  0  0  0  0  0  0
    2.5207   -0.0798    2.9566 H   0  0  0  0  0  0  0  0  0  0  0  0
  1  2  1  0  0  0  0
  2  3  1  0  0  0  0
  2  4  1  0  0  0  0
  2  5  1  0  0  0  0
  5  6  2  0  0  0  0
  5  7  1  0  0  0  0
  7  8  1  0  0  0  0
  7  9  1  0  0  0  0
  9 10  1  0  0  0  0
  9 11  1  0  0  0  0
  9 22  1  0  0  0  0
 11 12  1  0  0  0  0
 11 13  1  0  0  0  0
 11 14  1  0  0  0  0
 14 15  1  0  0  0  0
 14 16  1  0  0  0  0
 14 17  1  0  0  0  0
 17 18  1  0  0  0  0
 18 19  1  0  0  0  0
 18 20  1  0  0  0  0
 18 21  1  0  0  0  0
 22 23  2  0  0  0  0
 22 24  1  0  0  0  0
 24 25  1  0  0  0  0
 24 26  1  0  0  0  0
 26 27  1  0  0  0  0
 26 28  1  0  0  0  0
 26 29  1  0  0  0  0
M  END
$$$$

  -OEChem-01062216093D

 29 28  0     1  0  0  0  0  0999 V2000
   -3.3939   -3.1436    1.0381 H   0  0  0  0  0  0  0  0  0  0  0  0
   -3.4042   -2.1236    0.6438 C   0  0  0  0  0  0  0  0  0  0  0  0
   -3.8470   -1.4631    1.3931 H   0  0  0  0  0  0  0  0  0  0  0  0
   -4.0150   -2.1016   -0.2618 H   0  0  0  0  0  0  0  0  0  0  0  0
   -1.9907   -1.6722    0.3290 C   0  0  0  0  0  0  0  0  0  0  0  0
   -1.0611   -2.4550    0.4477 O   0  0  0  0  0  0  0  0  0  0  0  0
   -1.7751   -0.4157   -0.2053 N   0  0  0  0  0  0  0  0  0  0  0  0
   -2.6053    0.1654   -0.2410 H   0  0  0  0  0  0  0  0  0  0  0  0
   -0.4893    0.2995   -0.0782 C   0  0  1  0  0  0  0  0  0  0  0  0
    0.1407    0.0094   -0.9237 H   0  0  0  0  0  0  0  0  0  0  0  0
   -0.7589    1.8168   -0.1303 C   0  0  0  0  0  0  0  0  0  0  0  0
   -1.4803    2.0795    0.6509 H   0  0  0  0  0  0  0  0  0  0  0  0
    0.1672    2.3542    0.0961 H   0  0  0  0  0  0  0  0  0  0  0  0
   -1.2895    2.2979   -1.4890 C   0  0  0  0  0  0  0  0  0  0  0  0
   -2.2348    1.7962   -1.7168 H   0  0  0  0  0  0  0  0  0  0  0  0
   -1.4923    3.3724   -1.4380 H   0  0  0  0  0  0  0  0  0  0  0  0
   -0.0989    1.9756   -2.8552 S   0  0  0  0  0  0  0  0  0  0  0  0
    1.2786    3.1348   -2.4899 C   0  0  0  0  0  0  0  0  0  0  0  0
    1.7659    2.8685   -1.5479 H   0  0  0  0  0  0  0  0  0  0  0  0
    2.0240    3.0928   -3.2898 H   0  0  0  0  0  0  0  0  0  0  0  0
    0.9020    4.1593   -2.4161 H   0  0  0  0  0  0  0  0  0  0  0  0
    0.3193   -0.0155    1.2059 C   0  0  0  0  0  0  0  0  0  0  0  0
   -0.1992    0.1561    2.3045 O   0  0  0  0  0  0  0  0  0  0  0  0
    1.6791   -0.2577    1.1323 N   0  0  0  0  0  0  0  0  0  0  0  0
    2.0405   -0.5186    0.2196 H   0  0  0  0  0  0  0  0  0  0  0  0
    2.4779   -0.5795    2.3085 C   0  0  0  0  0  0  0  0  0  0  0  0
    2.1107   -1.4973    2.7800 H   0  0  0  0  0  0  0  0  0  0  0  0
    3.5244   -0.7284    2.0260 H   0  0  0  0  0  0  0  0  0  0  0  0
    2.4314    0.2349    3.0394 H   0  0  0  0  0  0  0  0  0  0  0  0
  1  2  1  0  0  0  0
  2  3  1  0  0  0  0
  2  4  1  0  0  0  0
  2  5  1  0  0  0  0
  5  6  2  0  0  0  0
  5  7  1  0  0  0  0
  7  8  1  0  0  0  0
  7  9  1  0  0  0  0
  9 10  1  0  0  0  0
  9 11  1  0  0  0  0
  9 22  1  0  0  0  0
 11 12  1  0  0  0  0
 11 13  1  0  0  0  0
 11 14  1  0  0  0  0
 14 15  1  0  0  0  0
 14 16  1  0  0  0  0
 14 17  1  0  0  0  0
 17 18  1  0  0  0  0
 18 19  1  0  0  0  0
 18 20  1  0  0  0  0
 18 21  1  0  0  0  0
 22 23  2  0  0  0  0
 22 24  1  0  0  0  0
 24 25  1  0  0  0  0
 24 26  1  0  0  0  0
 26 27  1  0  0  0  0
 26 28  1  0  0  0  0
 26 29  1  0  0  0  0
M  END
$$$$

  -OEChem-01062216093D

 29 28  0     1  0  0  0  0  0999 V2000
   -3.3945   -3.1358    1.0623 H   0  0  0  0  0  0  0  0  0  0  0  0
   -3.4074   -2.1212    0.6545 C   0  0  0  0  0  0  0  0  0  0  0  0
   -3.8293   -1.4479    1.4045 H   0  0  0  0  0  0  0  0  0  0  0  0
   -4.0371   -2.1067   -0.2382 H   0  0  0  0  0  0  0  0  0  0  0  0
   -1.9980   -1.6843    0.3036 C   0  0  0  0  0  0  0  0  0  0  0  0
   -1.0760   -2.4820    0.3764 O   0  0  0  0  0  0  0  0  0  0  0  0
   -1.7804   -0.4257   -0.2256 N   0  0  0  0  0  0  0  0  0  0  0  0
   -2.6070    0.1611   -0.2330 H   0  0  0  0  0  0  0  0  0  0  0  0
   -0.4911    0.2816   -0.0848 C   0  0  1  0  0  0  0  0  0  0  0  0
    0.1426   -0.0061   -0.9285 H   0  0  0  0  0  0  0  0  0  0  0  0
   -0.7609    1.7994   -0.1258 C   0  0  0  0  0  0  0  0  0  0  0  0
   -1.4866    2.0547    0.6539 H   0  0  0  0  0  0  0  0  0  0  0  0
    0.1628    2.3367    0.1092 H   0  0  0  0  0  0  0  0  0  0  0  0
   -1.2839    2.2920   -1.4834 C   0  0  0  0  0  0  0  0  0  0  0  0
   -2.2271    1.7911   -1.7212 H   0  0  0  0  0  0  0  0  0  0  0  0
   -1.4887    3.3658   -1.4248 H   0  0  0  0  0  0  0  0  0  0  0  0
   -0.0847    1.9815   -2.8451 S   0  0  0  0  0  0  0  0  0  0  0  0
    1.2934    3.1362   -2.4669 C   0  0  0  0  0  0  0  0  0  0  0  0
    1.7749    2.8658   -1.5231 H   0  0  0  0  0  0  0  0  0  0  0  0
    2.0429    3.0956   -3.2630 H   0  0  0  0  0  0  0  0  0  0  0  0
    0.9193    4.1615   -2.3925 H   0  0  0  0  0  0  0  0  0  0  0  0
    0.3140   -0.0374    1.2013 C   0  0  0  0  0  0  0  0  0  0  0  0
   -0.2561   -0.0506    2.2878 O   0  0  0  0  0  0  0  0  0  0  0  0
    1.6963    0.0235    1.1815 N   0  0  0  0  0  0  0  0  0  0  0  0
    2.1415   -0.0387    0.2708 H   0  0  0  0  0  0  0  0  0  0  0  0
    2.5089   -0.2105    2.3694 C   0  0  0  0  0  0  0  0  0  0  0  0
    2.3165   -1.2101    2.7737 H   0  0  0  0  0  0  0  0  0  0  0  0
    3.5720   -0.1351    2.1217 H   0  0  0  0  0  0  0  0  0  0  0  0
    2.2816    0.5315    3.1421 H   0  0  0  0  0  0  0  0  0  0  0  0
  1  2  1  0  0  0  0
  2  3  1  0  0  0  0
  2  4  1  0  0  0  0
  2  5  1  0  0  0  0
  5  6  2  0  0  0  0
  5  7  1  0  0  0  0
  7  8  1  0  0  0  0
  7  9  1  0  0  0  0
  9 10  1  0  0  0  0
  9 11  1  0  0  0  0
  9 22  1  0  0  0  0
 11 12  1  0  0  0  0
 11 13  1  0  0  0  0
 11 14  1  0  0  0  0
 14 15  1  0  0  0  0
 14 16  1  0  0  0  0
 14 17  1  0  0  0  0
 17 18  1  0  0  0  0
 18 19  1  0  0  0  0
 18 20  1  0  0  0  0
 18 21  1  0  0  0  0
 22 23  2  0  0  0  0
 22 24  1  0  0  0  0
 24 25  1  0  0  0  0
 24 26  1  0  0  0  0
 26 27  1  0  0  0  0
 26 28  1  0  0  0  0
 26 29  1  0  0  0  0
M  END
$$$$

  -OEChem-01062216093D

 29 28  0     1  0  0  0  0  0999 V2000
   -3.4168   -3.1456    1.0167 H   0  0  0  0  0  0  0  0  0  0  0  0
   -3.4151   -2.1104    0.6642 C   0  0  0  0  0  0  0  0  0  0  0  0
   -3.7855   -1.4668    1.4657 H   0  0  0  0  0  0  0  0  0  0  0  0
   -4.0795   -2.0299   -0.1992 H   0  0  0  0  0  0  0  0  0  0  0  0
   -2.0082   -1.6948    0.2793 C   0  0  0  0  0  0  0  0  0  0  0  0
   -1.1008   -2.5119    0.3041 O   0  0  0  0  0  0  0  0  0  0  0  0
   -1.7798   -0.4347   -0.2415 N   0  0  0  0  0  0  0  0  0  0  0  0
   -2.6001    0.1605   -0.2284 H   0  0  0  0  0  0  0  0  0  0  0  0
   -0.4848    0.2605   -0.0860 C   0  0  1  0  0  0  0  0  0  0  0  0
    0.1520   -0.0257   -0.9279 H   0  0  0  0  0  0  0  0  0  0  0  0
   -0.7632    1.7783   -0.1234 C   0  0  0  0  0  0  0  0  0  0  0  0
   -1.4974    2.0249    0.6510 H   0  0  0  0  0  0  0  0  0  0  0  0
    0.1527    2.3241    0.1207 H   0  0  0  0  0  0  0  0  0  0  0  0
   -1.2777    2.2738   -1.4837 C   0  0  0  0  0  0  0  0  0  0  0  0
   -2.2156    1.7683   -1.7330 H   0  0  0  0  0  0  0  0  0  0  0  0
   -1.4895    3.3461   -1.4230 H   0  0  0  0  0  0  0  0  0  0  0  0
   -0.0637    1.9751   -2.8350 S   0  0  0  0  0  0  0  0  0  0  0  0
    1.3028    3.1372   -2.4371 C   0  0  0  0  0  0  0  0  0  0  0  0
    1.7730    2.8690   -1.4871 H   0  0  0  0  0  0  0  0  0  0  0  0
    2.0634    3.1014   -3.2229 H   0  0  0  0  0  0  0  0  0  0  0  0
    0.9215    4.1603   -2.3668 H   0  0  0  0  0  0  0  0  0  0  0  0
    0.3242   -0.0595    1.2002 C   0  0  0  0  0  0  0  0  0  0  0  0
   -0.2589   -0.2579    2.2614 O   0  0  0  0  0  0  0  0  0  0  0  0
    1.6611    0.2957    1.2623 N   0  0  0  0  0  0  0  0  0  0  0  0
    2.1392    0.4320    0.3769 H   0  0  0  0  0  0  0  0  0  0  0  0
    2.4631    0.1496    2.4715 C   0  0  0  0  0  0  0  0  0  0  0  0
    2.4639   -0.8929    2.8069 H   0  0  0  0  0  0  0  0  0  0  0  0
    3.4966    0.4528    2.2790 H   0  0  0  0  0  0  0  0  0  0  0  0
    2.0636    0.7774    3.2748 H   0  0  0  0  0  0  0  0  0  0  0  0
  1  2  1  0  0  0  0
  2  3  1  0  0  0  0
  2  4  1  0  0  0  0
  2  5  1  0  0  0  0
  5  6  2  0  0  0  0
  5  7  1  0  0  0  0
  7  8  1  0  0  0  0
  7  9  1  0  0  0  0
  9 10  1  0  0  0  0
  9 11  1  0  0  0  0
  9 22  1  0  0  0  0
 11 12  1  0  0  0  0
 11 13  1  0  0  0  0
 11 14  1  0  0  0  0
 14 15  1  0  0  0  0
 14 16  1  0  0  0  0
 14 17  1  0  0  0  0
 17 18  1  0  0  0  0
 18 19  1  0  0  0  0
 18 20  1  0  0  0  0
 18 21  1  0  0  0  0
 22 23  2  0  0  0  0
 22 24  1  0  0  0  0
 24 25  1  0  0  0  0
 24 26  1  0  0  0  0
 26 27  1  0  0  0  0
 26 28  1  0  0  0  0
 26 29  1  0  0  0  0
M  END
$$$$

  -OEChem-01062216093D

 29 28  0     1  0  0  0  0  0999 V2000
   -3.5286   -3.0845    0.9879 H   0  0  0  0  0  0  0  0  0  0  0  0
   -3.4655   -2.0359    0.6841 C   0  0  0  0  0  0  0  0  0  0  0  0
   -3.7156   -1.4079    1.5423 H   0  0  0  0  0  0  0  0  0  0  0  0
   -4.1851   -1.8557   -0.1177 H   0  0  0  0  0  0  0  0  0  0  0  0
   -2.0619   -1.7182    0.2053 C   0  0  0  0  0  0  0  0  0  0  0  0
   -1.2597   -2.6219    0.0353 O   0  0  0  0  0  0  0  0  0  0  0  0
   -1.7677   -0.4562   -0.2747 N   0  0  0  0  0  0  0  0  0  0  0  0
   -2.5663    0.1662   -0.2406 H   0  0  0  0  0  0  0  0  0  0  0  0
   -0.4586    0.2138   -0.0941 C   0  0  1  0  0  0  0  0  0  0  0  0
    0.0720    0.1547   -1.0486 H   0  0  0  0  0  0  0  0  0  0  0  0
   -0.7787    1.6904    0.2457 C   0  0  0  0  0  0  0  0  0  0  0  0
   -1.4328    1.7183    1.1239 H   0  0  0  0  0  0  0  0  0  0  0  0
    0.1378    2.2202    0.5179 H   0  0  0  0  0  0  0  0  0  0  0  0
   -1.4436    2.4596   -0.9069 C   0  0  0  0  0  0  0  0  0  0  0  0
   -2.3920    1.9859   -1.1777 H   0  0  0  0  0  0  0  0  0  0  0  0
   -1.6704    3.4791   -0.5788 H   0  0  0  0  0  0  0  0  0  0  0  0
   -0.3676    2.5342   -2.3982 S   0  0  0  0  0  0  0  0  0  0  0  0
    1.0070    3.6364   -1.8774 C   0  0  0  0  0  0  0  0  0  0  0  0
    1.5803    3.1811   -1.0656 H   0  0  0  0  0  0  0  0  0  0  0  0
    1.6815    3.8149   -2.7204 H   0  0  0  0  0  0  0  0  0  0  0  0
    0.6133    4.5985   -1.5362 H   0  0  0  0  0  0  0  0  0  0  0  0
    0.5401   -0.3398    0.9681 C   0  0  0  0  0  0  0  0  0  0  0  0
    0.1392   -0.9360    1.9609 O   0  0  0  0  0  0  0  0  0  0  0  0
    1.7650    0.2932    1.1171 N   0  0  0  0  0  0  0  0  0  0  0  0
    2.1071    0.8204    0.3201 H   0  0  0  0  0  0  0  0  0  0  0  0
    2.6891    0.0094    2.2106 C   0  0  0  0  0  0  0  0  0  0  0  0
    2.9329   -1.0580    2.2395 H   0  0  0  0  0  0  0  0  0  0  0  0
    3.6173    0.5727    2.0767 H   0  0  0  0  0  0  0  0  0  0  0  0
    2.2475    0.2957    3.1711 H   0  0  0  0  0  0  0  0  0  0  0  0
  1  2  1  0  0  0  0
  2  3  1  0  0  0  0
  2  4  1  0  0  0  0
  2  5  1  0  0  0  0
  5  6  2  0  0  0  0
  5  7  1  0  0  0  0
  7  8  1  0  0  0  0
  7  9  1  0  0  0  0
  9 10  1  0  0  0  0
  9 11  1  0  0  0  0
  9 22  1  0  0  0  0
 11 12  1  0  0  0  0
 11 13  1  0  0  0  0
 11 14  1  0  0  0  0
 14 15  1  0  0  0  0
 14 16  1  0  0  0  0
 14 17  1  0  0  0  0
 17 18  1  0  0  0  0
 18 19  1  0  0  0  0
 18 20  1  0  0  0  0
 18 21  1  0  0  0  0
 22 23  2  0  0  0  0
 22 24  1  0  0  0  0
 24 25  1  0  0  0  0
 24 26  1  0  0  0  0
 26 27  1  0  0  0  0
 26 28  1  0  0  0  0
 26 29  1  0  0  0  0
M  END
$$$$

  -OEChem-01062216093D

 29 28  0     1  0  0  0  0  0999 V2000
   -3.5251   -3.0686    0.9958 H   0  0  0  0  0  0  0  0  0  0  0  0
   -3.4464   -2.0145    0.7147 C   0  0  0  0  0  0  0  0  0  0  0  0
   -3.6411   -1.4021    1.5981 H   0  0  0  0  0  0  0  0  0  0  0  0
   -4.1957   -1.7952   -0.0493 H   0  0  0  0  0  0  0  0  0  0  0  0
   -2.0569   -1.7231    0.1809 C   0  0  0  0  0  0  0  0  0  0  0  0
   -1.3101   -2.6473   -0.0936 O   0  0  0  0  0  0  0  0  0  0  0  0
   -1.7479   -0.4562   -0.2750 N   0  0  0  0  0  0  0  0  0  0  0  0
   -2.5446    0.1667   -0.2211 H   0  0  0  0  0  0  0  0  0  0  0  0
   -0.4427    0.2204   -0.0763 C   0  0  1  0  0  0  0  0  0  0  0  0
    0.0968    0.1624   -1.0260 H   0  0  0  0  0  0  0  0  0  0  0  0
   -0.8020    1.6985    0.2328 C   0  0  0  0  0  0  0  0  0  0  0  0
   -1.4759    1.7271    1.0957 H   0  0  0  0  0  0  0  0  0  0  0  0
    0.0914    2.2616    0.5114 H   0  0  0  0  0  0  0  0  0  0  0  0
   -1.4535    2.4365   -0.9489 C   0  0  0  0  0  0  0  0  0  0  0  0
   -2.3847    1.9393   -1.2362 H   0  0  0  0  0  0  0  0  0  0  0  0
   -1.7101    3.4558   -0.6426 H   0  0  0  0  0  0  0  0  0  0  0  0
   -0.3437    2.5116   -2.4152 S   0  0  0  0  0  0  0  0  0  0  0  0
    0.9972    3.6494   -1.8838 C   0  0  0  0  0  0  0  0  0  0  0  0
    1.5629    3.2185   -1.0533 H   0  0  0  0  0  0  0  0  0  0  0  0
    1.6851    3.8280   -2.7157 H   0  0  0  0  0  0  0  0  0  0  0  0
    0.5771    4.6085   -1.5668 H   0  0  0  0  0  0  0  0  0  0  0  0
    0.5722   -0.3205    0.9865 C   0  0  0  0  0  0  0  0  0  0  0  0
    0.2769   -1.1883    1.7962 O   0  0  0  0  0  0  0  0  0  0  0  0
    1.6360    0.4826    1.3726 N   0  0  0  0  0  0  0  0  0  0  0  0
    1.9012    1.2280    0.7375 H   0  0  0  0  0  0  0  0  0  0  0  0
    2.5305    0.1646    2.4819 C   0  0  0  0  0  0  0  0  0  0  0  0
    2.9827   -0.8228    2.3390 H   0  0  0  0  0  0  0  0  0  0  0  0
    3.3328    0.9058    2.5464 H   0  0  0  0  0  0  0  0  0  0  0  0
    1.9822    0.1669    3.4300 H   0  0  0  0  0  0  0  0  0  0  0  0
  1  2  1  0  0  0  0
  2  3  1  0  0  0  0
  2  4  1  0  0  0  0
  2  5  1  0  0  0  0
  5  6  2  0  0  0  0
  5  7  1  0  0  0  0
  7  8  1  0  0  0  0
  7  9  1  0  0  0  0
  9 10  1  0  0  0  0
  9 11  1  0  0  0  0
  9 22  1  0  0  0  0
 11 12  1  0  0  0  0
 11 13  1  0  0  0  0
 11 14  1  0  0  0  0
 14 15  1  0  0  0  0
 14 16  1  0  0  0  0
 14 17  1  0  0  0  0
 17 18  1  0  0  0  0
 18 19  1  0  0  0  0
 18 20  1  0  0  0  0
 18 21  1  0  0  0  0
 22 23  2  0  0  0  0
 22 24  1  0  0  0  0
 24 25  1  0  0  0  0
 24 26  1  0  0  0  0
 26 27  1  0  0  0  0
 26 28  1  0  0  0  0
 26 29  1  0  0  0  0
M  END
$$$$

  -OEChem-01062216093D

 29 28  0     1  0  0  0  0  0999 V2000
   -3.4492   -3.1833    0.7520 H   0  0  0  0  0  0  0  0  0  0  0  0
   -3.2829   -2.2946    0.1366 C   0  0  0  0  0  0  0  0  0  0  0  0
   -4.2419   -1.8027   -0.0418 H   0  0  0  0  0  0  0  0  0  0  0  0
   -2.8547   -2.6069   -0.8188 H   0  0  0  0  0  0  0  0  0  0  0  0
   -2.3336   -1.3456    0.8433 C   0  0  0  0  0  0  0  0  0  0  0  0
   -2.1166   -1.4924    2.0339 O   0  0  0  0  0  0  0  0  0  0  0  0
   -1.9756   -0.1584    0.2340 N   0  0  0  0  0  0  0  0  0  0  0  0
   -2.4567   -0.0400   -0.6516 H   0  0  0  0  0  0  0  0  0  0  0  0
   -0.6029    0.4019    0.2183 C   0  0  1  0  0  0  0  0  0  0  0  0
   -0.1720    0.2254   -0.7715 H   0  0  0  0  0  0  0  0  0  0  0  0
   -0.7839    1.9246    0.4377 C   0  0  0  0  0  0  0  0  0  0  0  0
   -1.3404    2.0868    1.3673 H   0  0  0  0  0  0  0  0  0  0  0  0
    0.1872    2.4121    0.5477 H   0  0  0  0  0  0  0  0  0  0  0  0
   -1.5121    2.6247   -0.7207 C   0  0  0  0  0  0  0  0  0  0  0  0
   -2.5152    2.2034   -0.8383 H   0  0  0  0  0  0  0  0  0  0  0  0
   -1.6342    3.6858   -0.4803 H   0  0  0  0  0  0  0  0  0  0  0  0
   -0.6022    2.4734   -2.3134 S   0  0  0  0  0  0  0  0  0  0  0  0
    0.8905    3.5127   -2.0535 C   0  0  0  0  0  0  0  0  0  0  0  0
    1.5320    3.0779   -1.2821 H   0  0  0  0  0  0  0  0  0  0  0  0
    1.4645    3.5802   -2.9827 H   0  0  0  0  0  0  0  0  0  0  0  0
    0.6019    4.5225   -1.7471 H   0  0  0  0  0  0  0  0  0  0  0  0
    0.4459   -0.1926    1.2090 C   0  0  0  0  0  0  0  0  0  0  0  0
    0.6597   -1.3984    1.1789 O   0  0  0  0  0  0  0  0  0  0  0  0
    1.4787    0.5793    1.7209 N   0  0  0  0  0  0  0  0  0  0  0  0
    1.3367    1.5829    1.7397 H   0  0  0  0  0  0  0  0  0  0  0  0
    2.5867    0.0222    2.4904 C   0  0  0  0  0  0  0  0  0  0  0  0
    3.1796   -0.6597    1.8714 H   0  0  0  0  0  0  0  0  0  0  0  0
    3.2420    0.8235    2.8447 H   0  0  0  0  0  0  0  0  0  0  0  0
    2.2108   -0.5282    3.3596 H   0  0  0  0  0  0  0  0  0  0  0  0
  1  2  1  0  0  0  0
  2  3  1  0  0  0  0
  2  4  1  0  0  0  0
  2  5  1  0  0  0  0
  5  6  2  0  0  0  0
  5  7  1  0  0  0  0
  7  8  1  0  0  0  0
  7  9  1  0  0  0  0
  9 10  1  0  0  0  0
  9 11  1  0  0  0  0
  9 22  1  0  0  0  0
 11 12  1  0  0  0  0
 11 13  1  0  0  0  0
 11 14  1  0  0  0  0
 14 15  1  0  0  0  0
 14 16  1  0  0  0  0
 14 17  1  0  0  0  0
 17 18  1  0  0  0  0
 18 19  1  0  0  0  0
 18 20  1  0  0  0  0
 18 21  1  0  0  0  0
 22 23  2  0  0  0  0
 22 24  1  0  0  0  0
 24 25  1  0  0  0  0
 24 26  1  0  0  0  0
 26 27  1  0  0  0  0
 26 28  1  0  0  0  0
 26 29  1  0  0  0  0
M  END
$$$$

  -OEChem-01062216093D

 29 28  0     1  0  0  0  0  0999 V2000
   -3.4627   -3.1829    0.7452 H   0  0  0  0  0  0  0  0  0  0  0  0
   -3.3223   -2.2765    0.1494 C   0  0  0  0  0  0  0  0  0  0  0  0
   -4.2818   -1.7627    0.0554 H   0  0  0  0  0  0  0  0  0  0  0  0
   -2.9679   -2.5633   -0.8435 H   0  0  0  0  0  0  0  0  0  0  0  0
   -2.3080   -1.3683    0.8182 C   0  0  0  0  0  0  0  0  0  0  0  0
   -1.9928   -1.5772    1.9771 O   0  0  0  0  0  0  0  0  0  0  0  0
   -1.9641   -0.1726    0.2154 N   0  0  0  0  0  0  0  0  0  0  0  0
   -2.4670   -0.0328   -0.6552 H   0  0  0  0  0  0  0  0  0  0  0  0
   -0.5994    0.4051    0.1998 C   0  0  1  0  0  0  0  0  0  0  0  0
   -0.1653    0.2304   -0.7891 H   0  0  0  0  0  0  0  0  0  0  0  0
   -0.7801    1.9271    0.4157 C   0  0  0  0  0  0  0  0  0  0  0  0
   -1.3344    2.0930    1.3457 H   0  0  0  0  0  0  0  0  0  0  0  0
    0.1956    2.4081    0.5221 H   0  0  0  0  0  0  0  0  0  0  0  0
   -1.5095    2.6263   -0.7423 C   0  0  0  0  0  0  0  0  0  0  0  0
   -2.5126    2.2049   -0.8582 H   0  0  0  0  0  0  0  0  0  0  0  0
   -1.6306    3.6876   -0.5029 H   0  0  0  0  0  0  0  0  0  0  0  0
   -0.6016    2.4727   -2.3356 S   0  0  0  0  0  0  0  0  0  0  0  0
    0.8914    3.5119   -2.0761 C   0  0  0  0  0  0  0  0  0  0  0  0
    1.5315    3.0789   -1.3022 H   0  0  0  0  0  0  0  0  0  0  0  0
    1.4666    3.5760   -3.0046 H   0  0  0  0  0  0  0  0  0  0  0  0
    0.6035    4.5230   -1.7732 H   0  0  0  0  0  0  0  0  0  0  0  0
    0.4435   -0.1936    1.1910 C   0  0  0  0  0  0  0  0  0  0  0  0
    0.8055   -1.3502    1.0092 O   0  0  0  0  0  0  0  0  0  0  0  0
    1.2807    0.6028    1.9578 N   0  0  0  0  0  0  0  0  0  0  0  0
    0.9628    1.5476    2.1442 H   0  0  0  0  0  0  0  0  0  0  0  0
    2.3476    0.0559    2.7891 C   0  0  0  0  0  0  0  0  0  0  0  0
    3.0965   -0.4489    2.1696 H   0  0  0  0  0  0  0  0  0  0  0  0
    2.8440    0.8576    3.3440 H   0  0  0  0  0  0  0  0  0  0  0  0
    1.9419   -0.6641    3.5079 H   0  0  0  0  0  0  0  0  0  0  0  0
  1  2  1  0  0  0  0
  2  3  1  0  0  0  0
  2  4  1  0  0  0  0
  2  5  1  0  0  0  0
  5  6  2  0  0  0  0
  5  7  1  0  0  0  0
  7  8  1  0  0  0  0
  7  9  1  0  0  0  0
  9 10  1  0  0  0  0
  9 11  1  0  0  0  0
  9 22  1  0  0  0  0
 11 12  1  0  0  0  0
 11 13  1  0  0  0  0
 11 14  1  0  0  0  0
 14 15  1  0  0  0  0
 14 16  1  0  0  0  0
 14 17  1  0  0  0  0
 17 18  1  0  0  0  0
 18 19  1  0  0  0  0
 18 20  1  0  0  0  0
 18 21  1  0  0  0  0
 22 23  2  0  0  0  0
 22 24  1  0  0  0  0
 24 25  1  0  0  0  0
 24 26  1  0  0  0  0
 26 27  1  0  0  0  0
 26 28  1  0  0  0  0
 26 29  1  0  0  0  0
M  END
$$$$

  -OEChem-01062216093D

 29 28  0     1  0  0  0  0  0999 V2000
   -3.5101   -3.1811    0.7204 H   0  0  0  0  0  0  0  0  0  0  0  0
   -3.3886   -2.2490    0.1609 C   0  0  0  0  0  0  0  0  0  0  0  0
   -4.3309   -1.6967    0.1863 H   0  0  0  0  0  0  0  0  0  0  0  0
   -3.1421   -2.4936   -0.8751 H   0  0  0  0  0  0  0  0  0  0  0  0
   -2.2796   -1.4153    0.7748 C   0  0  0  0  0  0  0  0  0  0  0  0
   -1.8476   -1.7211    1.8723 O   0  0  0  0  0  0  0  0  0  0  0  0
   -1.9377   -0.2102    0.1876 N   0  0  0  0  0  0  0  0  0  0  0  0
   -2.4713   -0.0284   -0.6565 H   0  0  0  0  0  0  0  0  0  0  0  0
   -0.5844    0.3931    0.1813 C   0  0  1  0  0  0  0  0  0  0  0  0
   -0.1460    0.2272   -0.8075 H   0  0  0  0  0  0  0  0  0  0  0  0
   -0.7751    1.9123    0.4004 C   0  0  0  0  0  0  0  0  0  0  0  0
   -1.3355    2.0739    1.3273 H   0  0  0  0  0  0  0  0  0  0  0  0
    0.2012    2.3920    0.5157 H   0  0  0  0  0  0  0  0  0  0  0  0
   -1.5041    2.6118   -0.7576 C   0  0  0  0  0  0  0  0  0  0  0  0
   -2.5045    2.1855   -0.8779 H   0  0  0  0  0  0  0  0  0  0  0  0
   -1.6307    3.6717   -0.5147 H   0  0  0  0  0  0  0  0  0  0  0  0
   -0.5921    2.4709   -2.3498 S   0  0  0  0  0  0  0  0  0  0  0  0
    0.8936    3.5180   -2.0810 C   0  0  0  0  0  0  0  0  0  0  0  0
    1.5281    3.0918   -1.2987 H   0  0  0  0  0  0  0  0  0  0  0  0
    1.4778    3.5806   -3.0040 H   0  0  0  0  0  0  0  0  0  0  0  0
    0.5977    4.5290   -1.7856 H   0  0  0  0  0  0  0  0  0  0  0  0
    0.4633   -0.1926    1.1723 C   0  0  0  0  0  0  0  0  0  0  0  0
    0.9967   -1.2555    0.8776 O   0  0  0  0  0  0  0  0  0  0  0  0
    1.0653    0.5731    2.1590 N   0  0  0  0  0  0  0  0  0  0  0  0
    0.5634    1.4052    2.4498 H   0  0  0  0  0  0  0  0  0  0  0  0
    2.0852    0.0356    3.0527 C   0  0  0  0  0  0  0  0  0  0  0  0
    2.9691   -0.2735    2.4849 H   0  0  0  0  0  0  0  0  0  0  0  0
    2.3911    0.7944    3.7791 H   0  0  0  0  0  0  0  0  0  0  0  0
    1.6966   -0.8307    3.5986 H   0  0  0  0  0  0  0  0  0  0  0  0
  1  2  1  0  0  0  0
  2  3  1  0  0  0  0
  2  4  1  0  0  0  0
  2  5  1  0  0  0  0
  5  6  2  0  0  0  0
  5  7  1  0  0  0  0
  7  8  1  0  0  0  0
  7  9  1  0  0  0  0
  9 10  1  0  0  0  0
  9 11  1  0  0  0  0
  9 22  1  0  0  0  0
 11 12  1  0  0  0  0
 11 13  1  0  0  0  0
 11 14  1  0  0  0  0
 14 15  1  0  0  0  0
 14 16  1  0  0  0  0
 14 17  1  0  0  0  0
 17 18  1  0  0  0  0
 18 19  1  0  0  0  0
 18 20  1  0  0  0  0
 18 21  1  0  0  0  0
 22 23  2  0  0  0  0
 22 24  1  0  0  0  0
 24 25  1  0  0  0  0
 24 26  1  0  0  0  0
 26 27  1  0  0  0  0
 26 28  1  0  0  0  0
 26 29  1  0  0  0  0
M  END
$$$$

  -OEChem-01062216093D

 29 28  0     1  0  0  0  0  0999 V2000
   -3.5734   -3.1608    0.7256 H   0  0  0  0  0  0  0  0  0  0  0  0
   -3.4358   -2.2294    0.1688 C   0  0  0  0  0  0  0  0  0  0  0  0
   -4.3499   -1.6357    0.2437 H   0  0  0  0  0  0  0  0  0  0  0  0
   -3.2503   -2.4736   -0.8799 H   0  0  0  0  0  0  0  0  0  0  0  0
   -2.2620   -1.4524    0.7350 C   0  0  0  0  0  0  0  0  0  0  0  0
   -1.7441   -1.8351    1.7688 O   0  0  0  0  0  0  0  0  0  0  0  0
   -1.9194   -0.2420    0.1584 N   0  0  0  0  0  0  0  0  0  0  0  0
   -2.4785   -0.0243   -0.6605 H   0  0  0  0  0  0  0  0  0  0  0  0
   -0.5744    0.3788    0.1629 C   0  0  1  0  0  0  0  0  0  0  0  0
   -0.1310    0.2216   -0.8255 H   0  0  0  0  0  0  0  0  0  0  0  0
   -0.7718    1.8946    0.3912 C   0  0  0  0  0  0  0  0  0  0  0  0
   -1.3399    2.0483    1.3146 H   0  0  0  0  0  0  0  0  0  0  0  0
    0.2043    2.3721    0.5212 H   0  0  0  0  0  0  0  0  0  0  0  0
   -1.4986    2.6005   -0.7639 C   0  0  0  0  0  0  0  0  0  0  0  0
   -2.4967    2.1710   -0.8914 H   0  0  0  0  0  0  0  0  0  0  0  0
   -1.6302    3.6580   -0.5133 H   0  0  0  0  0  0  0  0  0  0  0  0
   -0.5802    2.4748   -2.3534 S   0  0  0  0  0  0  0  0  0  0  0  0
    0.9007    3.5245   -2.0695 C   0  0  0  0  0  0  0  0  0  0  0  0
    1.5331    3.0932   -1.2883 H   0  0  0  0  0  0  0  0  0  0  0  0
    1.4888    3.5970   -2.9892 H   0  0  0  0  0  0  0  0  0  0  0  0
    0.6002    4.5317   -1.7664 H   0  0  0  0  0  0  0  0  0  0  0  0
    0.4768   -0.1909    1.1561 C   0  0  0  0  0  0  0  0  0  0  0  0
    1.1842   -1.1179    0.7806 O   0  0  0  0  0  0  0  0  0  0  0  0
    0.8322    0.4773    2.3169 N   0  0  0  0  0  0  0  0  0  0  0  0
    0.1526    1.1430    2.6693 H   0  0  0  0  0  0  0  0  0  0  0  0
    1.8137   -0.0603    3.2517 C   0  0  0  0  0  0  0  0  0  0  0  0
    2.7890   -0.1678    2.7654 H   0  0  0  0  0  0  0  0  0  0  0  0
    1.9285    0.6111    4.1079 H   0  0  0  0  0  0  0  0  0  0  0  0
    1.4934   -1.0413    3.6189 H   0  0  0  0  0  0  0  0  0  0  0  0
  1  2  1  0  0  0  0
  2  3  1  0  0  0  0
  2  4  1  0  0  0  0
  2  5  1  0  0  0  0
  5  6  2  0  0  0  0
  5  7  1  0  0  0  0
  7  8  1  0  0  0  0
  7  9  1  0  0  0  0
  9 10  1  0  0  0  0
  9 11  1  0  0  0  0
  9 22  1  0  0  0  0
 11 12  1  0  0  0  0
 11 13  1  0  0  0  0
 11 14  1  0  0  0  0
 14 15  1  0  0  0  0
 14 16  1  0  0  0  0
 14 17  1  0  0  0  0
 17 18  1  0  0  0  0
 18 19  1  0  0  0  0
 18 20  1  0  0  0  0
 18 21  1  0  0  0  0
 22 23  2  0  0  0  0
 22 24  1  0  0  0  0
 24 25  1  0  0  0  0
 24 26  1  0  0  0  0
 26 27  1  0  0  0  0
 26 28  1  0  0  0  0
 26 29  1  0  0  0  0
M  END
$$$$

  -OEChem-01062216093D

 29 28  0     1  0  0  0  0  0999 V2000
   -3.6075   -3.1639    0.6964 H   0  0  0  0  0  0  0  0  0  0  0  0
   -3.4838   -2.2108    0.1743 C   0  0  0  0  0  0  0  0  0  0  0  0
   -4.3753   -1.6009    0.3380 H   0  0  0  0  0  0  0  0  0  0  0  0
   -3.3761   -2.4096   -0.8948 H   0  0  0  0  0  0  0  0  0  0  0  0
   -2.2554   -1.4871    0.6935 C   0  0  0  0  0  0  0  0  0  0  0  0
   -1.6743   -1.9331    1.6662 O   0  0  0  0  0  0  0  0  0  0  0  0
   -1.9064   -0.2738    0.1274 N   0  0  0  0  0  0  0  0  0  0  0  0
   -2.4874   -0.0192   -0.6654 H   0  0  0  0  0  0  0  0  0  0  0  0
   -0.5684    0.3615    0.1467 C   0  0  1  0  0  0  0  0  0  0  0  0
   -0.1180    0.2127   -0.8399 H   0  0  0  0  0  0  0  0  0  0  0  0
   -0.7698    1.8739    0.3857 C   0  0  0  0  0  0  0  0  0  0  0  0
   -1.3451    2.0198    1.3058 H   0  0  0  0  0  0  0  0  0  0  0  0
    0.2056    2.3490    0.5313 H   0  0  0  0  0  0  0  0  0  0  0  0
   -1.4909    2.5886   -0.7670 C   0  0  0  0  0  0  0  0  0  0  0  0
   -2.4873    2.1582   -0.9044 H   0  0  0  0  0  0  0  0  0  0  0  0
   -1.6258    3.6437   -0.5083 H   0  0  0  0  0  0  0  0  0  0  0  0
   -0.5625    2.4771   -2.3516 S   0  0  0  0  0  0  0  0  0  0  0  0
    0.9162    3.5253   -2.0519 C   0  0  0  0  0  0  0  0  0  0  0  0
    1.5436    3.0886   -1.2695 H   0  0  0  0  0  0  0  0  0  0  0  0
    1.5100    3.6032   -2.9675 H   0  0  0  0  0  0  0  0  0  0  0  0
    0.6143    4.5307   -1.7442 H   0  0  0  0  0  0  0  0  0  0  0  0
    0.4832   -0.1911    1.1465 C   0  0  0  0  0  0  0  0  0  0  0  0
    1.3703   -0.9202    0.7199 O   0  0  0  0  0  0  0  0  0  0  0  0
    0.5951    0.3138    2.4315 N   0  0  0  0  0  0  0  0  0  0  0  0
   -0.2439    0.7508    2.7991 H   0  0  0  0  0  0  0  0  0  0  0  0
    1.5602   -0.2168    3.3866 C   0  0  0  0  0  0  0  0  0  0  0  0
    2.5812   -0.0941    3.0101 H   0  0  0  0  0  0  0  0  0  0  0  0
    1.4800    0.3141    4.3399 H   0  0  0  0  0  0  0  0  0  0  0  0
    1.3755   -1.2817    3.5640 H   0  0  0  0  0  0  0  0  0  0  0  0
  1  2  1  0  0  0  0
  2  3  1  0  0  0  0
  2  4  1  0  0  0  0
  2  5  1  0  0  0  0
  5  6  2  0  0  0  0
  5  7  1  0  0  0  0
  7  8  1  0  0  0  0
  7  9  1  0  0  0  0
  9 10  1  0  0  0  0
  9 11  1  0  0  0  0
  9 22  1  0  0  0  0
 11 12  1  0  0  0  0
 11 13  1  0  0  0  0
 11 14  1  0  0  0  0
 14 15  1  0  0  0  0
 14 16  1  0  0  0  0
 14 17  1  0  0  0  0
 17 18  1  0  0  0  0
 18 19  1  0  0  0  0
 18 20  1  0  0  0  0
 18 21  1  0  0  0  0
 22 23  2  0  0  0  0
 22 24  1  0  0  0  0
 24 25  1  0  0  0  0
 24 26  1  0  0  0  0
 26 27  1  0  0  0  0
 26 28  1  0  0  0  0
 26 29  1  0  0  0  0
M  END
$$$$

  -OEChem-01062216093D

 29 28  0     1  0  0  0  0  0999 V2000
   -3.6734   -3.1441    0.6925 H   0  0  0  0  0  0  0  0  0  0  0  0
   -3.5382   -2.1857    0.1829 C   0  0  0  0  0  0  0  0  0  0  0  0
   -4.3940   -1.5443    0.4072 H   0  0  0  0  0  0  0  0  0  0  0  0
   -3.4974   -2.3653   -0.8942 H   0  0  0  0  0  0  0  0  0  0  0  0
   -2.2549   -1.5226    0.6477 C   0  0  0  0  0  0  0  0  0  0  0  0
   -1.6219   -2.0330    1.5536 O   0  0  0  0  0  0  0  0  0  0  0  0
   -1.8934   -0.3081    0.0920 N   0  0  0  0  0  0  0  0  0  0  0  0
   -2.4970   -0.0118   -0.6690 H   0  0  0  0  0  0  0  0  0  0  0  0
   -0.5610    0.3393    0.1285 C   0  0  1  0  0  0  0  0  0  0  0  0
   -0.1028    0.1981   -0.8556 H   0  0  0  0  0  0  0  0  0  0  0  0
   -0.7686    1.8477    0.3799 C   0  0  0  0  0  0  0  0  0  0  0  0
   -1.3488    1.9840    1.2981 H   0  0  0  0  0  0  0  0  0  0  0  0
    0.2052    2.3223    0.5378 H   0  0  0  0  0  0  0  0  0  0  0  0
   -1.4833    2.5720   -0.7708 C   0  0  0  0  0  0  0  0  0  0  0  0
   -2.4774    2.1407   -0.9199 H   0  0  0  0  0  0  0  0  0  0  0  0
   -1.6223    3.6242   -0.5022 H   0  0  0  0  0  0  0  0  0  0  0  0
   -0.5435    2.4789   -2.3496 S   0  0  0  0  0  0  0  0  0  0  0  0
    0.9295    3.5285   -2.0264 C   0  0  0  0  0  0  0  0  0  0  0  0
    1.5555    3.0816   -1.2485 H   0  0  0  0  0  0  0  0  0  0  0  0
    1.5269    3.6239   -2.9380 H   0  0  0  0  0  0  0  0  0  0  0  0
    0.6222    4.5276   -1.7036 H   0  0  0  0  0  0  0  0  0  0  0  0
    0.4908   -0.1923    1.1373 C   0  0  0  0  0  0  0  0  0  0  0  0
    1.5363   -0.6644    0.7075 O   0  0  0  0  0  0  0  0  0  0  0  0
    0.3871    0.0923    2.4882 N   0  0  0  0  0  0  0  0  0  0  0  0
   -0.5619    0.2565    2.8105 H   0  0  0  0  0  0  0  0  0  0  0  0
    1.3444   -0.4287    3.4560 C   0  0  0  0  0  0  0  0  0  0  0  0
    2.3549   -0.0733    3.2285 H   0  0  0  0  0  0  0  0  0  0  0  0
    1.0819   -0.0948    4.4642 H   0  0  0  0  0  0  0  0  0  0  0  0
    1.3438   -1.5238    3.4410 H   0  0  0  0  0  0  0  0  0  0  0  0
  1  2  1  0  0  0  0
  2  3  1  0  0  0  0
  2  4  1  0  0  0  0
  2  5  1  0  0  0  0
  5  6  2  0  0  0  0
  5  7  1  0  0  0  0
  7  8  1  0  0  0  0
  7  9  1  0  0  0  0
  9 10  1  0  0  0  0
  9 11  1  0  0  0  0
  9 22  1  0  0  0  0
 11 12  1  0  0  0  0
 11 13  1  0  0  0  0
 11 14  1  0  0  0  0
 14 15  1  0  0  0  0
 14 16  1  0  0  0  0
 14 17  1  0  0  0  0
 17 18  1  0  0  0  0
 18 19  1  0  0  0  0
 18 20  1  0  0  0  0
 18 21  1  0  0  0  0
 22 23  2  0  0  0  0
 22 24  1  0  0  0  0
 24 25  1  0  0  0  0
 24 26  1  0  0  0  0
 26 27  1  0  0  0  0
 26 28  1  0  0  0  0
 26 29  1  0  0  0  0
M  END
$$$$

  -OEChem-01062216093D

 29 28  0     1  0  0  0  0  0999 V2000
   -3.7524   -3.1333    0.6271 H   0  0  0  0  0  0  0  0  0  0  0  0
   -3.6099   -2.1552    0.1587 C   0  0  0  0  0  0  0  0  0  0  0  0
   -4.4373   -1.5029    0.4476 H   0  0  0  0  0  0  0  0  0  0  0  0
   -3.6163   -2.2836   -0.9263 H   0  0  0  0  0  0  0  0  0  0  0  0
   -2.2915   -1.5496    0.6021 C   0  0  0  0  0  0  0  0  0  0  0  0
   -1.6460   -2.1120    1.4671 O   0  0  0  0  0  0  0  0  0  0  0  0
   -1.9000   -0.3388    0.0604 N   0  0  0  0  0  0  0  0  0  0  0  0
   -2.5153    0.0018   -0.6723 H   0  0  0  0  0  0  0  0  0  0  0  0
   -0.5661    0.3062    0.1156 C   0  0  1  0  0  0  0  0  0  0  0  0
   -0.1001    0.1714   -0.8657 H   0  0  0  0  0  0  0  0  0  0  0  0
   -0.7735    1.8115    0.3818 C   0  0  0  0  0  0  0  0  0  0  0  0
   -1.3588    1.9366    1.2987 H   0  0  0  0  0  0  0  0  0  0  0  0
    0.1995    2.2833    0.5530 H   0  0  0  0  0  0  0  0  0  0  0  0
   -1.4773    2.5514   -0.7654 C   0  0  0  0  0  0  0  0  0  0  0  0
   -2.4717    2.1259   -0.9272 H   0  0  0  0  0  0  0  0  0  0  0  0
   -1.6143    3.6007   -0.4851 H   0  0  0  0  0  0  0  0  0  0  0  0
   -0.5249    2.4751   -2.3376 S   0  0  0  0  0  0  0  0  0  0  0  0
    0.9480    3.5168   -1.9898 C   0  0  0  0  0  0  0  0  0  0  0  0
    1.5681    3.0565   -1.2150 H   0  0  0  0  0  0  0  0  0  0  0  0
    1.5512    3.6246   -2.8962 H   0  0  0  0  0  0  0  0  0  0  0  0
    0.6408    4.5113   -1.6535 H   0  0  0  0  0  0  0  0  0  0  0  0
    0.4880   -0.2089    1.1301 C   0  0  0  0  0  0  0  0  0  0  0  0
    1.6385   -0.3798    0.7453 O   0  0  0  0  0  0  0  0  0  0  0  0
    0.2317   -0.1899    2.4896 N   0  0  0  0  0  0  0  0  0  0  0  0
   -0.7483   -0.3469    2.7154 H   0  0  0  0  0  0  0  0  0  0  0  0
    1.2166   -0.6493    3.4607 C   0  0  0  0  0  0  0  0  0  0  0  0
    2.1353   -0.0580    3.3857 H   0  0  0  0  0  0  0  0  0  0  0  0
    0.8224   -0.5439    4.4757 H   0  0  0  0  0  0  0  0  0  0  0  0
    1.4600   -1.7032    3.2891 H   0  0  0  0  0  0  0  0  0  0  0  0
  1  2  1  0  0  0  0
  2  3  1  0  0  0  0
  2  4  1  0  0  0  0
  2  5  1  0  0  0  0
  5  6  2  0  0  0  0
  5  7  1  0  0  0  0
  7  8  1  0  0  0  0
  7  9  1  0  0  0  0
  9 10  1  0  0  0  0
  9 11  1  0  0  0  0
  9 22  1  0  0  0  0
 11 12  1  0  0  0  0
 11 13  1  0  0  0  0
 11 14  1  0  0  0  0
 14 15  1  0  0  0  0
 14 16  1  0  0  0  0
 14 17  1  0  0  0  0
 17 18  1  0  0  0  0
 18 19  1  0  0  0  0
 18 20  1  0  0  0  0
 18 21  1  0  0  0  0
 22 23  2  0  0  0  0
 22 24  1  0  0  0  0
 24 25  1  0  0  0  0
 24 26  1  0  0  0  0
 26 27  1  0  0  0  0
 26 28  1  0  0  0  0
 26 29  1  0  0  0  0
M  END
$$$$

  -OEChem-01062216093D

 29 28  0     1  0  0  0  0  0999 V2000
   -3.8784   -3.0824    0.5802 H   0  0  0  0  0  0  0  0  0  0  0  0
   -3.6987   -2.1006    0.1329 C   0  0  0  0  0  0  0  0  0  0  0  0
   -4.4779   -1.4128    0.4697 H   0  0  0  0  0  0  0  0  0  0  0  0
   -3.7511   -2.1971   -0.9543 H   0  0  0  0  0  0  0  0  0  0  0  0
   -2.3337   -1.5805    0.5428 C   0  0  0  0  0  0  0  0  0  0  0  0
   -1.6765   -2.2213    1.3414 O   0  0  0  0  0  0  0  0  0  0  0  0
   -1.9002   -0.3756    0.0216 N   0  0  0  0  0  0  0  0  0  0  0  0
   -2.5304    0.0244   -0.6668 H   0  0  0  0  0  0  0  0  0  0  0  0
   -0.5652    0.2680    0.1039 C   0  0  1  0  0  0  0  0  0  0  0  0
   -0.0861    0.1394   -0.8718 H   0  0  0  0  0  0  0  0  0  0  0  0
   -0.7934    1.7699    0.3750 C   0  0  0  0  0  0  0  0  0  0  0  0
   -1.3940    1.8819    1.2836 H   0  0  0  0  0  0  0  0  0  0  0  0
    0.1703    2.2534    0.5663 H   0  0  0  0  0  0  0  0  0  0  0  0
   -1.4824    2.5122   -0.7801 C   0  0  0  0  0  0  0  0  0  0  0  0
   -2.4694    2.0793   -0.9657 H   0  0  0  0  0  0  0  0  0  0  0  0
   -1.6346    3.5581   -0.4945 H   0  0  0  0  0  0  0  0  0  0  0  0
   -0.4974    2.4554   -2.3325 S   0  0  0  0  0  0  0  0  0  0  0  0
    0.9560    3.5089   -1.9407 C   0  0  0  0  0  0  0  0  0  0  0  0
    1.5633    3.0470   -1.1564 H   0  0  0  0  0  0  0  0  0  0  0  0
    1.5786    3.6323   -2.8319 H   0  0  0  0  0  0  0  0  0  0  0  0
    0.6303    4.4964   -1.6009 H   0  0  0  0  0  0  0  0  0  0  0  0
    0.4969   -0.2172    1.1273 C   0  0  0  0  0  0  0  0  0  0  0  0
    1.6796   -0.1160    0.8232 O   0  0  0  0  0  0  0  0  0  0  0  0
    0.1731   -0.4854    2.4441 N   0  0  0  0  0  0  0  0  0  0  0  0
   -0.7646   -0.8733    2.5500 H   0  0  0  0  0  0  0  0  0  0  0  0
    1.1762   -0.9080    3.4134 C   0  0  0  0  0  0  0  0  0  0  0  0
    1.9552   -0.1457    3.5189 H   0  0  0  0  0  0  0  0  0  0  0  0
    0.7126   -1.0622    4.3922 H   0  0  0  0  0  0  0  0  0  0  0  0
    1.6421   -1.8468    3.0965 H   0  0  0  0  0  0  0  0  0  0  0  0
  1  2  1  0  0  0  0
  2  3  1  0  0  0  0
  2  4  1  0  0  0  0
  2  5  1  0  0  0  0
  5  6  2  0  0  0  0
  5  7  1  0  0  0  0
  7  8  1  0  0  0  0
  7  9  1  0  0  0  0
  9 10  1  0  0  0  0
  9 11  1  0  0  0  0
  9 22  1  0  0  0  0
 11 12  1  0  0  0  0
 11 13  1  0  0  0  0
 11 14  1  0  0  0  0
 14 15  1  0  0  0  0
 14 16  1  0  0  0  0
 14 17  1  0  0  0  0
 17 18  1  0  0  0  0
 18 19  1  0  0  0  0
 18 20  1  0  0  0  0
 18 21  1  0  0  0  0
 22 23  2  0  0  0  0
 22 24  1  0  0  0  0
 24 25  1  0  0  0  0
 24 26  1  0  0  0  0
 26 27  1  0  0  0  0
 26 28  1  0  0  0  0
 26 29  1  0  0  0  0
M  END
$$$$

  -OEChem-01062216093D

 29 28  0     1  0  0  0  0  0999 V2000
   -4.0000   -3.0129    0.5557 H   0  0  0  0  0  0  0  0  0  0  0  0
   -3.7791   -2.0324    0.1242 C   0  0  0  0  0  0  0  0  0  0  0  0
   -4.4946   -1.3064    0.5181 H   0  0  0  0  0  0  0  0  0  0  0  0
   -3.8921   -2.0946   -0.9610 H   0  0  0  0  0  0  0  0  0  0  0  0
   -2.3644   -1.6109    0.4761 C   0  0  0  0  0  0  0  0  0  0  0  0
   -1.6921   -2.3471    1.1729 O   0  0  0  0  0  0  0  0  0  0  0  0
   -1.8936   -0.4088   -0.0187 N   0  0  0  0  0  0  0  0  0  0  0  0
   -2.5440    0.0577   -0.6431 H   0  0  0  0  0  0  0  0  0  0  0  0
   -0.5605    0.2376    0.0963 C   0  0  1  0  0  0  0  0  0  0  0  0
   -0.0638    0.1150   -0.8714 H   0  0  0  0  0  0  0  0  0  0  0  0
   -0.8206    1.7374    0.3615 C   0  0  0  0  0  0  0  0  0  0  0  0
   -1.4459    1.8386    1.2547 H   0  0  0  0  0  0  0  0  0  0  0  0
    0.1279    2.2398    0.5774 H   0  0  0  0  0  0  0  0  0  0  0  0
   -1.4901    2.4720   -0.8104 C   0  0  0  0  0  0  0  0  0  0  0  0
   -2.4659    2.0272   -1.0239 H   0  0  0  0  0  0  0  0  0  0  0  0
   -1.6636    3.5150   -0.5269 H   0  0  0  0  0  0  0  0  0  0  0  0
   -0.4635    2.4341   -2.3360 S   0  0  0  0  0  0  0  0  0  0  0  0
    0.9618    3.5091   -1.9023 C   0  0  0  0  0  0  0  0  0  0  0  0
    1.5538    3.0545   -1.1021 H   0  0  0  0  0  0  0  0  0  0  0  0
    1.6072    3.6447   -2.7752 H   0  0  0  0  0  0  0  0  0  0  0  0
    0.6111    4.4907   -1.5703 H   0  0  0  0  0  0  0  0  0  0  0  0
    0.5058   -0.2206    1.1330 C   0  0  0  0  0  0  0  0  0  0  0  0
    1.6732    0.0921    0.9282 O   0  0  0  0  0  0  0  0  0  0  0  0
    0.1878   -0.7746    2.3580 N   0  0  0  0  0  0  0  0  0  0  0  0
   -0.7007   -1.2786    2.3605 H   0  0  0  0  0  0  0  0  0  0  0  0
    1.2038   -1.2088    3.3083 C   0  0  0  0  0  0  0  0  0  0  0  0
    1.8385   -0.3669    3.6047 H   0  0  0  0  0  0  0  0  0  0  0  0
    0.7286   -1.6136    4.2070 H   0  0  0  0  0  0  0  0  0  0  0  0
    1.8337   -1.9879    2.8664 H   0  0  0  0  0  0  0  0  0  0  0  0
  1  2  1  0  0  0  0
  2  3  1  0  0  0  0
  2  4  1  0  0  0  0
  2  5  1  0  0  0  0
  5  6  2  0  0  0  0
  5  7  1  0  0  0  0
  7  8  1  0  0  0  0
  7  9  1  0  0  0  0
  9 10  1  0  0  0  0
  9 11  1  0  0  0  0
  9 22  1  0  0  0  0
 11 12  1  0  0  0  0
 11 13  1  0  0  0  0
 11 14  1  0  0  0  0
 14 15  1  0  0  0  0
 14 16  1  0  0  0  0
 14 17  1  0  0  0  0
 17 18  1  0  0  0  0
 18 19  1  0  0  0  0
 18 20  1  0  0  0  0
 18 21  1  0  0  0  0
 22 23  2  0  0  0  0
 22 24  1  0  0  0  0
 24 25  1  0  0  0  0
 24 26  1  0  0  0  0
 26 27  1  0  0  0  0
 26 28  1  0  0  0  0
 26 29  1  0  0  0  0
M  END
$$$$

  -OEChem-01062216093D

 29 28  0     1  0  0  0  0  0999 V2000
   -4.1042   -2.9442    0.5342 H   0  0  0  0  0  0  0  0  0  0  0  0
   -3.8479   -1.9654    0.1186 C   0  0  0  0  0  0  0  0  0  0  0  0
   -4.5058   -1.2135    0.5612 H   0  0  0  0  0  0  0  0  0  0  0  0
   -4.0091   -1.9909   -0.9619 H   0  0  0  0  0  0  0  0  0  0  0  0
   -2.3989   -1.6297    0.4200 C   0  0  0  0  0  0  0  0  0  0  0  0
   -1.7261   -2.4433    1.0238 O   0  0  0  0  0  0  0  0  0  0  0  0
   -1.8953   -0.4305   -0.0483 N   0  0  0  0  0  0  0  0  0  0  0  0
   -2.5577    0.0882   -0.6159 H   0  0  0  0  0  0  0  0  0  0  0  0
   -0.5609    0.2111    0.0919 C   0  0  1  0  0  0  0  0  0  0  0  0
   -0.0531    0.0938   -0.8705 H   0  0  0  0  0  0  0  0  0  0  0  0
   -0.8457    1.7103    0.3522 C   0  0  0  0  0  0  0  0  0  0  0  0
   -1.4902    1.8026    1.2326 H   0  0  0  0  0  0  0  0  0  0  0  0
    0.0882    2.2303    0.5880 H   0  0  0  0  0  0  0  0  0  0  0  0
   -1.4992    2.4396   -0.8326 C   0  0  0  0  0  0  0  0  0  0  0  0
   -2.4657    1.9859   -1.0686 H   0  0  0  0  0  0  0  0  0  0  0  0
   -1.6900    3.4800   -0.5507 H   0  0  0  0  0  0  0  0  0  0  0  0
   -0.4390    2.4156   -2.3355 S   0  0  0  0  0  0  0  0  0  0  0  0
    0.9660    3.5055   -1.8728 C   0  0  0  0  0  0  0  0  0  0  0  0
    1.5474    3.0562   -1.0620 H   0  0  0  0  0  0  0  0  0  0  0  0
    1.6266    3.6490   -2.7330 H   0  0  0  0  0  0  0  0  0  0  0  0
    0.5993    4.4830   -1.5462 H   0  0  0  0  0  0  0  0  0  0  0  0
    0.5099   -0.2363    1.1348 C   0  0  0  0  0  0  0  0  0  0  0  0
    1.6345    0.2422    1.0353 O   0  0  0  0  0  0  0  0  0  0  0  0
    0.2644   -1.0493    2.2236 N   0  0  0  0  0  0  0  0  0  0  0  0
   -0.5789   -1.6206    2.1507 H   0  0  0  0  0  0  0  0  0  0  0  0
    1.3080   -1.4944    3.1387 C   0  0  0  0  0  0  0  0  0  0  0  0
    1.7894   -0.6361    3.6191 H   0  0  0  0  0  0  0  0  0  0  0  0
    0.8772   -2.1281    3.9197 H   0  0  0  0  0  0  0  0  0  0  0  0
    2.0681   -2.0718    2.6021 H   0  0  0  0  0  0  0  0  0  0  0  0
  1  2  1  0  0  0  0
  2  3  1  0  0  0  0
  2  4  1  0  0  0  0
  2  5  1  0  0  0  0
  5  6  2  0  0  0  0
  5  7  1  0  0  0  0
  7  8  1  0  0  0  0
  7  9  1  0  0  0  0
  9 10  1  0  0  0  0
  9 11  1  0  0  0  0
  9 22  1  0  0  0  0
 11 12  1  0  0  0  0
 11 13  1  0  0  0  0
 11 14  1  0  0  0  0
 14 15  1  0  0  0  0
 14 16  1  0  0  0  0
 14 17  1  0  0  0  0
 17 18  1  0  0  0  0
 18 19  1  0  0  0  0
 18 20  1  0  0  0  0
 18 21  1  0  0  0  0
 22 23  2  0  0  0  0
 22 24  1  0  0  0  0
 24 25  1  0  0  0  0
 24 26  1  0  0  0  0
 26 27  1  0  0  0  0
 26 28  1  0  0  0  0
 26 29  1  0  0  0  0
M  END
$$$$

  -OEChem-01062216093D

 29 28  0     1  0  0  0  0  0999 V2000
   -3.6945   -3.1427    0.8161 H   0  0  0  0  0  0  0  0  0  0  0  0
   -3.5375   -2.1573    0.3680 C   0  0  0  0  0  0  0  0  0  0  0  0
   -4.1685   -1.4323    0.8875 H   0  0  0  0  0  0  0  0  0  0  0  0
   -3.8294   -2.1992   -0.6841 H   0  0  0  0  0  0  0  0  0  0  0  0
   -2.0789   -1.7557    0.4871 C   0  0  0  0  0  0  0  0  0  0  0  0
   -1.2810   -2.5773    0.8901 O   0  0  0  0  0  0  0  0  0  0  0  0
   -1.6800   -0.5536   -0.0618 N   0  0  0  0  0  0  0  0  0  0  0  0
   -2.4403   -0.0705   -0.5262 H   0  0  0  0  0  0  0  0  0  0  0  0
   -0.5166    0.3146    0.2525 C   0  0  1  0  0  0  0  0  0  0  0  0
    0.2154    0.1466   -0.5427 H   0  0  0  0  0  0  0  0  0  0  0  0
   -1.0664    1.7627    0.1421 C   0  0  0  0  0  0  0  0  0  0  0  0
   -1.9191    1.8723    0.8197 H   0  0  0  0  0  0  0  0  0  0  0  0
   -0.3111    2.4836    0.4667 H   0  0  0  0  0  0  0  0  0  0  0  0
   -1.4883    2.1660   -1.2811 C   0  0  0  0  0  0  0  0  0  0  0  0
   -2.2849    1.5090   -1.6412 H   0  0  0  0  0  0  0  0  0  0  0  0
   -1.8901    3.1841   -1.2618 H   0  0  0  0  0  0  0  0  0  0  0  0
   -0.0820    2.1029   -2.4661 S   0  0  0  0  0  0  0  0  0  0  0  0
    0.9884    3.4912   -1.9164 C   0  0  0  0  0  0  0  0  0  0  0  0
    1.4037    3.2851   -0.9253 H   0  0  0  0  0  0  0  0  0  0  0  0
    1.8174    3.6238   -2.6179 H   0  0  0  0  0  0  0  0  0  0  0  0
    0.4143    4.4214   -1.8730 H   0  0  0  0  0  0  0  0  0  0  0  0
    0.3385    0.1750    1.5595 C   0  0  0  0  0  0  0  0  0  0  0  0
    1.0703    1.0921    1.9057 O   0  0  0  0  0  0  0  0  0  0  0  0
    0.1859   -0.7161    2.5931 N   0  0  0  0  0  0  0  0  0  0  0  0
    0.3434   -0.2213    3.4661 H   0  0  0  0  0  0  0  0  0  0  0  0
    0.9951   -1.9291    2.5268 C   0  0  0  0  0  0  0  0  0  0  0  0
    1.9467   -1.7754    3.0453 H   0  0  0  0  0  0  0  0  0  0  0  0
    0.4665   -2.7600    3.0044 H   0  0  0  0  0  0  0  0  0  0  0  0
    1.2141   -2.2111    1.4911 H   0  0  0  0  0  0  0  0  0  0  0  0
  1  2  1  0  0  0  0
  2  3  1  0  0  0  0
  2  4  1  0  0  0  0
  2  5  1  0  0  0  0
  5  6  2  0  0  0  0
  5  7  1  0  0  0  0
  7  8  1  0  0  0  0
  7  9  1  0  0  0  0
  9 10  1  0  0  0  0
  9 11  1  0  0  0  0
  9 22  1  0  0  0  0
 11 12  1  0  0  0  0
 11 13  1  0  0  0  0
 11 14  1  0  0  0  0
 14 15  1  0  0  0  0
 14 16  1  0  0  0  0
 14 17  1  0  0  0  0
 17 18  1  0  0  0  0
 18 19  1  0  0  0  0
 18 20  1  0  0  0  0
 18 21  1  0  0  0  0
 22 23  2  0  0  0  0
 22 24  1  0  0  0  0
 24 25  1  0  0  0  0
 24 26  1  0  0  0  0
 26 27  1  0  0  0  0
 26 28  1  0  0  0  0
 26 29  1  0  0  0  0
M  END
$$$$

  -OEChem-01062216093D

 29 28  0     1  0  0  0  0  0999 V2000
   -3.5385   -3.1817    1.0251 H   0  0  0  0  0  0  0  0  0  0  0  0
   -3.4408   -2.1582    0.6520 C   0  0  0  0  0  0  0  0  0  0  0  0
   -3.8544   -1.4735    1.3961 H   0  0  0  0  0  0  0  0  0  0  0  0
   -4.0107   -2.0668   -0.2759 H   0  0  0  0  0  0  0  0  0  0  0  0
   -1.9808   -1.8312    0.3985 C   0  0  0  0  0  0  0  0  0  0  0  0
   -1.1657   -2.7304    0.4469 O   0  0  0  0  0  0  0  0  0  0  0  0
   -1.6572   -0.5691   -0.0573 N   0  0  0  0  0  0  0  0  0  0  0  0
   -2.4704    0.0104   -0.2317 H   0  0  0  0  0  0  0  0  0  0  0  0
   -0.3633    0.1607   -0.0747 C   0  0  1  0  0  0  0  0  0  0  0  0
   -0.0100    0.1247   -1.1099 H   0  0  0  0  0  0  0  0  0  0  0  0
   -0.7234    1.6213    0.3009 C   0  0  0  0  0  0  0  0  0  0  0  0
   -1.2405    1.6234    1.2660 H   0  0  0  0  0  0  0  0  0  0  0  0
    0.1884    2.2120    0.4309 H   0  0  0  0  0  0  0  0  0  0  0  0
   -1.5934    2.3434   -0.7419 C   0  0  0  0  0  0  0  0  0  0  0  0
   -2.5448    1.8200   -0.8698 H   0  0  0  0  0  0  0  0  0  0  0  0
   -1.8227    3.3516   -0.3820 H   0  0  0  0  0  0  0  0  0  0  0  0
   -0.7576    2.4706   -2.3756 S   0  0  0  0  0  0  0  0  0  0  0  0
    0.6112    3.6529   -2.0536 C   0  0  0  0  0  0  0  0  0  0  0  0
    1.3278    3.2253   -1.3459 H   0  0  0  0  0  0  0  0  0  0  0  0
    1.1383    3.8765   -2.9857 H   0  0  0  0  0  0  0  0  0  0  0  0
    0.2190    4.5866   -1.6403 H   0  0  0  0  0  0  0  0  0  0  0  0
    0.9073   -0.2362    0.7509 C   0  0  0  0  0  0  0  0  0  0  0  0
    1.9267    0.4169    0.5787 O   0  0  0  0  0  0  0  0  0  0  0  0
    1.2160   -1.3999    1.4104 N   0  0  0  0  0  0  0  0  0  0  0  0
    2.2248   -1.5023    1.4765 H   0  0  0  0  0  0  0  0  0  0  0  0
    0.4975   -1.7499    2.6295 C   0  0  0  0  0  0  0  0  0  0  0  0
    1.0794   -1.4490    3.5059 H   0  0  0  0  0  0  0  0  0  0  0  0
   -0.4751   -1.2510    2.6812 H   0  0  0  0  0  0  0  0  0  0  0  0
    0.3357   -2.8317    2.6735 H   0  0  0  0  0  0  0  0  0  0  0  0
  1  2  1  0  0  0  0
  2  3  1  0  0  0  0
  2  4  1  0  0  0  0
  2  5  1  0  0  0  0
  5  6  2  0  0  0  0
  5  7  1  0  0  0  0
  7  8  1  0  0  0  0
  7  9  1  0  0  0  0
  9 10  1  0  0  0  0
  9 11  1  0  0  0  0
  9 22  1  0  0  0  0
 11 12  1  0  0  0  0
 11 13  1  0  0  0  0
 11 14  1  0  0  0  0
 14 15  1  0  0  0  0
 14 16  1  0  0  0  0
 14 17  1  0  0  0  0
 17 18  1  0  0  0  0
 18 19  1  0  0  0  0
 18 20  1  0  0  0  0
 18 21  1  0  0  0  0
 22 23  2  0  0  0  0
 22 24  1  0  0  0  0
 24 25  1  0  0  0  0
 24 26  1  0  0  0  0
 26 27  1  0  0  0  0
 26 28  1  0  0  0  0
 26 29  1  0  0  0  0
M  END
$$$$

  -OEChem-01062216093D

 29 28  0     1  0  0  0  0  0999 V2000
   -4.1148   -2.9081    0.5681 H   0  0  0  0  0  0  0  0  0  0  0  0
   -3.8373   -1.9404    0.1401 C   0  0  0  0  0  0  0  0  0  0  0  0
   -4.4428   -1.1632    0.6124 H   0  0  0  0  0  0  0  0  0  0  0  0
   -4.0482   -1.9575   -0.9320 H   0  0  0  0  0  0  0  0  0  0  0  0
   -2.3632   -1.6659    0.3743 C   0  0  0  0  0  0  0  0  0  0  0  0
   -1.6848   -2.5491    0.8605 O   0  0  0  0  0  0  0  0  0  0  0  0
   -1.8590   -0.4451   -0.0368 N   0  0  0  0  0  0  0  0  0  0  0  0
   -2.5566    0.1287   -0.4987 H   0  0  0  0  0  0  0  0  0  0  0  0
   -0.5235    0.2027    0.0866 C   0  0  1  0  0  0  0  0  0  0  0  0
   -0.0439    0.1122   -0.8922 H   0  0  0  0  0  0  0  0  0  0  0  0
   -0.8474    1.6993    0.3559 C   0  0  0  0  0  0  0  0  0  0  0  0
   -1.4799    1.7717    1.2467 H   0  0  0  0  0  0  0  0  0  0  0  0
    0.0673    2.2577    0.5723 H   0  0  0  0  0  0  0  0  0  0  0  0
   -1.5335    2.4149   -0.8204 C   0  0  0  0  0  0  0  0  0  0  0  0
   -2.4904    1.9383   -1.0496 H   0  0  0  0  0  0  0  0  0  0  0  0
   -1.7481    3.4493   -0.5329 H   0  0  0  0  0  0  0  0  0  0  0  0
   -0.4881    2.4244   -2.3345 S   0  0  0  0  0  0  0  0  0  0  0  0
    0.8911    3.5513   -1.8816 C   0  0  0  0  0  0  0  0  0  0  0  0
    1.4843    3.1243   -1.0674 H   0  0  0  0  0  0  0  0  0  0  0  0
    1.5472    3.7043   -2.7435 H   0  0  0  0  0  0  0  0  0  0  0  0
    0.5007    4.5222   -1.5629 H   0  0  0  0  0  0  0  0  0  0  0  0
    0.5927   -0.2961    1.0696 C   0  0  0  0  0  0  0  0  0  0  0  0
    1.4388    0.4953    1.4721 O   0  0  0  0  0  0  0  0  0  0  0  0
    0.7654   -1.6059    1.4684 N   0  0  0  0  0  0  0  0  0  0  0  0
    0.0216   -2.2575    1.2134 H   0  0  0  0  0  0  0  0  0  0  0  0
    1.7937   -2.0555    2.3987 C   0  0  0  0  0  0  0  0  0  0  0  0
    1.6876   -1.5467    3.3624 H   0  0  0  0  0  0  0  0  0  0  0  0
    1.7051   -3.1336    2.5643 H   0  0  0  0  0  0  0  0  0  0  0  0
    2.7911   -1.8492    1.9970 H   0  0  0  0  0  0  0  0  0  0  0  0
  1  2  1  0  0  0  0
  2  3  1  0  0  0  0
  2  4  1  0  0  0  0
  2  5  1  0  0  0  0
  5  6  2  0  0  0  0
  5  7  1  0  0  0  0
  7  8  1  0  0  0  0
  7  9  1  0  0  0  0
  9 10  1  0  0  0  0
  9 11  1  0  0  0  0
  9 22  1  0  0  0  0
 11 12  1  0  0  0  0
 11 13  1  0  0  0  0
 11 14  1  0  0  0  0
 14 15  1  0  0  0  0
 14 16  1  0  0  0  0
 14 17  1  0  0  0  0
 17 18  1  0  0  0  0
 18 19  1  0  0  0  0
 18 20  1  0  0  0  0
 18 21  1  0  0  0  0
 22 23  2  0  0  0  0
 22 24  1  0  0  0  0
 24 25  1  0  0  0  0
 24 26  1  0  0  0  0
 26 27  1  0  0  0  0
 26 28  1  0  0  0  0
 26 29  1  0  0  0  0
M  END
$$$$

  -OEChem-01062216093D

 29 28  0     1  0  0  0  0  0999 V2000
   -4.0500   -2.9012    0.6831 H   0  0  0  0  0  0  0  0  0  0  0  0
   -3.8036   -1.9247    0.2559 C   0  0  0  0  0  0  0  0  0  0  0  0
   -4.3939   -1.1606    0.7674 H   0  0  0  0  0  0  0  0  0  0  0  0
   -4.0651   -1.9294   -0.8051 H   0  0  0  0  0  0  0  0  0  0  0  0
   -2.3232   -1.6370    0.4233 C   0  0  0  0  0  0  0  0  0  0  0  0
   -1.6116   -2.5150    0.8713 O   0  0  0  0  0  0  0  0  0  0  0  0
   -1.8449   -0.4127   -0.0074 N   0  0  0  0  0  0  0  0  0  0  0  0
   -2.5629    0.1676   -0.4281 H   0  0  0  0  0  0  0  0  0  0  0  0
   -0.5042    0.2271    0.0766 C   0  0  1  0  0  0  0  0  0  0  0  0
   -0.0484    0.1297   -0.9127 H   0  0  0  0  0  0  0  0  0  0  0  0
   -0.7905    1.7296    0.3483 C   0  0  0  0  0  0  0  0  0  0  0  0
   -1.3922    1.8190    1.2589 H   0  0  0  0  0  0  0  0  0  0  0  0
    0.1448    2.2663    0.5306 H   0  0  0  0  0  0  0  0  0  0  0  0
   -1.4974    2.4532   -0.8099 C   0  0  0  0  0  0  0  0  0  0  0  0
   -2.4695    1.9933   -1.0070 H   0  0  0  0  0  0  0  0  0  0  0  0
   -1.6839    3.4924   -0.5199 H   0  0  0  0  0  0  0  0  0  0  0  0
   -0.4991    2.4369   -2.3554 S   0  0  0  0  0  0  0  0  0  0  0  0
    0.9146    3.5388   -1.9501 C   0  0  0  0  0  0  0  0  0  0  0  0
    1.5339    3.0947   -1.1649 H   0  0  0  0  0  0  0  0  0  0  0  0
    1.5366    3.6899   -2.8373 H   0  0  0  0  0  0  0  0  0  0  0  0
    0.5524    4.5122   -1.6066 H   0  0  0  0  0  0  0  0  0  0  0  0
    0.6141   -0.3091    1.0349 C   0  0  0  0  0  0  0  0  0  0  0  0
    1.3299    0.4746    1.6499 O   0  0  0  0  0  0  0  0  0  0  0  0
    0.9240   -1.6487    1.1615 N   0  0  0  0  0  0  0  0  0  0  0  0
    0.1932   -2.2905    0.8470 H   0  0  0  0  0  0  0  0  0  0  0  0
    1.9185   -2.1603    2.0967 C   0  0  0  0  0  0  0  0  0  0  0  0
    1.6432   -1.9071    3.1257 H   0  0  0  0  0  0  0  0  0  0  0  0
    1.9868   -3.2492    2.0134 H   0  0  0  0  0  0  0  0  0  0  0  0
    2.9044   -1.7361    1.8795 H   0  0  0  0  0  0  0  0  0  0  0  0
  1  2  1  0  0  0  0
  2  3  1  0  0  0  0
  2  4  1  0  0  0  0
  2  5  1  0  0  0  0
  5  6  2  0  0  0  0
  5  7  1  0  0  0  0
  7  8  1  0  0  0  0
  7  9  1  0  0  0  0
  9 10  1  0  0  0  0
  9 11  1  0  0  0  0
  9 22  1  0  0  0  0
 11 12  1  0  0  0  0
 11 13  1  0  0  0  0
 11 14  1  0  0  0  0
 14 15  1  0  0  0  0
 14 16  1  0  0  0  0
 14 17  1  0  0  0  0
 17 18  1  0  0  0  0
 18 19  1  0  0  0  0
 18 20  1  0  0  0  0
 18 21  1  0  0  0  0
 22 23  2  0  0  0  0
 22 24  1  0  0  0  0
 24 25  1  0  0  0  0
 24 26  1  0  0  0  0
 26 27  1  0  0  0  0
 26 28  1  0  0  0  0
 26 29  1  0  0  0  0
M  END
$$$$

  -OEChem-01062216093D

 29 28  0     1  0  0  0  0  0999 V2000
   -3.8921   -2.9697    0.7775 H   0  0  0  0  0  0  0  0  0  0  0  0
   -3.7105   -1.9721    0.3671 C   0  0  0  0  0  0  0  0  0  0  0  0
   -4.2628   -1.2427    0.9647 H   0  0  0  0  0  0  0  0  0  0  0  0
   -4.0763   -1.9432   -0.6622 H   0  0  0  0  0  0  0  0  0  0  0  0
   -2.2273   -1.6536    0.3996 C   0  0  0  0  0  0  0  0  0  0  0  0
   -1.4482   -2.5261    0.7346 O   0  0  0  0  0  0  0  0  0  0  0  0
   -1.8103   -0.4126   -0.0450 N   0  0  0  0  0  0  0  0  0  0  0  0
   -2.5683    0.1792   -0.3681 H   0  0  0  0  0  0  0  0  0  0  0  0
   -0.4862    0.2537    0.0485 C   0  0  1  0  0  0  0  0  0  0  0  0
   -0.0136    0.1645   -0.9339 H   0  0  0  0  0  0  0  0  0  0  0  0
   -0.7793    1.7516    0.3230 C   0  0  0  0  0  0  0  0  0  0  0  0
   -1.3861    1.8371    1.2305 H   0  0  0  0  0  0  0  0  0  0  0  0
    0.1577    2.2833    0.5135 H   0  0  0  0  0  0  0  0  0  0  0  0
   -1.4854    2.4722   -0.8372 C   0  0  0  0  0  0  0  0  0  0  0  0
   -2.4527    2.0043   -1.0388 H   0  0  0  0  0  0  0  0  0  0  0  0
   -1.6807    3.5098   -0.5475 H   0  0  0  0  0  0  0  0  0  0  0  0
   -0.4815    2.4634   -2.3793 S   0  0  0  0  0  0  0  0  0  0  0  0
    0.9236    3.5735   -1.9666 C   0  0  0  0  0  0  0  0  0  0  0  0
    1.5305    3.1437   -1.1643 H   0  0  0  0  0  0  0  0  0  0  0  0
    1.5605    3.7126   -2.8452 H   0  0  0  0  0  0  0  0  0  0  0  0
    0.5533    4.5512   -1.6445 H   0  0  0  0  0  0  0  0  0  0  0  0
    0.6000   -0.2931    1.0306 C   0  0  0  0  0  0  0  0  0  0  0  0
    1.1212    0.4439    1.8616 O   0  0  0  0  0  0  0  0  0  0  0  0
    1.0932   -1.5791    0.9216 N   0  0  0  0  0  0  0  0  0  0  0  0
    0.4374   -2.2325    0.4880 H   0  0  0  0  0  0  0  0  0  0  0  0
    2.0605   -2.1337    1.8608 C   0  0  0  0  0  0  0  0  0  0  0  0
    1.6452   -2.1506    2.8738 H   0  0  0  0  0  0  0  0  0  0  0  0
    2.3184   -3.1575    1.5735 H   0  0  0  0  0  0  0  0  0  0  0  0
    2.9784   -1.5367    1.8653 H   0  0  0  0  0  0  0  0  0  0  0  0
  1  2  1  0  0  0  0
  2  3  1  0  0  0  0
  2  4  1  0  0  0  0
  2  5  1  0  0  0  0
  5  6  2  0  0  0  0
  5  7  1  0  0  0  0
  7  8  1  0  0  0  0
  7  9  1  0  0  0  0
  9 10  1  0  0  0  0
  9 11  1  0  0  0  0
  9 22  1  0  0  0  0
 11 12  1  0  0  0  0
 11 13  1  0  0  0  0
 11 14  1  0  0  0  0
 14 15  1  0  0  0  0
 14 16  1  0  0  0  0
 14 17  1  0  0  0  0
 17 18  1  0  0  0  0
 18 19  1  0  0  0  0
 18 20  1  0  0  0  0
 18 21  1  0  0  0  0
 22 23  2  0  0  0  0
 22 24  1  0  0  0  0
 24 25  1  0  0  0  0
 24 26  1  0  0  0  0
 26 27  1  0  0  0  0
 26 28  1  0  0  0  0
 26 29  1  0  0  0  0
M  END
$$$$

  -OEChem-01062216093D

 29 28  0     1  0  0  0  0  0999 V2000
   -3.7272   -3.0330    0.8794 H   0  0  0  0  0  0  0  0  0  0  0  0
   -3.6122   -2.0306    0.4569 C   0  0  0  0  0  0  0  0  0  0  0  0
   -4.1416   -1.3192    1.0952 H   0  0  0  0  0  0  0  0  0  0  0  0
   -4.0561   -2.0165   -0.5416 H   0  0  0  0  0  0  0  0  0  0  0  0
   -2.1426   -1.6629    0.3770 C   0  0  0  0  0  0  0  0  0  0  0  0
   -1.3063   -2.5136    0.6232 O   0  0  0  0  0  0  0  0  0  0  0  0
   -1.7904   -0.4099   -0.0893 N   0  0  0  0  0  0  0  0  0  0  0  0
   -2.5794    0.1816   -0.3274 H   0  0  0  0  0  0  0  0  0  0  0  0
   -0.4814    0.2778    0.0163 C   0  0  1  0  0  0  0  0  0  0  0  0
    0.0097    0.1972   -0.9575 H   0  0  0  0  0  0  0  0  0  0  0  0
   -0.7729    1.7717    0.3000 C   0  0  0  0  0  0  0  0  0  0  0  0
   -1.3853    1.8514    1.2044 H   0  0  0  0  0  0  0  0  0  0  0  0
    0.1679    2.2927    0.5036 H   0  0  0  0  0  0  0  0  0  0  0  0
   -1.4746    2.5011   -0.8567 C   0  0  0  0  0  0  0  0  0  0  0  0
   -2.4411    2.0334   -1.0641 H   0  0  0  0  0  0  0  0  0  0  0  0
   -1.6706    3.5367   -0.5605 H   0  0  0  0  0  0  0  0  0  0  0  0
   -0.4665    2.5024   -2.3967 S   0  0  0  0  0  0  0  0  0  0  0  0
    0.9395    3.6079   -1.9742 C   0  0  0  0  0  0  0  0  0  0  0  0
    1.5426    3.1733   -1.1719 H   0  0  0  0  0  0  0  0  0  0  0  0
    1.5797    3.7504   -2.8499 H   0  0  0  0  0  0  0  0  0  0  0  0
    0.5704    4.5852   -1.6494 H   0  0  0  0  0  0  0  0  0  0  0  0
    0.5661   -0.2792    1.0272 C   0  0  0  0  0  0  0  0  0  0  0  0
    0.8798    0.3625    2.0249 O   0  0  0  0  0  0  0  0  0  0  0  0
    1.2643   -1.4374    0.7425 N   0  0  0  0  0  0  0  0  0  0  0  0
    0.7387   -2.0871    0.1569 H   0  0  0  0  0  0  0  0  0  0  0  0
    2.2123   -2.0199    1.6844 C   0  0  0  0  0  0  0  0  0  0  0  0
    1.7076   -2.2872    2.6187 H   0  0  0  0  0  0  0  0  0  0  0  0
    2.6586   -2.9236    1.2588 H   0  0  0  0  0  0  0  0  0  0  0  0
    3.0174   -1.3121    1.9081 H   0  0  0  0  0  0  0  0  0  0  0  0
  1  2  1  0  0  0  0
  2  3  1  0  0  0  0
  2  4  1  0  0  0  0
  2  5  1  0  0  0  0
  5  6  2  0  0  0  0
  5  7  1  0  0  0  0
  7  8  1  0  0  0  0
  7  9  1  0  0  0  0
  9 10  1  0  0  0  0
  9 11  1  0  0  0  0
  9 22  1  0  0  0  0
 11 12  1  0  0  0  0
 11 13  1  0  0  0  0
 11 14  1  0  0  0  0
 14 15  1  0  0  0  0
 14 16  1  0  0  0  0
 14 17  1  0  0  0  0
 17 18  1  0  0  0  0
 18 19  1  0  0  0  0
 18 20  1  0  0  0  0
 18 21  1  0  0  0  0
 22 23  2  0  0  0  0
 22 24  1  0  0  0  0
 24 25  1  0  0  0  0
 24 26  1  0  0  0  0
 26 27  1  0  0  0  0
 26 28  1  0  0  0  0
 26 29  1  0  0  0  0
M  END
$$$$

  -OEChem-01062216093D

 29 28  0     1  0  0  0  0  0999 V2000
   -3.6063   -3.0745    0.9313 H   0  0  0  0  0  0  0  0  0  0  0  0
   -3.5349   -2.0618    0.5243 C   0  0  0  0  0  0  0  0  0  0  0  0
   -4.0356   -1.3735    1.2093 H   0  0  0  0  0  0  0  0  0  0  0  0
   -4.0400   -2.0355   -0.4442 H   0  0  0  0  0  0  0  0  0  0  0  0
   -2.0795   -1.6650    0.3625 C   0  0  0  0  0  0  0  0  0  0  0  0
   -1.2089   -2.4963    0.5556 O   0  0  0  0  0  0  0  0  0  0  0  0
   -1.7743   -0.4082   -0.1263 N   0  0  0  0  0  0  0  0  0  0  0  0
   -2.5823    0.1797   -0.3007 H   0  0  0  0  0  0  0  0  0  0  0  0
   -0.4756    0.2936   -0.0144 C   0  0  1  0  0  0  0  0  0  0  0  0
    0.0274    0.2195   -0.9826 H   0  0  0  0  0  0  0  0  0  0  0  0
   -0.7680    1.7831    0.2799 C   0  0  0  0  0  0  0  0  0  0  0  0
   -1.3845    1.8560    1.1822 H   0  0  0  0  0  0  0  0  0  0  0  0
    0.1737    2.2985    0.4935 H   0  0  0  0  0  0  0  0  0  0  0  0
   -1.4711    2.5181   -0.8719 C   0  0  0  0  0  0  0  0  0  0  0  0
   -2.4357    2.0475   -1.0825 H   0  0  0  0  0  0  0  0  0  0  0  0
   -1.6715    3.5512   -0.5701 H   0  0  0  0  0  0  0  0  0  0  0  0
   -0.4622    2.5296   -2.4110 S   0  0  0  0  0  0  0  0  0  0  0  0
    0.9418    3.6344   -1.9817 C   0  0  0  0  0  0  0  0  0  0  0  0
    1.5470    3.1950   -1.1835 H   0  0  0  0  0  0  0  0  0  0  0  0
    1.5800    3.7841   -2.8576 H   0  0  0  0  0  0  0  0  0  0  0  0
    0.5711    4.6084   -1.6487 H   0  0  0  0  0  0  0  0  0  0  0  0
    0.5430   -0.2662    1.0188 C   0  0  0  0  0  0  0  0  0  0  0  0
    0.6390    0.2340    2.1351 O   0  0  0  0  0  0  0  0  0  0  0  0
    1.4542   -1.2329    0.6351 N   0  0  0  0  0  0  0  0  0  0  0  0
    1.1425   -1.8084   -0.1440 H   0  0  0  0  0  0  0  0  0  0  0  0
    2.3738   -1.8440    1.5868 C   0  0  0  0  0  0  0  0  0  0  0  0
    1.8182   -2.3656    2.3734 H   0  0  0  0  0  0  0  0  0  0  0  0
    3.0179   -2.5670    1.0773 H   0  0  0  0  0  0  0  0  0  0  0  0
    3.0109   -1.0832    2.0499 H   0  0  0  0  0  0  0  0  0  0  0  0
  1  2  1  0  0  0  0
  2  3  1  0  0  0  0
  2  4  1  0  0  0  0
  2  5  1  0  0  0  0
  5  6  2  0  0  0  0
  5  7  1  0  0  0  0
  7  8  1  0  0  0  0
  7  9  1  0  0  0  0
  9 10  1  0  0  0  0
  9 11  1  0  0  0  0
  9 22  1  0  0  0  0
 11 12  1  0  0  0  0
 11 13  1  0  0  0  0
 11 14  1  0  0  0  0
 14 15  1  0  0  0  0
 14 16  1  0  0  0  0
 14 17  1  0  0  0  0
 17 18  1  0  0  0  0
 18 19  1  0  0  0  0
 18 20  1  0  0  0  0
 18 21  1  0  0  0  0
 22 23  2  0  0  0  0
 22 24  1  0  0  0  0
 24 25  1  0  0  0  0
 24 26  1  0  0  0  0
 26 27  1  0  0  0  0
 26 28  1  0  0  0  0
 26 29  1  0  0  0  0
M  END
$$$$

  -OEChem-01062216093D

 29 28  0     1  0  0  0  0  0999 V2000
   -3.5354   -3.0924    0.9801 H   0  0  0  0  0  0  0  0  0  0  0  0
   -3.4911   -2.0803    0.5678 C   0  0  0  0  0  0  0  0  0  0  0  0
   -3.9715   -1.3953    1.2705 H   0  0  0  0  0  0  0  0  0  0  0  0
   -4.0332   -2.0616   -0.3805 H   0  0  0  0  0  0  0  0  0  0  0  0
   -2.0476   -1.6693    0.3481 C   0  0  0  0  0  0  0  0  0  0  0  0
   -1.1610   -2.4937    0.4968 O   0  0  0  0  0  0  0  0  0  0  0  0
   -1.7716   -0.4107   -0.1545 N   0  0  0  0  0  0  0  0  0  0  0  0
   -2.5894    0.1759   -0.2794 H   0  0  0  0  0  0  0  0  0  0  0  0
   -0.4793    0.2989   -0.0351 C   0  0  1  0  0  0  0  0  0  0  0  0
    0.0294    0.2268   -1.0004 H   0  0  0  0  0  0  0  0  0  0  0  0
   -0.7687    1.7858    0.2670 C   0  0  0  0  0  0  0  0  0  0  0  0
   -1.3891    1.8540    1.1673 H   0  0  0  0  0  0  0  0  0  0  0  0
    0.1736    2.2963    0.4891 H   0  0  0  0  0  0  0  0  0  0  0  0
   -1.4686    2.5274   -0.8821 C   0  0  0  0  0  0  0  0  0  0  0  0
   -2.4329    2.0583   -1.0967 H   0  0  0  0  0  0  0  0  0  0  0  0
   -1.6679    3.5594   -0.5756 H   0  0  0  0  0  0  0  0  0  0  0  0
   -0.4560    2.5440   -2.4189 S   0  0  0  0  0  0  0  0  0  0  0  0
    0.9486    3.6448   -1.9804 C   0  0  0  0  0  0  0  0  0  0  0  0
    1.5522    3.2003   -1.1839 H   0  0  0  0  0  0  0  0  0  0  0  0
    1.5883    3.7997   -2.8544 H   0  0  0  0  0  0  0  0  0  0  0  0
    0.5780    4.6172   -1.6425 H   0  0  0  0  0  0  0  0  0  0  0  0
    0.5230   -0.2581    1.0116 C   0  0  0  0  0  0  0  0  0  0  0  0
    0.4263    0.0680    2.1904 O   0  0  0  0  0  0  0  0  0  0  0  0
    1.6273   -0.9805    0.5980 N   0  0  0  0  0  0  0  0  0  0  0  0
    1.5431   -1.4084   -0.3197 H   0  0  0  0  0  0  0  0  0  0  0  0
    2.5444   -1.5966    1.5487 C   0  0  0  0  0  0  0  0  0  0  0  0
    2.0155   -2.3280    2.1691 H   0  0  0  0  0  0  0  0  0  0  0  0
    3.3514   -2.1097    1.0170 H   0  0  0  0  0  0  0  0  0  0  0  0
    2.9907   -0.8382    2.2006 H   0  0  0  0  0  0  0  0  0  0  0  0
  1  2  1  0  0  0  0
  2  3  1  0  0  0  0
  2  4  1  0  0  0  0
  2  5  1  0  0  0  0
  5  6  2  0  0  0  0
  5  7  1  0  0  0  0
  7  8  1  0  0  0  0
  7  9  1  0  0  0  0
  9 10  1  0  0  0  0
  9 11  1  0  0  0  0
  9 22  1  0  0  0  0
 11 12  1  0  0  0  0
 11 13  1  0  0  0  0
 11 14  1  0  0  0  0
 14 15  1  0  0  0  0
 14 16  1  0  0  0  0
 14 17  1  0  0  0  0
 17 18  1  0  0  0  0
 18 19  1  0  0  0  0
 18 20  1  0  0  0  0
 18 21  1  0  0  0  0
 22 23  2  0  0  0  0
 22 24  1  0  0  0  0
 24 25  1  0  0  0  0
 24 26  1  0  0  0  0
 26 27  1  0  0  0  0
 26 28  1  0  0  0  0
 26 29  1  0  0  0  0
M  END
$$$$

  -OEChem-01062216093D

 29 28  0     1  0  0  0  0  0999 V2000
   -3.5105   -3.0924    1.0161 H   0  0  0  0  0  0  0  0  0  0  0  0
   -3.4783   -2.0834    0.5957 C   0  0  0  0  0  0  0  0  0  0  0  0
   -3.9314   -1.3921    1.3103 H   0  0  0  0  0  0  0  0  0  0  0  0
   -4.0538   -2.0694   -0.3330 H   0  0  0  0  0  0  0  0  0  0  0  0
   -2.0422   -1.6783    0.3226 C   0  0  0  0  0  0  0  0  0  0  0  0
   -1.1544   -2.5091    0.4230 O   0  0  0  0  0  0  0  0  0  0  0  0
   -1.7770   -0.4196   -0.1854 N   0  0  0  0  0  0  0  0  0  0  0  0
   -2.5968    0.1706   -0.2715 H   0  0  0  0  0  0  0  0  0  0  0  0
   -0.4856    0.2891   -0.0543 C   0  0  1  0  0  0  0  0  0  0  0  0
    0.0284    0.2186   -1.0166 H   0  0  0  0  0  0  0  0  0  0  0  0
   -0.7711    1.7733    0.2593 C   0  0  0  0  0  0  0  0  0  0  0  0
   -1.3949    1.8359    1.1576 H   0  0  0  0  0  0  0  0  0  0  0  0
    0.1716    2.2787    0.4901 H   0  0  0  0  0  0  0  0  0  0  0  0
   -1.4640    2.5250   -0.8873 C   0  0  0  0  0  0  0  0  0  0  0  0
   -2.4280    2.0584   -1.1102 H   0  0  0  0  0  0  0  0  0  0  0  0
   -1.6635    3.5552   -0.5748 H   0  0  0  0  0  0  0  0  0  0  0  0
   -0.4430    2.5490   -2.4185 S   0  0  0  0  0  0  0  0  0  0  0  0
    0.9619    3.6427   -1.9640 C   0  0  0  0  0  0  0  0  0  0  0  0
    1.5613    3.1890   -1.1696 H   0  0  0  0  0  0  0  0  0  0  0  0
    1.6053    3.8049   -2.8338 H   0  0  0  0  0  0  0  0  0  0  0  0
    0.5920    4.6124   -1.6177 H   0  0  0  0  0  0  0  0  0  0  0  0
    0.5051   -0.2659    1.0027 C   0  0  0  0  0  0  0  0  0  0  0  0
    0.2639   -0.1197    2.1967 O   0  0  0  0  0  0  0  0  0  0  0  0
    1.7563   -0.7131    0.6181 N   0  0  0  0  0  0  0  0  0  0  0  0
    1.8568   -0.9644   -0.3609 H   0  0  0  0  0  0  0  0  0  0  0  0
    2.7037   -1.2776    1.5714 C   0  0  0  0  0  0  0  0  0  0  0  0
    2.2765   -2.1632    2.0542 H   0  0  0  0  0  0  0  0  0  0  0  0
    3.6259   -1.5704    1.0606 H   0  0  0  0  0  0  0  0  0  0  0  0
    2.9569   -0.5429    2.3431 H   0  0  0  0  0  0  0  0  0  0  0  0
  1  2  1  0  0  0  0
  2  3  1  0  0  0  0
  2  4  1  0  0  0  0
  2  5  1  0  0  0  0
  5  6  2  0  0  0  0
  5  7  1  0  0  0  0
  7  8  1  0  0  0  0
  7  9  1  0  0  0  0
  9 10  1  0  0  0  0
  9 11  1  0  0  0  0
  9 22  1  0  0  0  0
 11 12  1  0  0  0  0
 11 13  1  0  0  0  0
 11 14  1  0  0  0  0
 14 15  1  0  0  0  0
 14 16  1  0  0  0  0
 14 17  1  0  0  0  0
 17 18  1  0  0  0  0
 18 19  1  0  0  0  0
 18 20  1  0  0  0  0
 18 21  1  0  0  0  0
 22 23  2  0  0  0  0
 22 24  1  0  0  0  0
 24 25  1  0  0  0  0
 24 26  1  0  0  0  0
 26 27  1  0  0  0  0
 26 28  1  0  0  0  0
 26 29  1  0  0  0  0
M  END
$$$$

  -OEChem-01062216093D

 29 28  0     1  0  0  0  0  0999 V2000
   -3.4949   -3.1015    1.0185 H   0  0  0  0  0  0  0  0  0  0  0  0
   -3.4687   -2.0824    0.6222 C   0  0  0  0  0  0  0  0  0  0  0  0
   -3.8746   -1.4037    1.3759 H   0  0  0  0  0  0  0  0  0  0  0  0
   -4.0895   -2.0365   -0.2757 H   0  0  0  0  0  0  0  0  0  0  0  0
   -2.0418   -1.6904    0.2889 C   0  0  0  0  0  0  0  0  0  0  0  0
   -1.1607   -2.5339    0.3267 O   0  0  0  0  0  0  0  0  0  0  0  0
   -1.7812   -0.4309   -0.2193 N   0  0  0  0  0  0  0  0  0  0  0  0
   -2.5999    0.1651   -0.2655 H   0  0  0  0  0  0  0  0  0  0  0  0
   -0.4887    0.2731   -0.0726 C   0  0  1  0  0  0  0  0  0  0  0  0
    0.0327    0.2048   -1.0313 H   0  0  0  0  0  0  0  0  0  0  0  0
   -0.7738    1.7540    0.2535 C   0  0  0  0  0  0  0  0  0  0  0  0
   -1.4041    1.8078    1.1477 H   0  0  0  0  0  0  0  0  0  0  0  0
    0.1676    2.2567    0.4962 H   0  0  0  0  0  0  0  0  0  0  0  0
   -1.4575    2.5175   -0.8908 C   0  0  0  0  0  0  0  0  0  0  0  0
   -2.4203    2.0540   -1.1251 H   0  0  0  0  0  0  0  0  0  0  0  0
   -1.6589    3.5447   -0.5701 H   0  0  0  0  0  0  0  0  0  0  0  0
   -0.4258    2.5547   -2.4150 S   0  0  0  0  0  0  0  0  0  0  0  0
    0.9800    3.6415   -1.9463 C   0  0  0  0  0  0  0  0  0  0  0  0
    1.5723    3.1833   -1.1495 H   0  0  0  0  0  0  0  0  0  0  0  0
    1.6298    3.8044   -2.8114 H   0  0  0  0  0  0  0  0  0  0  0  0
    0.6111    4.6113   -1.5995 H   0  0  0  0  0  0  0  0  0  0  0  0
    0.4919   -0.2826    0.9930 C   0  0  0  0  0  0  0  0  0  0  0  0
    0.1500   -0.3122    2.1711 O   0  0  0  0  0  0  0  0  0  0  0  0
    1.8322   -0.4395    0.6870 N   0  0  0  0  0  0  0  0  0  0  0  0
    2.0661   -0.5016   -0.2992 H   0  0  0  0  0  0  0  0  0  0  0  0
    2.8019   -0.9292    1.6594 C   0  0  0  0  0  0  0  0  0  0  0  0
    2.5139   -1.9229    2.0191 H   0  0  0  0  0  0  0  0  0  0  0  0
    3.7938   -0.9990    1.2030 H   0  0  0  0  0  0  0  0  0  0  0  0
    2.8644   -0.2492    2.5154 H   0  0  0  0  0  0  0  0  0  0  0  0
  1  2  1  0  0  0  0
  2  3  1  0  0  0  0
  2  4  1  0  0  0  0
  2  5  1  0  0  0  0
  5  6  2  0  0  0  0
  5  7  1  0  0  0  0
  7  8  1  0  0  0  0
  7  9  1  0  0  0  0
  9 10  1  0  0  0  0
  9 11  1  0  0  0  0
  9 22  1  0  0  0  0
 11 12  1  0  0  0  0
 11 13  1  0  0  0  0
 11 14  1  0  0  0  0
 14 15  1  0  0  0  0
 14 16  1  0  0  0  0
 14 17  1  0  0  0  0
 17 18  1  0  0  0  0
 18 19  1  0  0  0  0
 18 20  1  0  0  0  0
 18 21  1  0  0  0  0
 22 23  2  0  0  0  0
 22 24  1  0  0  0  0
 24 25  1  0  0  0  0
 24 26  1  0  0  0  0
 26 27  1  0  0  0  0
 26 28  1  0  0  0  0
 26 29  1  0  0  0  0
M  END
$$$$

  -OEChem-01062216093D

 29 28  0     1  0  0  0  0  0999 V2000
   -3.4996   -3.0855    1.0512 H   0  0  0  0  0  0  0  0  0  0  0  0
   -3.4735   -2.0715    0.6425 C   0  0  0  0  0  0  0  0  0  0  0  0
   -3.8434   -1.3787    1.4021 H   0  0  0  0  0  0  0  0  0  0  0  0
   -4.1238   -2.0260   -0.2340 H   0  0  0  0  0  0  0  0  0  0  0  0
   -2.0536   -1.7040    0.2559 C   0  0  0  0  0  0  0  0  0  0  0  0
   -1.1892   -2.5654    0.2369 O   0  0  0  0  0  0  0  0  0  0  0  0
   -1.7860   -0.4446   -0.2483 N   0  0  0  0  0  0  0  0  0  0  0  0
   -2.5988    0.1604   -0.2683 H   0  0  0  0  0  0  0  0  0  0  0  0
   -0.4878    0.2468   -0.0889 C   0  0  1  0  0  0  0  0  0  0  0  0
    0.0377    0.1808   -1.0455 H   0  0  0  0  0  0  0  0  0  0  0  0
   -0.7716    1.7251    0.2510 C   0  0  0  0  0  0  0  0  0  0  0  0
   -1.4065    1.7701    1.1425 H   0  0  0  0  0  0  0  0  0  0  0  0
    0.1684    2.2245    0.5044 H   0  0  0  0  0  0  0  0  0  0  0  0
   -1.4467    2.5030   -0.8884 C   0  0  0  0  0  0  0  0  0  0  0  0
   -2.4090    2.0445   -1.1346 H   0  0  0  0  0  0  0  0  0  0  0  0
   -1.6474    3.5273   -0.5582 H   0  0  0  0  0  0  0  0  0  0  0  0
   -0.4030    2.5524   -2.4037 S   0  0  0  0  0  0  0  0  0  0  0  0
    1.0003    3.6305   -1.9086 C   0  0  0  0  0  0  0  0  0  0  0  0
    1.5840    3.1614   -1.1116 H   0  0  0  0  0  0  0  0  0  0  0  0
    1.6588    3.8029   -2.7651 H   0  0  0  0  0  0  0  0  0  0  0  0
    0.6295    4.5966   -1.5532 H   0  0  0  0  0  0  0  0  0  0  0  0
    0.4912   -0.3093    0.9786 C   0  0  0  0  0  0  0  0  0  0  0  0
    0.0932   -0.5092    2.1218 O   0  0  0  0  0  0  0  0  0  0  0  0
    1.8552   -0.1763    0.7828 N   0  0  0  0  0  0  0  0  0  0  0  0
    2.1690   -0.0430   -0.1737 H   0  0  0  0  0  0  0  0  0  0  0  0
    2.8365   -0.5635    1.7896 C   0  0  0  0  0  0  0  0  0  0  0  0
    2.7193   -1.6206    2.0512 H   0  0  0  0  0  0  0  0  0  0  0  0
    3.8505   -0.4107    1.4082 H   0  0  0  0  0  0  0  0  0  0  0  0
    2.7152    0.0394    2.6957 H   0  0  0  0  0  0  0  0  0  0  0  0
  1  2  1  0  0  0  0
  2  3  1  0  0  0  0
  2  4  1  0  0  0  0
  2  5  1  0  0  0  0
  5  6  2  0  0  0  0
  5  7  1  0  0  0  0
  7  8  1  0  0  0  0
  7  9  1  0  0  0  0
  9 10  1  0  0  0  0
  9 11  1  0  0  0  0
  9 22  1  0  0  0  0
 11 12  1  0  0  0  0
 11 13  1  0  0  0  0
 11 14  1  0  0  0  0
 14 15  1  0  0  0  0
 14 16  1  0  0  0  0
 14 17  1  0  0  0  0
 17 18  1  0  0  0  0
 18 19  1  0  0  0  0
 18 20  1  0  0  0  0
 18 21  1  0  0  0  0
 22 23  2  0  0  0  0
 22 24  1  0  0  0  0
 24 25  1  0  0  0  0
 24 26  1  0  0  0  0
 26 27  1  0  0  0  0
 26 28  1  0  0  0  0
 26 29  1  0  0  0  0
M  END
$$$$

  -OEChem-01062216093D

 29 28  0     1  0  0  0  0  0999 V2000
   -3.5206   -3.0934    1.0075 H   0  0  0  0  0  0  0  0  0  0  0  0
   -3.4770   -2.0583    0.6573 C   0  0  0  0  0  0  0  0  0  0  0  0
   -3.7914   -1.4008    1.4711 H   0  0  0  0  0  0  0  0  0  0  0  0
   -4.1611   -1.9415   -0.1863 H   0  0  0  0  0  0  0  0  0  0  0  0
   -2.0627   -1.7125    0.2326 C   0  0  0  0  0  0  0  0  0  0  0  0
   -1.2236   -2.5943    0.1450 O   0  0  0  0  0  0  0  0  0  0  0  0
   -1.7829   -0.4518   -0.2608 N   0  0  0  0  0  0  0  0  0  0  0  0
   -2.5882    0.1630   -0.2511 H   0  0  0  0  0  0  0  0  0  0  0  0
   -0.4778    0.2265   -0.0927 C   0  0  1  0  0  0  0  0  0  0  0  0
    0.0482    0.1633   -1.0493 H   0  0  0  0  0  0  0  0  0  0  0  0
   -0.7686    1.7038    0.2535 C   0  0  0  0  0  0  0  0  0  0  0  0
   -1.4089    1.7415    1.1415 H   0  0  0  0  0  0  0  0  0  0  0  0
    0.1655    2.2102    0.5141 H   0  0  0  0  0  0  0  0  0  0  0  0
   -1.4388    2.4844   -0.8876 C   0  0  0  0  0  0  0  0  0  0  0  0
   -2.3983    2.0247   -1.1423 H   0  0  0  0  0  0  0  0  0  0  0  0
   -1.6445    3.5069   -0.5546 H   0  0  0  0  0  0  0  0  0  0  0  0
   -0.3861    2.5447   -2.3961 S   0  0  0  0  0  0  0  0  0  0  0  0
    1.0116    3.6253   -1.8918 C   0  0  0  0  0  0  0  0  0  0  0  0
    1.5923    3.1573   -1.0923 H   0  0  0  0  0  0  0  0  0  0  0  0
    1.6740    3.8004   -2.7450 H   0  0  0  0  0  0  0  0  0  0  0  0
    0.6360    4.5901   -1.5379 H   0  0  0  0  0  0  0  0  0  0  0  0
    0.5087   -0.3322    0.9703 C   0  0  0  0  0  0  0  0  0  0  0  0
    0.0895   -0.7150    2.0575 O   0  0  0  0  0  0  0  0  0  0  0  0
    1.8335    0.0703    0.9246 N   0  0  0  0  0  0  0  0  0  0  0  0
    2.1819    0.4003    0.0300 H   0  0  0  0  0  0  0  0  0  0  0  0
    2.7961   -0.2384    1.9764 C   0  0  0  0  0  0  0  0  0  0  0  0
    2.8579   -1.3206    2.1330 H   0  0  0  0  0  0  0  0  0  0  0  0
    3.7891    0.1290    1.7008 H   0  0  0  0  0  0  0  0  0  0  0  0
    2.5022    0.2372    2.9181 H   0  0  0  0  0  0  0  0  0  0  0  0
  1  2  1  0  0  0  0
  2  3  1  0  0  0  0
  2  4  1  0  0  0  0
  2  5  1  0  0  0  0
  5  6  2  0  0  0  0
  5  7  1  0  0  0  0
  7  8  1  0  0  0  0
  7  9  1  0  0  0  0
  9 10  1  0  0  0  0
  9 11  1  0  0  0  0
  9 22  1  0  0  0  0
 11 12  1  0  0  0  0
 11 13  1  0  0  0  0
 11 14  1  0  0  0  0
 14 15  1  0  0  0  0
 14 16  1  0  0  0  0
 14 17  1  0  0  0  0
 17 18  1  0  0  0  0
 18 19  1  0  0  0  0
 18 20  1  0  0  0  0
 18 21  1  0  0  0  0
 22 23  2  0  0  0  0
 22 24  1  0  0  0  0
 24 25  1  0  0  0  0
 24 26  1  0  0  0  0
 26 27  1  0  0  0  0
 26 28  1  0  0  0  0
 26 29  1  0  0  0  0
M  END
$$$$

  -OEChem-01062216093D

 29 28  0     1  0  0  0  0  0999 V2000
   -3.5343   -3.1564    0.8411 H   0  0  0  0  0  0  0  0  0  0  0  0
   -3.3137   -2.3089    0.1861 C   0  0  0  0  0  0  0  0  0  0  0  0
   -4.2473   -1.7947   -0.0539 H   0  0  0  0  0  0  0  0  0  0  0  0
   -2.8632   -2.6873   -0.7344 H   0  0  0  0  0  0  0  0  0  0  0  0
   -2.3553   -1.3565    0.8760 C   0  0  0  0  0  0  0  0  0  0  0  0
   -2.1695   -1.4546    2.0772 O   0  0  0  0  0  0  0  0  0  0  0  0
   -1.9667   -0.1939    0.2402 N   0  0  0  0  0  0  0  0  0  0  0  0
   -2.4443   -0.0810   -0.6480 H   0  0  0  0  0  0  0  0  0  0  0  0
   -0.5842    0.3430    0.2225 C   0  0  1  0  0  0  0  0  0  0  0  0
   -0.2629    0.4050   -0.8208 H   0  0  0  0  0  0  0  0  0  0  0  0
   -0.7059    1.7647    0.8226 C   0  0  0  0  0  0  0  0  0  0  0  0
   -1.1773    1.6906    1.8093 H   0  0  0  0  0  0  0  0  0  0  0  0
    0.2831    2.2038    0.9740 H   0  0  0  0  0  0  0  0  0  0  0  0
   -1.5220    2.7274   -0.0541 C   0  0  0  0  0  0  0  0  0  0  0  0
   -2.5408    2.3464   -0.1739 H   0  0  0  0  0  0  0  0  0  0  0  0
   -1.5974    3.6966    0.4492 H   0  0  0  0  0  0  0  0  0  0  0  0
   -0.7666    2.9691   -1.7157 S   0  0  0  0  0  0  0  0  0  0  0  0
    0.7675    3.9125   -1.3531 C   0  0  0  0  0  0  0  0  0  0  0  0
    1.4625    3.3077   -0.7649 H   0  0  0  0  0  0  0  0  0  0  0  0
    1.2601    4.1962   -2.2881 H   0  0  0  0  0  0  0  0  0  0  0  0
    0.5296    4.8226   -0.7944 H   0  0  0  0  0  0  0  0  0  0  0  0
    0.5748   -0.4119    0.9446 C   0  0  0  0  0  0  0  0  0  0  0  0
    0.5420   -1.6191    1.1394 O   0  0  0  0  0  0  0  0  0  0  0  0
    1.8472    0.1386    0.9003 N   0  0  0  0  0  0  0  0  0  0  0  0
    1.9292    1.0999    0.5877 H   0  0  0  0  0  0  0  0  0  0  0  0
    3.0585   -0.5789    1.2861 C   0  0  0  0  0  0  0  0  0  0  0  0
    3.2463   -1.4108    0.5991 H   0  0  0  0  0  0  0  0  0  0  0  0
    3.9213    0.0933    1.2600 H   0  0  0  0  0  0  0  0  0  0  0  0
    2.9622   -0.9760    2.3023 H   0  0  0  0  0  0  0  0  0  0  0  0
  1  2  1  0  0  0  0
  2  3  1  0  0  0  0
  2  4  1  0  0  0  0
  2  5  1  0  0  0  0
  5  6  2  0  0  0  0
  5  7  1  0  0  0  0
  7  8  1  0  0  0  0
  7  9  1  0  0  0  0
  9 10  1  0  0  0  0
  9 11  1  0  0  0  0
  9 22  1  0  0  0  0
 11 12  1  0  0  0  0
 11 13  1  0  0  0  0
 11 14  1  0  0  0  0
 14 15  1  0  0  0  0
 14 16  1  0  0  0  0
 14 17  1  0  0  0  0
 17 18  1  0  0  0  0
 18 19  1  0  0  0  0
 18 20  1  0  0  0  0
 18 21  1  0  0  0  0
 22 23  2  0  0  0  0
 22 24  1  0  0  0  0
 24 25  1  0  0  0  0
 24 26  1  0  0  0  0
 26 27  1  0  0  0  0
 26 28  1  0  0  0  0
 26 29  1  0  0  0  0
M  END
$$$$

  -OEChem-01062216093D

 29 28  0     1  0  0  0  0  0999 V2000
   -3.4822   -3.1706    0.8466 H   0  0  0  0  0  0  0  0  0  0  0  0
   -3.3150   -2.2967    0.2106 C   0  0  0  0  0  0  0  0  0  0  0  0
   -4.2663   -1.7813    0.0592 H   0  0  0  0  0  0  0  0  0  0  0  0
   -2.9310   -2.6357   -0.7545 H   0  0  0  0  0  0  0  0  0  0  0  0
   -2.3148   -1.3628    0.8646 C   0  0  0  0  0  0  0  0  0  0  0  0
   -2.0370   -1.5042    2.0442 O   0  0  0  0  0  0  0  0  0  0  0  0
   -1.9550   -0.1884    0.2323 N   0  0  0  0  0  0  0  0  0  0  0  0
   -2.4496   -0.0687   -0.6457 H   0  0  0  0  0  0  0  0  0  0  0  0
   -0.5790    0.3639    0.2052 C   0  0  1  0  0  0  0  0  0  0  0  0
   -0.2559    0.4290   -0.8374 H   0  0  0  0  0  0  0  0  0  0  0  0
   -0.7126    1.7873    0.8010 C   0  0  0  0  0  0  0  0  0  0  0  0
   -1.1733    1.7133    1.7927 H   0  0  0  0  0  0  0  0  0  0  0  0
    0.2708    2.2419    0.9352 H   0  0  0  0  0  0  0  0  0  0  0  0
   -1.5445    2.7380   -0.0744 C   0  0  0  0  0  0  0  0  0  0  0  0
   -2.5600    2.3454   -0.1863 H   0  0  0  0  0  0  0  0  0  0  0  0
   -1.6272    3.7083    0.4255 H   0  0  0  0  0  0  0  0  0  0  0  0
   -0.8031    2.9820   -1.7419 S   0  0  0  0  0  0  0  0  0  0  0  0
    0.7234    3.9429   -1.3925 C   0  0  0  0  0  0  0  0  0  0  0  0
    1.4317    3.3433   -0.8145 H   0  0  0  0  0  0  0  0  0  0  0  0
    1.2029    4.2356   -2.3315 H   0  0  0  0  0  0  0  0  0  0  0  0
    0.4811    4.8479   -0.8276 H   0  0  0  0  0  0  0  0  0  0  0  0
    0.5622   -0.4219    0.9234 C   0  0  0  0  0  0  0  0  0  0  0  0
    0.6110   -1.6427    0.8340 O   0  0  0  0  0  0  0  0  0  0  0  0
    1.7739    0.1967    1.1941 N   0  0  0  0  0  0  0  0  0  0  0  0
    1.7923    1.2103    1.1844 H   0  0  0  0  0  0  0  0  0  0  0  0
    2.9643   -0.5198    1.6412 C   0  0  0  0  0  0  0  0  0  0  0  0
    3.3172   -1.2017    0.8604 H   0  0  0  0  0  0  0  0  0  0  0  0
    3.7676    0.1865    1.8716 H   0  0  0  0  0  0  0  0  0  0  0  0
    2.7453   -1.1005    2.5438 H   0  0  0  0  0  0  0  0  0  0  0  0
  1  2  1  0  0  0  0
  2  3  1  0  0  0  0
  2  4  1  0  0  0  0
  2  5  1  0  0  0  0
  5  6  2  0  0  0  0
  5  7  1  0  0  0  0
  7  8  1  0  0  0  0
  7  9  1  0  0  0  0
  9 10  1  0  0  0  0
  9 11  1  0  0  0  0
  9 22  1  0  0  0  0
 11 12  1  0  0  0  0
 11 13  1  0  0  0  0
 11 14  1  0  0  0  0
 14 15  1  0  0  0  0
 14 16  1  0  0  0  0
 14 17  1  0  0  0  0
 17 18  1  0  0  0  0
 18 19  1  0  0  0  0
 18 20  1  0  0  0  0
 18 21  1  0  0  0  0
 22 23  2  0  0  0  0
 22 24  1  0  0  0  0
 24 25  1  0  0  0  0
 24 26  1  0  0  0  0
 26 27  1  0  0  0  0
 26 28  1  0  0  0  0
 26 29  1  0  0  0  0
M  END
$$$$

  -OEChem-01062216093D

 29 28  0     1  0  0  0  0  0999 V2000
   -3.4513   -3.1795    0.8369 H   0  0  0  0  0  0  0  0  0  0  0  0
   -3.3123   -2.2885    0.2183 C   0  0  0  0  0  0  0  0  0  0  0  0
   -4.2685   -1.7683    0.1267 H   0  0  0  0  0  0  0  0  0  0  0  0
   -2.9756   -2.6012   -0.7730 H   0  0  0  0  0  0  0  0  0  0  0  0
   -2.2792   -1.3745    0.8489 C   0  0  0  0  0  0  0  0  0  0  0  0
   -1.9188   -1.5712    1.9981 O   0  0  0  0  0  0  0  0  0  0  0  0
   -1.9470   -0.1842    0.2297 N   0  0  0  0  0  0  0  0  0  0  0  0
   -2.4651   -0.0461   -0.6322 H   0  0  0  0  0  0  0  0  0  0  0  0
   -0.5801    0.3878    0.1959 C   0  0  1  0  0  0  0  0  0  0  0  0
   -0.2596    0.4547   -0.8477 H   0  0  0  0  0  0  0  0  0  0  0  0
   -0.7128    1.8129    0.7858 C   0  0  0  0  0  0  0  0  0  0  0  0
   -1.1608    1.7449    1.7833 H   0  0  0  0  0  0  0  0  0  0  0  0
    0.2723    2.2707    0.8988 H   0  0  0  0  0  0  0  0  0  0  0  0
   -1.5557    2.7547   -0.0883 C   0  0  0  0  0  0  0  0  0  0  0  0
   -2.5702    2.3569   -0.1894 H   0  0  0  0  0  0  0  0  0  0  0  0
   -1.6381    3.7282    0.4054 H   0  0  0  0  0  0  0  0  0  0  0  0
   -0.8296    2.9910   -1.7635 S   0  0  0  0  0  0  0  0  0  0  0  0
    0.6962    3.9595   -1.4336 C   0  0  0  0  0  0  0  0  0  0  0  0
    1.4120    3.3655   -0.8585 H   0  0  0  0  0  0  0  0  0  0  0  0
    1.1661    4.2478   -2.3786 H   0  0  0  0  0  0  0  0  0  0  0  0
    0.4560    4.8672   -0.8720 H   0  0  0  0  0  0  0  0  0  0  0  0
    0.5533   -0.4196    0.8997 C   0  0  0  0  0  0  0  0  0  0  0  0
    0.7044   -1.5973    0.5946 O   0  0  0  0  0  0  0  0  0  0  0  0
    1.6496    0.2076    1.4718 N   0  0  0  0  0  0  0  0  0  0  0  0
    1.5365    1.1805    1.7335 H   0  0  0  0  0  0  0  0  0  0  0  0
    2.8007   -0.5215    1.9935 C   0  0  0  0  0  0  0  0  0  0  0  0
    3.3133   -1.0571    1.1873 H   0  0  0  0  0  0  0  0  0  0  0  0
    3.5117    0.1718    2.4525 H   0  0  0  0  0  0  0  0  0  0  0  0
    2.4839   -1.2456    2.7519 H   0  0  0  0  0  0  0  0  0  0  0  0
  1  2  1  0  0  0  0
  2  3  1  0  0  0  0
  2  4  1  0  0  0  0
  2  5  1  0  0  0  0
  5  6  2  0  0  0  0
  5  7  1  0  0  0  0
  7  8  1  0  0  0  0
  7  9  1  0  0  0  0
  9 10  1  0  0  0  0
  9 11  1  0  0  0  0
  9 22  1  0  0  0  0
 11 12  1  0  0  0  0
 11 13  1  0  0  0  0
 11 14  1  0  0  0  0
 14 15  1  0  0  0  0
 14 16  1  0  0  0  0
 14 17  1  0  0  0  0
 17 18  1  0  0  0  0
 18 19  1  0  0  0  0
 18 20  1  0  0  0  0
 18 21  1  0  0  0  0
 22 23  2  0  0  0  0
 22 24  1  0  0  0  0
 24 25  1  0  0  0  0
 24 26  1  0  0  0  0
 26 27  1  0  0  0  0
 26 28  1  0  0  0  0
 26 29  1  0  0  0  0
M  END
$$$$

  -OEChem-01062216093D

 29 28  0     1  0  0  0  0  0999 V2000
   -3.4449   -3.1891    0.8146 H   0  0  0  0  0  0  0  0  0  0  0  0
   -3.3344   -2.2750    0.2245 C   0  0  0  0  0  0  0  0  0  0  0  0
   -4.2872   -1.7409    0.2169 H   0  0  0  0  0  0  0  0  0  0  0  0
   -3.0677   -2.5510   -0.7986 H   0  0  0  0  0  0  0  0  0  0  0  0
   -2.2516   -1.3978    0.8234 C   0  0  0  0  0  0  0  0  0  0  0  0
   -1.8221   -1.6489    1.9376 O   0  0  0  0  0  0  0  0  0  0  0  0
   -1.9334   -0.1966    0.2166 N   0  0  0  0  0  0  0  0  0  0  0  0
   -2.4707   -0.0374   -0.6300 H   0  0  0  0  0  0  0  0  0  0  0  0
   -0.5758    0.3958    0.1839 C   0  0  1  0  0  0  0  0  0  0  0  0
   -0.2579    0.4680   -0.8601 H   0  0  0  0  0  0  0  0  0  0  0  0
   -0.7086    1.8197    0.7734 C   0  0  0  0  0  0  0  0  0  0  0  0
   -1.1503    1.7527    1.7737 H   0  0  0  0  0  0  0  0  0  0  0  0
    0.2798    2.2746    0.8776 H   0  0  0  0  0  0  0  0  0  0  0  0
   -1.5581    2.7602   -0.0954 C   0  0  0  0  0  0  0  0  0  0  0  0
   -2.5721    2.3599   -0.1897 H   0  0  0  0  0  0  0  0  0  0  0  0
   -1.6388    3.7331    0.3998 H   0  0  0  0  0  0  0  0  0  0  0  0
   -0.8452    3.0008   -1.7755 S   0  0  0  0  0  0  0  0  0  0  0  0
    0.6816    3.9726   -1.4592 C   0  0  0  0  0  0  0  0  0  0  0  0
    1.4032    3.3811   -0.8887 H   0  0  0  0  0  0  0  0  0  0  0  0
    1.1436    4.2599   -2.4086 H   0  0  0  0  0  0  0  0  0  0  0  0
    0.4446    4.8809   -0.8976 H   0  0  0  0  0  0  0  0  0  0  0  0
    0.5580   -0.4136    0.8808 C   0  0  0  0  0  0  0  0  0  0  0  0
    0.8306   -1.5208    0.4305 O   0  0  0  0  0  0  0  0  0  0  0  0
    1.4887    0.1769    1.7213 N   0  0  0  0  0  0  0  0  0  0  0  0
    1.2197    1.0579    2.1458 H   0  0  0  0  0  0  0  0  0  0  0  0
    2.5955   -0.5663    2.3128 C   0  0  0  0  0  0  0  0  0  0  0  0
    3.2564   -0.9569    1.5317 H   0  0  0  0  0  0  0  0  0  0  0  0
    3.1833    0.0850    2.9665 H   0  0  0  0  0  0  0  0  0  0  0  0
    2.2183   -1.4058    2.9068 H   0  0  0  0  0  0  0  0  0  0  0  0
  1  2  1  0  0  0  0
  2  3  1  0  0  0  0
  2  4  1  0  0  0  0
  2  5  1  0  0  0  0
  5  6  2  0  0  0  0
  5  7  1  0  0  0  0
  7  8  1  0  0  0  0
  7  9  1  0  0  0  0
  9 10  1  0  0  0  0
  9 11  1  0  0  0  0
  9 22  1  0  0  0  0
 11 12  1  0  0  0  0
 11 13  1  0  0  0  0
 11 14  1  0  0  0  0
 14 15  1  0  0  0  0
 14 16  1  0  0  0  0
 14 17  1  0  0  0  0
 17 18  1  0  0  0  0
 18 19  1  0  0  0  0
 18 20  1  0  0  0  0
 18 21  1  0  0  0  0
 22 23  2  0  0  0  0
 22 24  1  0  0  0  0
 24 25  1  0  0  0  0
 24 26  1  0  0  0  0
 26 27  1  0  0  0  0
 26 28  1  0  0  0  0
 26 29  1  0  0  0  0
M  END
$$$$

  -OEChem-01062216093D

 29 28  0     1  0  0  0  0  0999 V2000
   -3.4487   -3.1976    0.7836 H   0  0  0  0  0  0  0  0  0  0  0  0
   -3.3655   -2.2572    0.2315 C   0  0  0  0  0  0  0  0  0  0  0  0
   -4.3088   -1.7125    0.3158 H   0  0  0  0  0  0  0  0  0  0  0  0
   -3.1741   -2.4853   -0.8198 H   0  0  0  0  0  0  0  0  0  0  0  0
   -2.2317   -1.4219    0.7949 C   0  0  0  0  0  0  0  0  0  0  0  0
   -1.7393   -1.7278    1.8682 O   0  0  0  0  0  0  0  0  0  0  0  0
   -1.9177   -0.2143    0.1977 N   0  0  0  0  0  0  0  0  0  0  0  0
   -2.4743   -0.0301   -0.6313 H   0  0  0  0  0  0  0  0  0  0  0  0
   -0.5677    0.3940    0.1694 C   0  0  1  0  0  0  0  0  0  0  0  0
   -0.2504    0.4713   -0.8749 H   0  0  0  0  0  0  0  0  0  0  0  0
   -0.7035    1.8152    0.7622 C   0  0  0  0  0  0  0  0  0  0  0  0
   -1.1462    1.7458    1.7618 H   0  0  0  0  0  0  0  0  0  0  0  0
    0.2874    2.2661    0.8688 H   0  0  0  0  0  0  0  0  0  0  0  0
   -1.5571    2.7554   -0.1026 C   0  0  0  0  0  0  0  0  0  0  0  0
   -2.5697    2.3516   -0.1968 H   0  0  0  0  0  0  0  0  0  0  0  0
   -1.6403    3.7270    0.3949 H   0  0  0  0  0  0  0  0  0  0  0  0
   -0.8481    3.0024   -1.7832 S   0  0  0  0  0  0  0  0  0  0  0  0
    0.6758    3.9779   -1.4641 C   0  0  0  0  0  0  0  0  0  0  0  0
    1.3940    3.3906   -0.8848 H   0  0  0  0  0  0  0  0  0  0  0  0
    1.1439    4.2591   -2.4123 H   0  0  0  0  0  0  0  0  0  0  0  0
    0.4339    4.8895   -0.9096 H   0  0  0  0  0  0  0  0  0  0  0  0
    0.5713   -0.4064    0.8632 C   0  0  0  0  0  0  0  0  0  0  0  0
    0.9868   -1.4138    0.3023 O   0  0  0  0  0  0  0  0  0  0  0  0
    1.3012    0.1006    1.9262 N   0  0  0  0  0  0  0  0  0  0  0  0
    0.8587    0.8470    2.4518 H   0  0  0  0  0  0  0  0  0  0  0  0
    2.3596   -0.6625    2.5768 C   0  0  0  0  0  0  0  0  0  0  0  0
    3.1607   -0.8914    1.8663 H   0  0  0  0  0  0  0  0  0  0  0  0
    2.7872   -0.0870    3.4031 H   0  0  0  0  0  0  0  0  0  0  0  0
    1.9631   -1.6023    2.9759 H   0  0  0  0  0  0  0  0  0  0  0  0
  1  2  1  0  0  0  0
  2  3  1  0  0  0  0
  2  4  1  0  0  0  0
  2  5  1  0  0  0  0
  5  6  2  0  0  0  0
  5  7  1  0  0  0  0
  7  8  1  0  0  0  0
  7  9  1  0  0  0  0
  9 10  1  0  0  0  0
  9 11  1  0  0  0  0
  9 22  1  0  0  0  0
 11 12  1  0  0  0  0
 11 13  1  0  0  0  0
 11 14  1  0  0  0  0
 14 15  1  0  0  0  0
 14 16  1  0  0  0  0
 14 17  1  0  0  0  0
 17 18  1  0  0  0  0
 18 19  1  0  0  0  0
 18 20  1  0  0  0  0
 18 21  1  0  0  0  0
 22 23  2  0  0  0  0
 22 24  1  0  0  0  0
 24 25  1  0  0  0  0
 24 26  1  0  0  0  0
 26 27  1  0  0  0  0
 26 28  1  0  0  0  0
 26 29  1  0  0  0  0
M  END
$$$$

  -OEChem-01062216093D

 29 28  0     1  0  0  0  0  0999 V2000
   -3.4994   -3.1803    0.7817 H   0  0  0  0  0  0  0  0  0  0  0  0
   -3.4005   -2.2402    0.2317 C   0  0  0  0  0  0  0  0  0  0  0  0
   -4.3243   -1.6674    0.3428 H   0  0  0  0  0  0  0  0  0  0  0  0
   -3.2442   -2.4692   -0.8253 H   0  0  0  0  0  0  0  0  0  0  0  0
   -2.2262   -1.4434    0.7679 C   0  0  0  0  0  0  0  0  0  0  0  0
   -1.6849   -1.8003    1.8006 O   0  0  0  0  0  0  0  0  0  0  0  0
   -1.9057   -0.2337    0.1785 N   0  0  0  0  0  0  0  0  0  0  0  0
   -2.4789   -0.0212   -0.6324 H   0  0  0  0  0  0  0  0  0  0  0  0
   -0.5611    0.3860    0.1585 C   0  0  1  0  0  0  0  0  0  0  0  0
   -0.2426    0.4683   -0.8852 H   0  0  0  0  0  0  0  0  0  0  0  0
   -0.7010    1.8039    0.7550 C   0  0  0  0  0  0  0  0  0  0  0  0
   -1.1488    1.7316    1.7517 H   0  0  0  0  0  0  0  0  0  0  0  0
    0.2915    2.2499    0.8703 H   0  0  0  0  0  0  0  0  0  0  0  0
   -1.5546    2.7466   -0.1070 C   0  0  0  0  0  0  0  0  0  0  0  0
   -2.5668    2.3424   -0.2041 H   0  0  0  0  0  0  0  0  0  0  0  0
   -1.6388    3.7160    0.3946 H   0  0  0  0  0  0  0  0  0  0  0  0
   -0.8442    3.0022   -1.7855 S   0  0  0  0  0  0  0  0  0  0  0  0
    0.6771    3.9781   -1.4566 C   0  0  0  0  0  0  0  0  0  0  0  0
    1.3921    3.3897   -0.8745 H   0  0  0  0  0  0  0  0  0  0  0  0
    1.1503    4.2609   -2.4017 H   0  0  0  0  0  0  0  0  0  0  0  0
    0.4326    4.8888   -0.9019 H   0  0  0  0  0  0  0  0  0  0  0  0
    0.5853   -0.3978    0.8554 C   0  0  0  0  0  0  0  0  0  0  0  0
    1.1631   -1.2676    0.2148 O   0  0  0  0  0  0  0  0  0  0  0  0
    1.0958   -0.0252    2.0879 N   0  0  0  0  0  0  0  0  0  0  0  0
    0.4813    0.5469    2.6578 H   0  0  0  0  0  0  0  0  0  0  0  0
    2.1169   -0.8122    2.7684 C   0  0  0  0  0  0  0  0  0  0  0  0
    3.0272   -0.8681    2.1621 H   0  0  0  0  0  0  0  0  0  0  0  0
    2.3711   -0.3535    3.7286 H   0  0  0  0  0  0  0  0  0  0  0  0
    1.7545   -1.8291    2.9537 H   0  0  0  0  0  0  0  0  0  0  0  0
  1  2  1  0  0  0  0
  2  3  1  0  0  0  0
  2  4  1  0  0  0  0
  2  5  1  0  0  0  0
  5  6  2  0  0  0  0
  5  7  1  0  0  0  0
  7  8  1  0  0  0  0
  7  9  1  0  0  0  0
  9 10  1  0  0  0  0
  9 11  1  0  0  0  0
  9 22  1  0  0  0  0
 11 12  1  0  0  0  0
 11 13  1  0  0  0  0
 11 14  1  0  0  0  0
 14 15  1  0  0  0  0
 14 16  1  0  0  0  0
 14 17  1  0  0  0  0
 17 18  1  0  0  0  0
 18 19  1  0  0  0  0
 18 20  1  0  0  0  0
 18 21  1  0  0  0  0
 22 23  2  0  0  0  0
 22 24  1  0  0  0  0
 24 25  1  0  0  0  0
 24 26  1  0  0  0  0
 26 27  1  0  0  0  0
 26 28  1  0  0  0  0
 26 29  1  0  0  0  0
M  END
$$$$

  -OEChem-01062216093D

 29 28  0     1  0  0  0  0  0999 V2000
   -3.5940   -3.1475    0.7806 H   0  0  0  0  0  0  0  0  0  0  0  0
   -3.4630   -2.2149    0.2242 C   0  0  0  0  0  0  0  0  0  0  0  0
   -4.3562   -1.5992    0.3528 H   0  0  0  0  0  0  0  0  0  0  0  0
   -3.3408   -2.4543   -0.8351 H   0  0  0  0  0  0  0  0  0  0  0  0
   -2.2414   -1.4720    0.7312 C   0  0  0  0  0  0  0  0  0  0  0  0
   -1.6611   -1.8858    1.7200 O   0  0  0  0  0  0  0  0  0  0  0  0
   -1.9016   -0.2626    0.1524 N   0  0  0  0  0  0  0  0  0  0  0  0
   -2.4914   -0.0114   -0.6356 H   0  0  0  0  0  0  0  0  0  0  0  0
   -0.5602    0.3648    0.1490 C   0  0  1  0  0  0  0  0  0  0  0  0
   -0.2367    0.4526   -0.8929 H   0  0  0  0  0  0  0  0  0  0  0  0
   -0.7028    1.7789    0.7524 C   0  0  0  0  0  0  0  0  0  0  0  0
   -1.1562    1.7034    1.7464 H   0  0  0  0  0  0  0  0  0  0  0  0
    0.2915    2.2186    0.8789 H   0  0  0  0  0  0  0  0  0  0  0  0
   -1.5492    2.7291   -0.1079 C   0  0  0  0  0  0  0  0  0  0  0  0
   -2.5615    2.3276   -0.2142 H   0  0  0  0  0  0  0  0  0  0  0  0
   -1.6343    3.6951    0.3998 H   0  0  0  0  0  0  0  0  0  0  0  0
   -0.8271    2.9943   -1.7796 S   0  0  0  0  0  0  0  0  0  0  0  0
    0.6940    3.9645   -1.4334 C   0  0  0  0  0  0  0  0  0  0  0  0
    1.4075    3.3679   -0.8577 H   0  0  0  0  0  0  0  0  0  0  0  0
    1.1694    4.2599   -2.3736 H   0  0  0  0  0  0  0  0  0  0  0  0
    0.4485    4.8674   -0.8667 H   0  0  0  0  0  0  0  0  0  0  0  0
    0.5927   -0.3979    0.8559 C   0  0  0  0  0  0  0  0  0  0  0  0
    1.3634   -1.0585    0.1704 O   0  0  0  0  0  0  0  0  0  0  0  0
    0.8762   -0.2075    2.1976 N   0  0  0  0  0  0  0  0  0  0  0  0
    0.0854    0.1072    2.7523 H   0  0  0  0  0  0  0  0  0  0  0  0
    1.9079   -0.9790    2.8797 C   0  0  0  0  0  0  0  0  0  0  0  0
    2.8840   -0.8188    2.4093 H   0  0  0  0  0  0  0  0  0  0  0  0
    1.9780   -0.6723    3.9274 H   0  0  0  0  0  0  0  0  0  0  0  0
    1.6704   -2.0476    2.8444 H   0  0  0  0  0  0  0  0  0  0  0  0
  1  2  1  0  0  0  0
  2  3  1  0  0  0  0
  2  4  1  0  0  0  0
  2  5  1  0  0  0  0
  5  6  2  0  0  0  0
  5  7  1  0  0  0  0
  7  8  1  0  0  0  0
  7  9  1  0  0  0  0
  9 10  1  0  0  0  0
  9 11  1  0  0  0  0
  9 22  1  0  0  0  0
 11 12  1  0  0  0  0
 11 13  1  0  0  0  0
 11 14  1  0  0  0  0
 14 15  1  0  0  0  0
 14 16  1  0  0  0  0
 14 17  1  0  0  0  0
 17 18  1  0  0  0  0
 18 19  1  0  0  0  0
 18 20  1  0  0  0  0
 18 21  1  0  0  0  0
 22 23  2  0  0  0  0
 22 24  1  0  0  0  0
 24 25  1  0  0  0  0
 24 26  1  0  0  0  0
 26 27  1  0  0  0  0
 26 28  1  0  0  0  0
 26 29  1  0  0  0  0
M  END
$$$$

  -OEChem-01062216093D

 29 28  0     1  0  0  0  0  0999 V2000
   -3.7051   -3.1219    0.7343 H   0  0  0  0  0  0  0  0  0  0  0  0
   -3.5554   -2.1774    0.2030 C   0  0  0  0  0  0  0  0  0  0  0  0
   -4.4193   -1.5326    0.3813 H   0  0  0  0  0  0  0  0  0  0  0  0
   -3.4783   -2.3871   -0.8666 H   0  0  0  0  0  0  0  0  0  0  0  0
   -2.2899   -1.4977    0.6910 C   0  0  0  0  0  0  0  0  0  0  0  0
   -1.6950   -1.9672    1.6450 O   0  0  0  0  0  0  0  0  0  0  0  0
   -1.9136   -0.2936    0.1245 N   0  0  0  0  0  0  0  0  0  0  0  0
   -2.5122    0.0013   -0.6417 H   0  0  0  0  0  0  0  0  0  0  0  0
   -0.5692    0.3299    0.1404 C   0  0  1  0  0  0  0  0  0  0  0  0
   -0.2407    0.4220   -0.8997 H   0  0  0  0  0  0  0  0  0  0  0  0
   -0.7100    1.7391    0.7522 C   0  0  0  0  0  0  0  0  0  0  0  0
   -1.1721    1.6572    1.7416 H   0  0  0  0  0  0  0  0  0  0  0  0
    0.2857    2.1710    0.8941 H   0  0  0  0  0  0  0  0  0  0  0  0
   -1.5422    2.7018   -0.1078 C   0  0  0  0  0  0  0  0  0  0  0  0
   -2.5557    2.3078   -0.2270 H   0  0  0  0  0  0  0  0  0  0  0  0
   -1.6253    3.6641    0.4074 H   0  0  0  0  0  0  0  0  0  0  0  0
   -0.8025    2.9768   -1.7704 S   0  0  0  0  0  0  0  0  0  0  0  0
    0.7207    3.9342   -1.3977 C   0  0  0  0  0  0  0  0  0  0  0  0
    1.4263    3.3243   -0.8261 H   0  0  0  0  0  0  0  0  0  0  0  0
    1.2054    4.2421   -2.3290 H   0  0  0  0  0  0  0  0  0  0  0  0
    0.4759    4.8293   -0.8185 H   0  0  0  0  0  0  0  0  0  0  0  0
    0.5923   -0.4093    0.8575 C   0  0  0  0  0  0  0  0  0  0  0  0
    1.5457   -0.7894    0.1890 O   0  0  0  0  0  0  0  0  0  0  0  0
    0.6804   -0.4472    2.2380 N   0  0  0  0  0  0  0  0  0  0  0  0
   -0.2276   -0.4398    2.6984 H   0  0  0  0  0  0  0  0  0  0  0  0
    1.7598   -1.1538    2.9164 C   0  0  0  0  0  0  0  0  0  0  0  0
    2.7309   -0.7302    2.6392 H   0  0  0  0  0  0  0  0  0  0  0  0
    1.6445   -1.0671    4.0009 H   0  0  0  0  0  0  0  0  0  0  0  0
    1.7490   -2.2158    2.6491 H   0  0  0  0  0  0  0  0  0  0  0  0
  1  2  1  0  0  0  0
  2  3  1  0  0  0  0
  2  4  1  0  0  0  0
  2  5  1  0  0  0  0
  5  6  2  0  0  0  0
  5  7  1  0  0  0  0
  7  8  1  0  0  0  0
  7  9  1  0  0  0  0
  9 10  1  0  0  0  0
  9 11  1  0  0  0  0
  9 22  1  0  0  0  0
 11 12  1  0  0  0  0
 11 13  1  0  0  0  0
 11 14  1  0  0  0  0
 14 15  1  0  0  0  0
 14 16  1  0  0  0  0
 14 17  1  0  0  0  0
 17 18  1  0  0  0  0
 18 19  1  0  0  0  0
 18 20  1  0  0  0  0
 18 21  1  0  0  0  0
 22 23  2  0  0  0  0
 22 24  1  0  0  0  0
 24 25  1  0  0  0  0
 24 26  1  0  0  0  0
 26 27  1  0  0  0  0
 26 28  1  0  0  0  0
 26 29  1  0  0  0  0
M  END
$$$$

  -OEChem-01062216093D

 29 28  0     1  0  0  0  0  0999 V2000
   -3.8530   -3.0696    0.6619 H   0  0  0  0  0  0  0  0  0  0  0  0
   -3.6706   -2.1065    0.1763 C   0  0  0  0  0  0  0  0  0  0  0  0
   -4.4819   -1.4221    0.4361 H   0  0  0  0  0  0  0  0  0  0  0  0
   -3.6615   -2.2574   -0.9060 H   0  0  0  0  0  0  0  0  0  0  0  0
   -2.3416   -1.5334    0.6322 C   0  0  0  0  0  0  0  0  0  0  0  0
   -1.7340   -2.0949    1.5251 O   0  0  0  0  0  0  0  0  0  0  0  0
   -1.9121   -0.3378    0.0868 N   0  0  0  0  0  0  0  0  0  0  0  0
   -2.5255    0.0219   -0.6390 H   0  0  0  0  0  0  0  0  0  0  0  0
   -0.5658    0.2845    0.1272 C   0  0  1  0  0  0  0  0  0  0  0  0
   -0.2270    0.3822   -0.9092 H   0  0  0  0  0  0  0  0  0  0  0  0
   -0.7234    1.6880    0.7477 C   0  0  0  0  0  0  0  0  0  0  0  0
   -1.1983    1.5946    1.7299 H   0  0  0  0  0  0  0  0  0  0  0  0
    0.2677    2.1245    0.9085 H   0  0  0  0  0  0  0  0  0  0  0  0
   -1.5453    2.6558   -0.1172 C   0  0  0  0  0  0  0  0  0  0  0  0
   -2.5561    2.2613   -0.2559 H   0  0  0  0  0  0  0  0  0  0  0  0
   -1.6392    3.6131    0.4054 H   0  0  0  0  0  0  0  0  0  0  0  0
   -0.7799    2.9483   -1.7645 S   0  0  0  0  0  0  0  0  0  0  0  0
    0.7330    3.9075   -1.3569 C   0  0  0  0  0  0  0  0  0  0  0  0
    1.4320    3.2933   -0.7816 H   0  0  0  0  0  0  0  0  0  0  0  0
    1.2310    4.2283   -2.2767 H   0  0  0  0  0  0  0  0  0  0  0  0
    0.4752    4.7944   -0.7707 H   0  0  0  0  0  0  0  0  0  0  0  0
    0.6102   -0.4194    0.8576 C   0  0  0  0  0  0  0  0  0  0  0  0
    1.6834   -0.5111    0.2742 O   0  0  0  0  0  0  0  0  0  0  0  0
    0.5601   -0.7160    2.2071 N   0  0  0  0  0  0  0  0  0  0  0  0
   -0.3818   -0.9470    2.5266 H   0  0  0  0  0  0  0  0  0  0  0  0
    1.6689   -1.3653    2.8952 C   0  0  0  0  0  0  0  0  0  0  0  0
    2.5723   -0.7493    2.8356 H   0  0  0  0  0  0  0  0  0  0  0  0
    1.4221   -1.5117    3.9511 H   0  0  0  0  0  0  0  0  0  0  0  0
    1.8782   -2.3427    2.4478 H   0  0  0  0  0  0  0  0  0  0  0  0
  1  2  1  0  0  0  0
  2  3  1  0  0  0  0
  2  4  1  0  0  0  0
  2  5  1  0  0  0  0
  5  6  2  0  0  0  0
  5  7  1  0  0  0  0
  7  8  1  0  0  0  0
  7  9  1  0  0  0  0
  9 10  1  0  0  0  0
  9 11  1  0  0  0  0
  9 22  1  0  0  0  0
 11 12  1  0  0  0  0
 11 13  1  0  0  0  0
 11 14  1  0  0  0  0
 14 15  1  0  0  0  0
 14 16  1  0  0  0  0
 14 17  1  0  0  0  0
 17 18  1  0  0  0  0
 18 19  1  0  0  0  0
 18 20  1  0  0  0  0
 18 21  1  0  0  0  0
 22 23  2  0  0  0  0
 22 24  1  0  0  0  0
 24 25  1  0  0  0  0
 24 26  1  0  0  0  0
 26 27  1  0  0  0  0
 26 28  1  0  0  0  0
 26 29  1  0  0  0  0
M  END
$$$$

  -OEChem-01062216093D

 29 28  0     1  0  0  0  0  0999 V2000
   -4.0080   -2.9968    0.6044 H   0  0  0  0  0  0  0  0  0  0  0  0
   -3.7811   -2.0259    0.1544 C   0  0  0  0  0  0  0  0  0  0  0  0
   -4.5289   -1.3016    0.4860 H   0  0  0  0  0  0  0  0  0  0  0  0
   -3.8342   -2.1240   -0.9327 H   0  0  0  0  0  0  0  0  0  0  0  0
   -2.3952   -1.5667    0.5679 C   0  0  0  0  0  0  0  0  0  0  0  0
   -1.7766   -2.2339    1.3750 O   0  0  0  0  0  0  0  0  0  0  0  0
   -1.9150   -0.3785    0.0490 N   0  0  0  0  0  0  0  0  0  0  0  0
   -2.5443    0.0522   -0.6223 H   0  0  0  0  0  0  0  0  0  0  0  0
   -0.5674    0.2432    0.1190 C   0  0  1  0  0  0  0  0  0  0  0  0
   -0.2161    0.3444   -0.9127 H   0  0  0  0  0  0  0  0  0  0  0  0
   -0.7510    1.6437    0.7401 C   0  0  0  0  0  0  0  0  0  0  0  0
   -1.2465    1.5419    1.7113 H   0  0  0  0  0  0  0  0  0  0  0  0
    0.2316    2.0897    0.9263 H   0  0  0  0  0  0  0  0  0  0  0  0
   -1.5584    2.6105   -0.1395 C   0  0  0  0  0  0  0  0  0  0  0  0
   -2.5633    2.2115   -0.3049 H   0  0  0  0  0  0  0  0  0  0  0  0
   -1.6698    3.5648    0.3850 H   0  0  0  0  0  0  0  0  0  0  0  0
   -0.7547    2.9152   -1.7663 S   0  0  0  0  0  0  0  0  0  0  0  0
    0.7420    3.8814   -1.3175 C   0  0  0  0  0  0  0  0  0  0  0  0
    1.4318    3.2677   -0.7305 H   0  0  0  0  0  0  0  0  0  0  0  0
    1.2591    4.2118   -2.2232 H   0  0  0  0  0  0  0  0  0  0  0  0
    0.4654    4.7626   -0.7314 H   0  0  0  0  0  0  0  0  0  0  0  0
    0.6260   -0.4206    0.8634 C   0  0  0  0  0  0  0  0  0  0  0  0
    1.7475   -0.2626    0.3960 O   0  0  0  0  0  0  0  0  0  0  0  0
    0.5185   -0.9878    2.1185 N   0  0  0  0  0  0  0  0  0  0  0  0
   -0.4138   -1.3517    2.3263 H   0  0  0  0  0  0  0  0  0  0  0  0
    1.6477   -1.6140    2.7946 C   0  0  0  0  0  0  0  0  0  0  0  0
    2.4559   -0.8904    2.9446 H   0  0  0  0  0  0  0  0  0  0  0  0
    1.3377   -1.9905    3.7740 H   0  0  0  0  0  0  0  0  0  0  0  0
    2.0301   -2.4531    2.2042 H   0  0  0  0  0  0  0  0  0  0  0  0
  1  2  1  0  0  0  0
  2  3  1  0  0  0  0
  2  4  1  0  0  0  0
  2  5  1  0  0  0  0
  5  6  2  0  0  0  0
  5  7  1  0  0  0  0
  7  8  1  0  0  0  0
  7  9  1  0  0  0  0
  9 10  1  0  0  0  0
  9 11  1  0  0  0  0
  9 22  1  0  0  0  0
 11 12  1  0  0  0  0
 11 13  1  0  0  0  0
 11 14  1  0  0  0  0
 14 15  1  0  0  0  0
 14 16  1  0  0  0  0
 14 17  1  0  0  0  0
 17 18  1  0  0  0  0
 18 19  1  0  0  0  0
 18 20  1  0  0  0  0
 18 21  1  0  0  0  0
 22 23  2  0  0  0  0
 22 24  1  0  0  0  0
 24 25  1  0  0  0  0
 24 26  1  0  0  0  0
 26 27  1  0  0  0  0
 26 28  1  0  0  0  0
 26 29  1  0  0  0  0
M  END
$$$$

  -OEChem-01062216093D

 29 28  0     1  0  0  0  0  0999 V2000
   -4.1495   -2.9078    0.5780 H   0  0  0  0  0  0  0  0  0  0  0  0
   -3.8745   -1.9430    0.1417 C   0  0  0  0  0  0  0  0  0  0  0  0
   -4.5677   -1.1818    0.5077 H   0  0  0  0  0  0  0  0  0  0  0  0
   -3.9616   -2.0138   -0.9453 H   0  0  0  0  0  0  0  0  0  0  0  0
   -2.4524   -1.5784    0.5263 C   0  0  0  0  0  0  0  0  0  0  0  0
   -1.8454   -2.3238    1.2705 O   0  0  0  0  0  0  0  0  0  0  0  0
   -1.9252   -0.4013    0.0270 N   0  0  0  0  0  0  0  0  0  0  0  0
   -2.5590    0.0808   -0.6037 H   0  0  0  0  0  0  0  0  0  0  0  0
   -0.5710    0.2084    0.1122 C   0  0  1  0  0  0  0  0  0  0  0  0
   -0.2125    0.3105   -0.9169 H   0  0  0  0  0  0  0  0  0  0  0  0
   -0.7723    1.6089    0.7330 C   0  0  0  0  0  0  0  0  0  0  0  0
   -1.2823    1.5014    1.6960 H   0  0  0  0  0  0  0  0  0  0  0  0
    0.2028    2.0634    0.9370 H   0  0  0  0  0  0  0  0  0  0  0  0
   -1.5691    2.5758   -0.1566 C   0  0  0  0  0  0  0  0  0  0  0  0
   -2.5701    2.1756   -0.3402 H   0  0  0  0  0  0  0  0  0  0  0  0
   -1.6922    3.5280    0.3694 H   0  0  0  0  0  0  0  0  0  0  0  0
   -0.7388    2.8882   -1.7682 S   0  0  0  0  0  0  0  0  0  0  0  0
    0.7464    3.8583   -1.2908 C   0  0  0  0  0  0  0  0  0  0  0  0
    1.4294    3.2447   -0.6957 H   0  0  0  0  0  0  0  0  0  0  0  0
    1.2765    4.1949   -2.1866 H   0  0  0  0  0  0  0  0  0  0  0  0
    0.4567    4.7354   -0.7050 H   0  0  0  0  0  0  0  0  0  0  0  0
    0.6347   -0.4347    0.8603 C   0  0  0  0  0  0  0  0  0  0  0  0
    1.7590   -0.0927    0.5116 O   0  0  0  0  0  0  0  0  0  0  0  0
    0.5342   -1.2524    1.9678 N   0  0  0  0  0  0  0  0  0  0  0  0
   -0.3821   -1.6831    2.1059 H   0  0  0  0  0  0  0  0  0  0  0  0
    1.6848   -1.8746    2.6100 C   0  0  0  0  0  0  0  0  0  0  0  0
    2.3806   -1.1116    2.9737 H   0  0  0  0  0  0  0  0  0  0  0  0
    1.3582   -2.4769    3.4630 H   0  0  0  0  0  0  0  0  0  0  0  0
    2.2114   -2.5265    1.9055 H   0  0  0  0  0  0  0  0  0  0  0  0
  1  2  1  0  0  0  0
  2  3  1  0  0  0  0
  2  4  1  0  0  0  0
  2  5  1  0  0  0  0
  5  6  2  0  0  0  0
  5  7  1  0  0  0  0
  7  8  1  0  0  0  0
  7  9  1  0  0  0  0
  9 10  1  0  0  0  0
  9 11  1  0  0  0  0
  9 22  1  0  0  0  0
 11 12  1  0  0  0  0
 11 13  1  0  0  0  0
 11 14  1  0  0  0  0
 14 15  1  0  0  0  0
 14 16  1  0  0  0  0
 14 17  1  0  0  0  0
 17 18  1  0  0  0  0
 18 19  1  0  0  0  0
 18 20  1  0  0  0  0
 18 21  1  0  0  0  0
 22 23  2  0  0  0  0
 22 24  1  0  0  0  0
 24 25  1  0  0  0  0
 24 26  1  0  0  0  0
 26 27  1  0  0  0  0
 26 28  1  0  0  0  0
 26 29  1  0  0  0  0
M  END
$$$$

  -OEChem-01062216093D

 29 28  0     1  0  0  0  0  0999 V2000
   -3.5466   -3.2716    0.6683 H   0  0  0  0  0  0  0  0  0  0  0  0
   -3.3414   -2.3426    0.1284 C   0  0  0  0  0  0  0  0  0  0  0  0
   -4.2486   -1.7334    0.1200 H   0  0  0  0  0  0  0  0  0  0  0  0
   -3.0652   -2.5897   -0.8995 H   0  0  0  0  0  0  0  0  0  0  0  0
   -2.2139   -1.5835    0.8030 C   0  0  0  0  0  0  0  0  0  0  0  0
   -1.8776   -1.9255    1.9175 O   0  0  0  0  0  0  0  0  0  0  0  0
   -1.7469   -0.4351    0.1951 N   0  0  0  0  0  0  0  0  0  0  0  0
   -2.2407   -0.2340   -0.6691 H   0  0  0  0  0  0  0  0  0  0  0  0
   -0.4739    0.3209    0.3318 C   0  0  1  0  0  0  0  0  0  0  0  0
   -0.0124    0.3235   -0.6596 H   0  0  0  0  0  0  0  0  0  0  0  0
   -0.9284    1.7579    0.6951 C   0  0  0  0  0  0  0  0  0  0  0  0
   -1.5525    1.7145    1.5941 H   0  0  0  0  0  0  0  0  0  0  0  0
   -0.0643    2.3815    0.9414 H   0  0  0  0  0  0  0  0  0  0  0  0
   -1.7043    2.4658   -0.4276 C   0  0  0  0  0  0  0  0  0  0  0  0
   -2.6159    1.9092   -0.6625 H   0  0  0  0  0  0  0  0  0  0  0  0
   -2.0114    3.4571   -0.0791 H   0  0  0  0  0  0  0  0  0  0  0  0
   -0.6972    2.6565   -1.9562 S   0  0  0  0  0  0  0  0  0  0  0  0
    0.5761    3.8843   -1.4595 C   0  0  0  0  0  0  0  0  0  0  0  0
    1.2250    3.4697   -0.6821 H   0  0  0  0  0  0  0  0  0  0  0  0
    1.1956    4.1497   -2.3212 H   0  0  0  0  0  0  0  0  0  0  0  0
    0.1010    4.7923   -1.0768 H   0  0  0  0  0  0  0  0  0  0  0  0
    0.7249   -0.0499    1.2695 C   0  0  0  0  0  0  0  0  0  0  0  0
    1.7118    0.6725    1.2621 O   0  0  0  0  0  0  0  0  0  0  0  0
    0.7939   -0.9238    2.3248 N   0  0  0  0  0  0  0  0  0  0  0  0
    1.4748   -0.5796    2.9954 H   0  0  0  0  0  0  0  0  0  0  0  0
    0.9736   -2.3393    2.0231 C   0  0  0  0  0  0  0  0  0  0  0  0
    2.0400   -2.5836    1.9904 H   0  0  0  0  0  0  0  0  0  0  0  0
    0.4984   -2.9509    2.7967 H   0  0  0  0  0  0  0  0  0  0  0  0
    0.5338   -2.6035    1.0558 H   0  0  0  0  0  0  0  0  0  0  0  0
  1  2  1  0  0  0  0
  2  3  1  0  0  0  0
  2  4  1  0  0  0  0
  2  5  1  0  0  0  0
  5  6  2  0  0  0  0
  5  7  1  0  0  0  0
  7  8  1  0  0  0  0
  7  9  1  0  0  0  0
  9 10  1  0  0  0  0
  9 11  1  0  0  0  0
  9 22  1  0  0  0  0
 11 12  1  0  0  0  0
 11 13  1  0  0  0  0
 11 14  1  0  0  0  0
 14 15  1  0  0  0  0
 14 16  1  0  0  0  0
 14 17  1  0  0  0  0
 17 18  1  0  0  0  0
 18 19  1  0  0  0  0
 18 20  1  0  0  0  0
 18 21  1  0  0  0  0
 22 23  2  0  0  0  0
 22 24  1  0  0  0  0
 24 25  1  0  0  0  0
 24 26  1  0  0  0  0
 26 27  1  0  0  0  0
 26 28  1  0  0  0  0
 26 29  1  0  0  0  0
M  END
$$$$

  -OEChem-01062216093D

 29 28  0     1  0  0  0  0  0999 V2000
   -3.7631   -3.1443    0.8587 H   0  0  0  0  0  0  0  0  0  0  0  0
   -3.5986   -2.1213    0.5077 C   0  0  0  0  0  0  0  0  0  0  0  0
   -4.0752   -1.4302    1.2069 H   0  0  0  0  0  0  0  0  0  0  0  0
   -4.0595   -2.0108   -0.4769 H   0  0  0  0  0  0  0  0  0  0  0  0
   -2.1117   -1.8288    0.4206 C   0  0  0  0  0  0  0  0  0  0  0  0
   -1.3380   -2.7319    0.6575 O   0  0  0  0  0  0  0  0  0  0  0  0
   -1.7274   -0.5823   -0.0358 N   0  0  0  0  0  0  0  0  0  0  0  0
   -2.5155   -0.0158   -0.3312 H   0  0  0  0  0  0  0  0  0  0  0  0
   -0.4192    0.1216   -0.1027 C   0  0  1  0  0  0  0  0  0  0  0  0
   -0.2471    0.3262   -1.1640 H   0  0  0  0  0  0  0  0  0  0  0  0
   -0.6383    1.4535    0.6559 C   0  0  0  0  0  0  0  0  0  0  0  0
   -0.9906    1.2320    1.6687 H   0  0  0  0  0  0  0  0  0  0  0  0
    0.3140    1.9832    0.7601 H   0  0  0  0  0  0  0  0  0  0  0  0
   -1.6302    2.4094   -0.0265 C   0  0  0  0  0  0  0  0  0  0  0  0
   -2.6148    1.9398   -0.1021 H   0  0  0  0  0  0  0  0  0  0  0  0
   -1.7458    3.3064    0.5902 H   0  0  0  0  0  0  0  0  0  0  0  0
   -1.0708    2.9104   -1.7054 S   0  0  0  0  0  0  0  0  0  0  0  0
    0.3900    3.9700   -1.3621 C   0  0  0  0  0  0  0  0  0  0  0  0
    1.1936    3.3793   -0.9118 H   0  0  0  0  0  0  0  0  0  0  0  0
    0.7624    4.4049   -2.2943 H   0  0  0  0  0  0  0  0  0  0  0  0
    0.1213    4.7814   -0.6796 H   0  0  0  0  0  0  0  0  0  0  0  0
    0.9630   -0.4305    0.3770 C   0  0  0  0  0  0  0  0  0  0  0  0
    1.9662    0.1412   -0.0255 O   0  0  0  0  0  0  0  0  0  0  0  0
    1.3023   -1.6285    0.9529 N   0  0  0  0  0  0  0  0  0  0  0  0
    2.2843   -1.8284    0.7861 H   0  0  0  0  0  0  0  0  0  0  0  0
    0.8583   -1.9078    2.3133 C   0  0  0  0  0  0  0  0  0  0  0  0
    1.6197   -1.5858    3.0305 H   0  0  0  0  0  0  0  0  0  0  0  0
   -0.0741   -1.3836    2.5469 H   0  0  0  0  0  0  0  0  0  0  0  0
    0.6909   -2.9822    2.4397 H   0  0  0  0  0  0  0  0  0  0  0  0
  1  2  1  0  0  0  0
  2  3  1  0  0  0  0
  2  4  1  0  0  0  0
  2  5  1  0  0  0  0
  5  6  2  0  0  0  0
  5  7  1  0  0  0  0
  7  8  1  0  0  0  0
  7  9  1  0  0  0  0
  9 10  1  0  0  0  0
  9 11  1  0  0  0  0
  9 22  1  0  0  0  0
 11 12  1  0  0  0  0
 11 13  1  0  0  0  0
 11 14  1  0  0  0  0
 14 15  1  0  0  0  0
 14 16  1  0  0  0  0
 14 17  1  0  0  0  0
 17 18  1  0  0  0  0
 18 19  1  0  0  0  0
 18 20  1  0  0  0  0
 18 21  1  0  0  0  0
 22 23  2  0  0  0  0
 22 24  1  0  0  0  0
 24 25  1  0  0  0  0
 24 26  1  0  0  0  0
 26 27  1  0  0  0  0
 26 28  1  0  0  0  0
 26 29  1  0  0  0  0
M  END
$$$$

  -OEChem-01062216093D

 29 28  0     1  0  0  0  0  0999 V2000
   -3.8572   -3.0602    0.9575 H   0  0  0  0  0  0  0  0  0  0  0  0
   -3.6867   -2.1034    0.4556 C   0  0  0  0  0  0  0  0  0  0  0  0
   -4.4312   -1.3849    0.8071 H   0  0  0  0  0  0  0  0  0  0  0  0
   -3.8063   -2.2471   -0.6210 H   0  0  0  0  0  0  0  0  0  0  0  0
   -2.2891   -1.5953    0.7585 C   0  0  0  0  0  0  0  0  0  0  0  0
   -1.6170   -2.2013    1.5670 O   0  0  0  0  0  0  0  0  0  0  0  0
   -1.9137   -0.3667    0.2522 N   0  0  0  0  0  0  0  0  0  0  0  0
   -2.6572    0.0649   -0.2883 H   0  0  0  0  0  0  0  0  0  0  0  0
   -0.5707    0.1935   -0.0490 C   0  0  1  0  0  0  0  0  0  0  0  0
   -0.5655    0.4217   -1.1188 H   0  0  0  0  0  0  0  0  0  0  0  0
   -0.4983    1.5095    0.7626 C   0  0  0  0  0  0  0  0  0  0  0  0
   -0.6843    1.2848    1.8182 H   0  0  0  0  0  0  0  0  0  0  0  0
    0.5080    1.9347    0.7010 H   0  0  0  0  0  0  0  0  0  0  0  0
   -1.4904    2.5846    0.2914 C   0  0  0  0  0  0  0  0  0  0  0  0
   -2.5155    2.2164    0.3932 H   0  0  0  0  0  0  0  0  0  0  0  0
   -1.3968    3.4654    0.9347 H   0  0  0  0  0  0  0  0  0  0  0  0
   -1.1975    3.0862   -1.4552 S   0  0  0  0  0  0  0  0  0  0  0  0
    0.4063    3.9789   -1.3672 C   0  0  0  0  0  0  0  0  0  0  0  0
    1.2108    3.2942   -1.0819 H   0  0  0  0  0  0  0  0  0  0  0  0
    0.6488    4.4089   -2.3434 H   0  0  0  0  0  0  0  0  0  0  0  0
    0.3527    4.7874   -0.6324 H   0  0  0  0  0  0  0  0  0  0  0  0
    0.7845   -0.5562    0.1591 C   0  0  0  0  0  0  0  0  0  0  0  0
    1.7985   -0.0286   -0.2764 O   0  0  0  0  0  0  0  0  0  0  0  0
    0.9976   -1.8959    0.3691 N   0  0  0  0  0  0  0  0  0  0  0  0
    1.7394   -2.2043   -0.2526 H   0  0  0  0  0  0  0  0  0  0  0  0
    1.2638   -2.3004    1.7455 C   0  0  0  0  0  0  0  0  0  0  0  0
    0.7591   -1.6430    2.4618 H   0  0  0  0  0  0  0  0  0  0  0  0
    0.9108   -3.3232    1.9111 H   0  0  0  0  0  0  0  0  0  0  0  0
    2.3388   -2.2634    1.9476 H   0  0  0  0  0  0  0  0  0  0  0  0
  1  2  1  0  0  0  0
  2  3  1  0  0  0  0
  2  4  1  0  0  0  0
  2  5  1  0  0  0  0
  5  6  2  0  0  0  0
  5  7  1  0  0  0  0
  7  8  1  0  0  0  0
  7  9  1  0  0  0  0
  9 10  1  0  0  0  0
  9 11  1  0  0  0  0
  9 22  1  0  0  0  0
 11 12  1  0  0  0  0
 11 13  1  0  0  0  0
 11 14  1  0  0  0  0
 14 15  1  0  0  0  0
 14 16  1  0  0  0  0
 14 17  1  0  0  0  0
 17 18  1  0  0  0  0
 18 19  1  0  0  0  0
 18 20  1  0  0  0  0
 18 21  1  0  0  0  0
 22 23  2  0  0  0  0
 22 24  1  0  0  0  0
 24 25  1  0  0  0  0
 24 26  1  0  0  0  0
 26 27  1  0  0  0  0
 26 28  1  0  0  0  0
 26 29  1  0  0  0  0
M  END
$$$$

  -OEChem-01062216093D

 29 28  0     1  0  0  0  0  0999 V2000
   -4.1255   -2.8721    0.6548 H   0  0  0  0  0  0  0  0  0  0  0  0
   -3.8577   -1.9031    0.2235 C   0  0  0  0  0  0  0  0  0  0  0  0
   -4.5254   -1.1410    0.6327 H   0  0  0  0  0  0  0  0  0  0  0  0
   -3.9922   -1.9531   -0.8599 H   0  0  0  0  0  0  0  0  0  0  0  0
   -2.4163   -1.5614    0.5533 C   0  0  0  0  0  0  0  0  0  0  0  0
   -1.7847   -2.3288    1.2533 O   0  0  0  0  0  0  0  0  0  0  0  0
   -1.9021   -0.3715    0.0718 N   0  0  0  0  0  0  0  0  0  0  0  0
   -2.5669    0.1440   -0.4972 H   0  0  0  0  0  0  0  0  0  0  0  0
   -0.5334    0.2137    0.0878 C   0  0  1  0  0  0  0  0  0  0  0  0
   -0.2313    0.3345   -0.9564 H   0  0  0  0  0  0  0  0  0  0  0  0
   -0.7207    1.6144    0.7314 C   0  0  0  0  0  0  0  0  0  0  0  0
   -1.1856    1.4943    1.7156 H   0  0  0  0  0  0  0  0  0  0  0  0
    0.2476    2.0945    0.8962 H   0  0  0  0  0  0  0  0  0  0  0  0
   -1.5621    2.5812   -0.1175 C   0  0  0  0  0  0  0  0  0  0  0  0
   -2.5681    2.1779   -0.2622 H   0  0  0  0  0  0  0  0  0  0  0  0
   -1.6682    3.5288    0.4203 H   0  0  0  0  0  0  0  0  0  0  0  0
   -0.7986    2.9105   -1.7591 S   0  0  0  0  0  0  0  0  0  0  0  0
    0.6964    3.8893   -1.3309 C   0  0  0  0  0  0  0  0  0  0  0  0
    1.4006    3.2815   -0.7546 H   0  0  0  0  0  0  0  0  0  0  0  0
    1.1968    4.2255   -2.2438 H   0  0  0  0  0  0  0  0  0  0  0  0
    0.4205    4.7672   -0.7393 H   0  0  0  0  0  0  0  0  0  0  0  0
    0.7007   -0.5080    0.7266 C   0  0  0  0  0  0  0  0  0  0  0  0
    1.6835    0.1512    1.0492 O   0  0  0  0  0  0  0  0  0  0  0  0
    0.8389   -1.8811    0.7877 N   0  0  0  0  0  0  0  0  0  0  0  0
   -0.0404   -2.3990    0.7518 H   0  0  0  0  0  0  0  0  0  0  0  0
    1.9863   -2.5432    1.3967 C   0  0  0  0  0  0  0  0  0  0  0  0
    2.0721   -2.2675    2.4529 H   0  0  0  0  0  0  0  0  0  0  0  0
    1.8723   -3.6292    1.3291 H   0  0  0  0  0  0  0  0  0  0  0  0
    2.9108   -2.2618    0.8815 H   0  0  0  0  0  0  0  0  0  0  0  0
  1  2  1  0  0  0  0
  2  3  1  0  0  0  0
  2  4  1  0  0  0  0
  2  5  1  0  0  0  0
  5  6  2  0  0  0  0
  5  7  1  0  0  0  0
  7  8  1  0  0  0  0
  7  9  1  0  0  0  0
  9 10  1  0  0  0  0
  9 11  1  0  0  0  0
  9 22  1  0  0  0  0
 11 12  1  0  0  0  0
 11 13  1  0  0  0  0
 11 14  1  0  0  0  0
 14 15  1  0  0  0  0
 14 16  1  0  0  0  0
 14 17  1  0  0  0  0
 17 18  1  0  0  0  0
 18 19  1  0  0  0  0
 18 20  1  0  0  0  0
 18 21  1  0  0  0  0
 22 23  2  0  0  0  0
 22 24  1  0  0  0  0
 24 25  1  0  0  0  0
 24 26  1  0  0  0  0
 26 27  1  0  0  0  0
 26 28  1  0  0  0  0
 26 29  1  0  0  0  0
M  END
$$$$

  -OEChem-01062216093D

 29 28  0     1  0  0  0  0  0999 V2000
   -4.0152   -2.9099    0.7529 H   0  0  0  0  0  0  0  0  0  0  0  0
   -3.7858   -1.9382    0.3057 C   0  0  0  0  0  0  0  0  0  0  0  0
   -4.4281   -1.1821    0.7636 H   0  0  0  0  0  0  0  0  0  0  0  0
   -3.9967   -1.9871   -0.7653 H   0  0  0  0  0  0  0  0  0  0  0  0
   -2.3266   -1.5882    0.5326 C   0  0  0  0  0  0  0  0  0  0  0  0
   -1.6215   -2.3895    1.1149 O   0  0  0  0  0  0  0  0  0  0  0  0
   -1.8591   -0.3778    0.0541 N   0  0  0  0  0  0  0  0  0  0  0  0
   -2.5624    0.1592   -0.4440 H   0  0  0  0  0  0  0  0  0  0  0  0
   -0.5056    0.2386    0.0791 C   0  0  1  0  0  0  0  0  0  0  0  0
   -0.1939    0.3641   -0.9614 H   0  0  0  0  0  0  0  0  0  0  0  0
   -0.7080    1.6387    0.7176 C   0  0  0  0  0  0  0  0  0  0  0  0
   -1.1700    1.5175    1.7028 H   0  0  0  0  0  0  0  0  0  0  0  0
    0.2578    2.1266    0.8764 H   0  0  0  0  0  0  0  0  0  0  0  0
   -1.5576    2.5949   -0.1344 C   0  0  0  0  0  0  0  0  0  0  0  0
   -2.5593    2.1810   -0.2788 H   0  0  0  0  0  0  0  0  0  0  0  0
   -1.6730    3.5425    0.4018 H   0  0  0  0  0  0  0  0  0  0  0  0
   -0.7975    2.9295   -1.7768 S   0  0  0  0  0  0  0  0  0  0  0  0
    0.6875    3.9251   -1.3514 C   0  0  0  0  0  0  0  0  0  0  0  0
    1.4012    3.3242   -0.7800 H   0  0  0  0  0  0  0  0  0  0  0  0
    1.1799    4.2709   -2.2651 H   0  0  0  0  0  0  0  0  0  0  0  0
    0.4035    4.7975   -0.7557 H   0  0  0  0  0  0  0  0  0  0  0  0
    0.7131   -0.4960    0.7298 C   0  0  0  0  0  0  0  0  0  0  0  0
    1.5809    0.1394    1.3198 O   0  0  0  0  0  0  0  0  0  0  0  0
    0.9659   -1.8347    0.4968 N   0  0  0  0  0  0  0  0  0  0  0  0
    0.1215   -2.3811    0.3202 H   0  0  0  0  0  0  0  0  0  0  0  0
    2.0908   -2.5374    1.1030 C   0  0  0  0  0  0  0  0  0  0  0  0
    2.0132   -2.5140    2.1950 H   0  0  0  0  0  0  0  0  0  0  0  0
    2.1010   -3.5818    0.7771 H   0  0  0  0  0  0  0  0  0  0  0  0
    3.0386   -2.0761    0.8063 H   0  0  0  0  0  0  0  0  0  0  0  0
  1  2  1  0  0  0  0
  2  3  1  0  0  0  0
  2  4  1  0  0  0  0
  2  5  1  0  0  0  0
  5  6  2  0  0  0  0
  5  7  1  0  0  0  0
  7  8  1  0  0  0  0
  7  9  1  0  0  0  0
  9 10  1  0  0  0  0
  9 11  1  0  0  0  0
  9 22  1  0  0  0  0
 11 12  1  0  0  0  0
 11 13  1  0  0  0  0
 11 14  1  0  0  0  0
 14 15  1  0  0  0  0
 14 16  1  0  0  0  0
 14 17  1  0  0  0  0
 17 18  1  0  0  0  0
 18 19  1  0  0  0  0
 18 20  1  0  0  0  0
 18 21  1  0  0  0  0
 22 23  2  0  0  0  0
 22 24  1  0  0  0  0
 24 25  1  0  0  0  0
 24 26  1  0  0  0  0
 26 27  1  0  0  0  0
 26 28  1  0  0  0  0
 26 29  1  0  0  0  0
M  END
$$$$

  -OEChem-01062216093D

 29 28  0     1  0  0  0  0  0999 V2000
   -3.8905   -2.9483    0.8516 H   0  0  0  0  0  0  0  0  0  0  0  0
   -3.7061   -1.9758    0.3863 C   0  0  0  0  0  0  0  0  0  0  0  0
   -4.3109   -1.2234    0.8981 H   0  0  0  0  0  0  0  0  0  0  0  0
   -4.0077   -2.0252   -0.6628 H   0  0  0  0  0  0  0  0  0  0  0  0
   -2.2350   -1.6180    0.4882 C   0  0  0  0  0  0  0  0  0  0  0  0
   -1.4629   -2.4441    0.9368 O   0  0  0  0  0  0  0  0  0  0  0  0
   -1.8189   -0.3884    0.0106 N   0  0  0  0  0  0  0  0  0  0  0  0
   -2.5619    0.1721   -0.3946 H   0  0  0  0  0  0  0  0  0  0  0  0
   -0.4843    0.2612    0.0594 C   0  0  1  0  0  0  0  0  0  0  0  0
   -0.1508    0.3958   -0.9732 H   0  0  0  0  0  0  0  0  0  0  0  0
   -0.7056    1.6563    0.6978 C   0  0  0  0  0  0  0  0  0  0  0  0
   -1.1746    1.5293    1.6793 H   0  0  0  0  0  0  0  0  0  0  0  0
    0.2589    2.1451    0.8646 H   0  0  0  0  0  0  0  0  0  0  0  0
   -1.5566    2.6060   -0.1599 C   0  0  0  0  0  0  0  0  0  0  0  0
   -2.5522    2.1813   -0.3150 H   0  0  0  0  0  0  0  0  0  0  0  0
   -1.6871    3.5512    0.3770 H   0  0  0  0  0  0  0  0  0  0  0  0
   -0.7849    2.9512   -1.7946 S   0  0  0  0  0  0  0  0  0  0  0  0
    0.6867    3.9602   -1.3546 C   0  0  0  0  0  0  0  0  0  0  0  0
    1.3995    3.3664   -0.7750 H   0  0  0  0  0  0  0  0  0  0  0  0
    1.1860    4.3096   -2.2632 H   0  0  0  0  0  0  0  0  0  0  0  0
    0.3887    4.8305   -0.7627 H   0  0  0  0  0  0  0  0  0  0  0  0
    0.7092   -0.4810    0.7389 C   0  0  0  0  0  0  0  0  0  0  0  0
    1.4059    0.0761    1.5814 O   0  0  0  0  0  0  0  0  0  0  0  0
    1.1282   -1.7089    0.2607 N   0  0  0  0  0  0  0  0  0  0  0  0
    0.3672   -2.2636   -0.1297 H   0  0  0  0  0  0  0  0  0  0  0  0
    2.2246   -2.4452    0.8783 C   0  0  0  0  0  0  0  0  0  0  0  0
    1.9890   -2.6766    1.9223 H   0  0  0  0  0  0  0  0  0  0  0  0
    2.3956   -3.3842    0.3435 H   0  0  0  0  0  0  0  0  0  0  0  0
    3.1489   -1.8588    0.8466 H   0  0  0  0  0  0  0  0  0  0  0  0
  1  2  1  0  0  0  0
  2  3  1  0  0  0  0
  2  4  1  0  0  0  0
  2  5  1  0  0  0  0
  5  6  2  0  0  0  0
  5  7  1  0  0  0  0
  7  8  1  0  0  0  0
  7  9  1  0  0  0  0
  9 10  1  0  0  0  0
  9 11  1  0  0  0  0
  9 22  1  0  0  0  0
 11 12  1  0  0  0  0
 11 13  1  0  0  0  0
 11 14  1  0  0  0  0
 14 15  1  0  0  0  0
 14 16  1  0  0  0  0
 14 17  1  0  0  0  0
 17 18  1  0  0  0  0
 18 19  1  0  0  0  0
 18 20  1  0  0  0  0
 18 21  1  0  0  0  0
 22 23  2  0  0  0  0
 22 24  1  0  0  0  0
 24 25  1  0  0  0  0
 24 26  1  0  0  0  0
 26 27  1  0  0  0  0
 26 28  1  0  0  0  0
 26 29  1  0  0  0  0
M  END
$$$$

  -OEChem-01062216093D

 29 28  0     1  0  0  0  0  0999 V2000
   -3.7797   -2.9817    0.9256 H   0  0  0  0  0  0  0  0  0  0  0  0
   -3.6360   -2.0075    0.4495 C   0  0  0  0  0  0  0  0  0  0  0  0
   -4.2129   -1.2608    1.0005 H   0  0  0  0  0  0  0  0  0  0  0  0
   -4.0046   -2.0599   -0.5779 H   0  0  0  0  0  0  0  0  0  0  0  0
   -2.1651   -1.6350    0.4543 C   0  0  0  0  0  0  0  0  0  0  0  0
   -1.3498   -2.4655    0.8107 O   0  0  0  0  0  0  0  0  0  0  0  0
   -1.7929   -0.3948   -0.0329 N   0  0  0  0  0  0  0  0  0  0  0  0
   -2.5643    0.1766   -0.3616 H   0  0  0  0  0  0  0  0  0  0  0  0
   -0.4728    0.2771    0.0341 C   0  0  1  0  0  0  0  0  0  0  0  0
   -0.1227    0.4202   -0.9919 H   0  0  0  0  0  0  0  0  0  0  0  0
   -0.7045    1.6655    0.6780 C   0  0  0  0  0  0  0  0  0  0  0  0
   -1.1813    1.5312    1.6549 H   0  0  0  0  0  0  0  0  0  0  0  0
    0.2607    2.1498    0.8567 H   0  0  0  0  0  0  0  0  0  0  0  0
   -1.5560    2.6152   -0.1785 C   0  0  0  0  0  0  0  0  0  0  0  0
   -2.5480    2.1851   -0.3414 H   0  0  0  0  0  0  0  0  0  0  0  0
   -1.6953    3.5564    0.3631 H   0  0  0  0  0  0  0  0  0  0  0  0
   -0.7783    2.9742   -1.8071 S   0  0  0  0  0  0  0  0  0  0  0  0
    0.6850    3.9889   -1.3530 C   0  0  0  0  0  0  0  0  0  0  0  0
    1.3994    3.3956   -0.7750 H   0  0  0  0  0  0  0  0  0  0  0  0
    1.1853    4.3487   -2.2570 H   0  0  0  0  0  0  0  0  0  0  0  0
    0.3785    4.8527   -0.7559 H   0  0  0  0  0  0  0  0  0  0  0  0
    0.6980   -0.4672    0.7419 C   0  0  0  0  0  0  0  0  0  0  0  0
    1.1966   -0.0323    1.7755 O   0  0  0  0  0  0  0  0  0  0  0  0
    1.3199   -1.5230    0.1002 N   0  0  0  0  0  0  0  0  0  0  0  0
    0.7211   -2.0178   -0.5558 H   0  0  0  0  0  0  0  0  0  0  0  0
    2.3861   -2.2886    0.7341 C   0  0  0  0  0  0  0  0  0  0  0  0
    2.0202   -2.7670    1.6488 H   0  0  0  0  0  0  0  0  0  0  0  0
    2.7471   -3.0666    0.0549 H   0  0  0  0  0  0  0  0  0  0  0  0
    3.2288   -1.6373    0.9887 H   0  0  0  0  0  0  0  0  0  0  0  0
  1  2  1  0  0  0  0
  2  3  1  0  0  0  0
  2  4  1  0  0  0  0
  2  5  1  0  0  0  0
  5  6  2  0  0  0  0
  5  7  1  0  0  0  0
  7  8  1  0  0  0  0
  7  9  1  0  0  0  0
  9 10  1  0  0  0  0
  9 11  1  0  0  0  0
  9 22  1  0  0  0  0
 11 12  1  0  0  0  0
 11 13  1  0  0  0  0
 11 14  1  0  0  0  0
 14 15  1  0  0  0  0
 14 16  1  0  0  0  0
 14 17  1  0  0  0  0
 17 18  1  0  0  0  0
 18 19  1  0  0  0  0
 18 20  1  0  0  0  0
 18 21  1  0  0  0  0
 22 23  2  0  0  0  0
 22 24  1  0  0  0  0
 24 25  1  0  0  0  0
 24 26  1  0  0  0  0
 26 27  1  0  0  0  0
 26 28  1  0  0  0  0
 26 29  1  0  0  0  0
M  END
$$$$

  -OEChem-01062216093D

 29 28  0     1  0  0  0  0  0999 V2000
   -3.7032   -3.0162    0.9492 H   0  0  0  0  0  0  0  0  0  0  0  0
   -3.5929   -2.0237    0.5028 C   0  0  0  0  0  0  0  0  0  0  0  0
   -4.1259   -1.3001    1.1242 H   0  0  0  0  0  0  0  0  0  0  0  0
   -4.0367   -2.0359   -0.4955 H   0  0  0  0  0  0  0  0  0  0  0  0
   -2.1247   -1.6503    0.4146 C   0  0  0  0  0  0  0  0  0  0  0  0
   -1.2858   -2.4889    0.6900 O   0  0  0  0  0  0  0  0  0  0  0  0
   -1.7818   -0.4043   -0.0803 N   0  0  0  0  0  0  0  0  0  0  0  0
   -2.5722    0.1784   -0.3347 H   0  0  0  0  0  0  0  0  0  0  0  0
   -0.4711    0.2812    0.0058 C   0  0  1  0  0  0  0  0  0  0  0  0
   -0.1074    0.4325   -1.0144 H   0  0  0  0  0  0  0  0  0  0  0  0
   -0.7097    1.6631    0.6578 C   0  0  0  0  0  0  0  0  0  0  0  0
   -1.1965    1.5204    1.6287 H   0  0  0  0  0  0  0  0  0  0  0  0
    0.2557    2.1411    0.8516 H   0  0  0  0  0  0  0  0  0  0  0  0
   -1.5573    2.6173   -0.1971 C   0  0  0  0  0  0  0  0  0  0  0  0
   -2.5467    2.1852   -0.3710 H   0  0  0  0  0  0  0  0  0  0  0  0
   -1.7034    3.5540    0.3504 H   0  0  0  0  0  0  0  0  0  0  0  0
   -0.7676    2.9890   -1.8173 S   0  0  0  0  0  0  0  0  0  0  0  0
    0.6902    4.0031   -1.3447 C   0  0  0  0  0  0  0  0  0  0  0  0
    1.3947    3.4113   -0.7533 H   0  0  0  0  0  0  0  0  0  0  0  0
    1.2051    4.3587   -2.2421 H   0  0  0  0  0  0  0  0  0  0  0  0
    0.3755    4.8699   -0.7560 H   0  0  0  0  0  0  0  0  0  0  0  0
    0.6833   -0.4591    0.7382 C   0  0  0  0  0  0  0  0  0  0  0  0
    0.9769   -0.1794    1.8965 O   0  0  0  0  0  0  0  0  0  0  0  0
    1.5215   -1.2928    0.0200 N   0  0  0  0  0  0  0  0  0  0  0  0
    1.1271   -1.6619   -0.8402 H   0  0  0  0  0  0  0  0  0  0  0  0
    2.5775   -2.0633    0.6650 C   0  0  0  0  0  0  0  0  0  0  0  0
    2.1512   -2.7464    1.4075 H   0  0  0  0  0  0  0  0  0  0  0  0
    3.1233   -2.6526   -0.0779 H   0  0  0  0  0  0  0  0  0  0  0  0
    3.2887   -1.3978    1.1655 H   0  0  0  0  0  0  0  0  0  0  0  0
  1  2  1  0  0  0  0
  2  3  1  0  0  0  0
  2  4  1  0  0  0  0
  2  5  1  0  0  0  0
  5  6  2  0  0  0  0
  5  7  1  0  0  0  0
  7  8  1  0  0  0  0
  7  9  1  0  0  0  0
  9 10  1  0  0  0  0
  9 11  1  0  0  0  0
  9 22  1  0  0  0  0
 11 12  1  0  0  0  0
 11 13  1  0  0  0  0
 11 14  1  0  0  0  0
 14 15  1  0  0  0  0
 14 16  1  0  0  0  0
 14 17  1  0  0  0  0
 17 18  1  0  0  0  0
 18 19  1  0  0  0  0
 18 20  1  0  0  0  0
 18 21  1  0  0  0  0
 22 23  2  0  0  0  0
 22 24  1  0  0  0  0
 24 25  1  0  0  0  0
 24 26  1  0  0  0  0
 26 27  1  0  0  0  0
 26 28  1  0  0  0  0
 26 29  1  0  0  0  0
M  END
$$$$

  -OEChem-01062216093D

 29 28  0     1  0  0  0  0  0999 V2000
   -3.6685   -3.0333    0.9562 H   0  0  0  0  0  0  0  0  0  0  0  0
   -3.5742   -2.0244    0.5441 C   0  0  0  0  0  0  0  0  0  0  0  0
   -4.0545   -1.3211    1.2285 H   0  0  0  0  0  0  0  0  0  0  0  0
   -4.0828   -1.9900   -0.4222 H   0  0  0  0  0  0  0  0  0  0  0  0
   -2.1100   -1.6644    0.3743 C   0  0  0  0  0  0  0  0  0  0  0  0
   -1.2644   -2.5205    0.5641 O   0  0  0  0  0  0  0  0  0  0  0  0
   -1.7823   -0.4154   -0.1231 N   0  0  0  0  0  0  0  0  0  0  0  0
   -2.5814    0.1790   -0.3149 H   0  0  0  0  0  0  0  0  0  0  0  0
   -0.4760    0.2734   -0.0167 C   0  0  1  0  0  0  0  0  0  0  0  0
   -0.1018    0.4297   -1.0321 H   0  0  0  0  0  0  0  0  0  0  0  0
   -0.7190    1.6503    0.6423 C   0  0  0  0  0  0  0  0  0  0  0  0
   -1.2185    1.5017    1.6059 H   0  0  0  0  0  0  0  0  0  0  0  0
    0.2458    2.1233    0.8519 H   0  0  0  0  0  0  0  0  0  0  0  0
   -1.5571    2.6109   -0.2151 C   0  0  0  0  0  0  0  0  0  0  0  0
   -2.5441    2.1793   -0.4034 H   0  0  0  0  0  0  0  0  0  0  0  0
   -1.7103    3.5440    0.3365 H   0  0  0  0  0  0  0  0  0  0  0  0
   -0.7500    2.9921   -1.8245 S   0  0  0  0  0  0  0  0  0  0  0  0
    0.7039    4.0020   -1.3310 C   0  0  0  0  0  0  0  0  0  0  0  0
    1.4035    3.4053   -0.7388 H   0  0  0  0  0  0  0  0  0  0  0  0
    1.2260    4.3654   -2.2212 H   0  0  0  0  0  0  0  0  0  0  0  0
    0.3843    4.8638   -0.7376 H   0  0  0  0  0  0  0  0  0  0  0  0
    0.6656   -0.4649    0.7351 C   0  0  0  0  0  0  0  0  0  0  0  0
    0.7810   -0.3526    1.9515 O   0  0  0  0  0  0  0  0  0  0  0  0
    1.6981   -1.0430    0.0181 N   0  0  0  0  0  0  0  0  0  0  0  0
    1.4949   -1.2585   -0.9530 H   0  0  0  0  0  0  0  0  0  0  0  0
    2.7791   -1.7736    0.6683 C   0  0  0  0  0  0  0  0  0  0  0  0
    2.3805   -2.6250    1.2304 H   0  0  0  0  0  0  0  0  0  0  0  0
    3.4845   -2.1494   -0.0788 H   0  0  0  0  0  0  0  0  0  0  0  0
    3.3246   -1.1204    1.3576 H   0  0  0  0  0  0  0  0  0  0  0  0
  1  2  1  0  0  0  0
  2  3  1  0  0  0  0
  2  4  1  0  0  0  0
  2  5  1  0  0  0  0
  5  6  2  0  0  0  0
  5  7  1  0  0  0  0
  7  8  1  0  0  0  0
  7  9  1  0  0  0  0
  9 10  1  0  0  0  0
  9 11  1  0  0  0  0
  9 22  1  0  0  0  0
 11 12  1  0  0  0  0
 11 13  1  0  0  0  0
 11 14  1  0  0  0  0
 14 15  1  0  0  0  0
 14 16  1  0  0  0  0
 14 17  1  0  0  0  0
 17 18  1  0  0  0  0
 18 19  1  0  0  0  0
 18 20  1  0  0  0  0
 18 21  1  0  0  0  0
 22 23  2  0  0  0  0
 22 24  1  0  0  0  0
 24 25  1  0  0  0  0
 24 26  1  0  0  0  0
 26 27  1  0  0  0  0
 26 28  1  0  0  0  0
 26 29  1  0  0  0  0
M  END
$$$$

  -OEChem-01062216093D

 29 28  0     1  0  0  0  0  0999 V2000
   -3.6475   -3.0368    0.9796 H   0  0  0  0  0  0  0  0  0  0  0  0
   -3.5636   -2.0226    0.5790 C   0  0  0  0  0  0  0  0  0  0  0  0
   -3.9921   -1.3244    1.3021 H   0  0  0  0  0  0  0  0  0  0  0  0
   -4.1273   -1.9645   -0.3550 H   0  0  0  0  0  0  0  0  0  0  0  0
   -2.1072   -1.6798    0.3293 C   0  0  0  0  0  0  0  0  0  0  0  0
   -1.2653   -2.5552    0.4279 O   0  0  0  0  0  0  0  0  0  0  0  0
   -1.7886   -0.4283   -0.1665 N   0  0  0  0  0  0  0  0  0  0  0  0
   -2.5910    0.1775   -0.2974 H   0  0  0  0  0  0  0  0  0  0  0  0
   -0.4835    0.2586   -0.0402 C   0  0  1  0  0  0  0  0  0  0  0  0
   -0.1011    0.4184   -1.0517 H   0  0  0  0  0  0  0  0  0  0  0  0
   -0.7256    1.6290    0.6292 C   0  0  0  0  0  0  0  0  0  0  0  0
   -1.2347    1.4737    1.5865 H   0  0  0  0  0  0  0  0  0  0  0  0
    0.2391    2.0948    0.8534 H   0  0  0  0  0  0  0  0  0  0  0  0
   -1.5522    2.6000   -0.2272 C   0  0  0  0  0  0  0  0  0  0  0  0
   -2.5393    2.1740   -0.4282 H   0  0  0  0  0  0  0  0  0  0  0  0
   -1.7063    3.5292    0.3308 H   0  0  0  0  0  0  0  0  0  0  0  0
   -0.7282    2.9905   -1.8260 S   0  0  0  0  0  0  0  0  0  0  0  0
    0.7254    3.9899   -1.3116 C   0  0  0  0  0  0  0  0  0  0  0  0
    1.4176    3.3854   -0.7187 H   0  0  0  0  0  0  0  0  0  0  0  0
    1.2562    4.3584   -2.1944 H   0  0  0  0  0  0  0  0  0  0  0  0
    0.4040    4.8477   -0.7135 H   0  0  0  0  0  0  0  0  0  0  0  0
    0.6497   -0.4770    0.7243 C   0  0  0  0  0  0  0  0  0  0  0  0
    0.6221   -0.5369    1.9494 O   0  0  0  0  0  0  0  0  0  0  0  0
    1.8343   -0.7783    0.0754 N   0  0  0  0  0  0  0  0  0  0  0  0
    1.7963   -0.8148   -0.9386 H   0  0  0  0  0  0  0  0  0  0  0  0
    2.9440   -1.4419    0.7489 C   0  0  0  0  0  0  0  0  0  0  0  0
    2.6256   -2.4129    1.1429 H   0  0  0  0  0  0  0  0  0  0  0  0
    3.7691   -1.6043    0.0490 H   0  0  0  0  0  0  0  0  0  0  0  0
    3.3119   -0.8284    1.5781 H   0  0  0  0  0  0  0  0  0  0  0  0
  1  2  1  0  0  0  0
  2  3  1  0  0  0  0
  2  4  1  0  0  0  0
  2  5  1  0  0  0  0
  5  6  2  0  0  0  0
  5  7  1  0  0  0  0
  7  8  1  0  0  0  0
  7  9  1  0  0  0  0
  9 10  1  0  0  0  0
  9 11  1  0  0  0  0
  9 22  1  0  0  0  0
 11 12  1  0  0  0  0
 11 13  1  0  0  0  0
 11 14  1  0  0  0  0
 14 15  1  0  0  0  0
 14 16  1  0  0  0  0
 14 17  1  0  0  0  0
 17 18  1  0  0  0  0
 18 19  1  0  0  0  0
 18 20  1  0  0  0  0
 18 21  1  0  0  0  0
 22 23  2  0  0  0  0
 22 24  1  0  0  0  0
 24 25  1  0  0  0  0
 24 26  1  0  0  0  0
 26 27  1  0  0  0  0
 26 28  1  0  0  0  0
 26 29  1  0  0  0  0
M  END
$$$$

  -OEChem-01062216093D

 29 28  0     1  0  0  0  0  0999 V2000
   -3.6309   -3.0279    1.0177 H   0  0  0  0  0  0  0  0  0  0  0  0
   -3.5551   -2.0153    0.6114 C   0  0  0  0  0  0  0  0  0  0  0  0
   -3.9357   -1.3113    1.3551 H   0  0  0  0  0  0  0  0  0  0  0  0
   -4.1665   -1.9506   -0.2918 H   0  0  0  0  0  0  0  0  0  0  0  0
   -2.1093   -1.6924    0.2849 C   0  0  0  0  0  0  0  0  0  0  0  0
   -1.2833   -2.5888    0.2915 O   0  0  0  0  0  0  0  0  0  0  0  0
   -1.7923   -0.4398   -0.2086 N   0  0  0  0  0  0  0  0  0  0  0  0
   -2.5927    0.1771   -0.2881 H   0  0  0  0  0  0  0  0  0  0  0  0
   -0.4847    0.2395   -0.0667 C   0  0  1  0  0  0  0  0  0  0  0  0
   -0.0944    0.4040   -1.0745 H   0  0  0  0  0  0  0  0  0  0  0  0
   -0.7260    1.6024    0.6174 C   0  0  0  0  0  0  0  0  0  0  0  0
   -1.2405    1.4370    1.5702 H   0  0  0  0  0  0  0  0  0  0  0  0
    0.2388    2.0624    0.8523 H   0  0  0  0  0  0  0  0  0  0  0  0
   -1.5436    2.5867   -0.2322 C   0  0  0  0  0  0  0  0  0  0  0  0
   -2.5307    2.1665   -0.4451 H   0  0  0  0  0  0  0  0  0  0  0  0
   -1.6984    3.5094    0.3364 H   0  0  0  0  0  0  0  0  0  0  0  0
   -0.7084    2.9939   -1.8208 S   0  0  0  0  0  0  0  0  0  0  0  0
    0.7466    3.9826   -1.2898 C   0  0  0  0  0  0  0  0  0  0  0  0
    1.4303    3.3720   -0.6932 H   0  0  0  0  0  0  0  0  0  0  0  0
    1.2868    4.3515   -2.1669 H   0  0  0  0  0  0  0  0  0  0  0  0
    0.4250    4.8404   -0.6917 H   0  0  0  0  0  0  0  0  0  0  0  0
    0.6412   -0.4977    0.7066 C   0  0  0  0  0  0  0  0  0  0  0  0
    0.5061   -0.7243    1.9047 O   0  0  0  0  0  0  0  0  0  0  0  0
    1.9230   -0.5243    0.1843 N   0  0  0  0  0  0  0  0  0  0  0  0
    2.0108   -0.3770   -0.8163 H   0  0  0  0  0  0  0  0  0  0  0  0
    3.0511   -1.1071    0.9016 C   0  0  0  0  0  0  0  0  0  0  0  0
    2.8489   -2.1557    1.1453 H   0  0  0  0  0  0  0  0  0  0  0  0
    3.9552   -1.0618    0.2869 H   0  0  0  0  0  0  0  0  0  0  0  0
    3.2389   -0.5595    1.8313 H   0  0  0  0  0  0  0  0  0  0  0  0
  1  2  1  0  0  0  0
  2  3  1  0  0  0  0
  2  4  1  0  0  0  0
  2  5  1  0  0  0  0
  5  6  2  0  0  0  0
  5  7  1  0  0  0  0
  7  8  1  0  0  0  0
  7  9  1  0  0  0  0
  9 10  1  0  0  0  0
  9 11  1  0  0  0  0
  9 22  1  0  0  0  0
 11 12  1  0  0  0  0
 11 13  1  0  0  0  0
 11 14  1  0  0  0  0
 14 15  1  0  0  0  0
 14 16  1  0  0  0  0
 14 17  1  0  0  0  0
 17 18  1  0  0  0  0
 18 19  1  0  0  0  0
 18 20  1  0  0  0  0
 18 21  1  0  0  0  0
 22 23  2  0  0  0  0
 22 24  1  0  0  0  0
 24 25  1  0  0  0  0
 24 26  1  0  0  0  0
 26 27  1  0  0  0  0
 26 28  1  0  0  0  0
 26 29  1  0  0  0  0
M  END
$$$$

  -OEChem-01062216093D

 29 28  0     1  0  0  0  0  0999 V2000
   -3.6256   -3.0269    1.0200 H   0  0  0  0  0  0  0  0  0  0  0  0
   -3.5470   -2.0021    0.6463 C   0  0  0  0  0  0  0  0  0  0  0  0
   -3.8618   -1.3169    1.4368 H   0  0  0  0  0  0  0  0  0  0  0  0
   -4.2097   -1.8881   -0.2148 H   0  0  0  0  0  0  0  0  0  0  0  0
   -2.1150   -1.7049    0.2438 C   0  0  0  0  0  0  0  0  0  0  0  0
   -1.3165   -2.6218    0.1535 O   0  0  0  0  0  0  0  0  0  0  0  0
   -1.7948   -0.4520   -0.2451 N   0  0  0  0  0  0  0  0  0  0  0  0
   -2.5899    0.1753   -0.2775 H   0  0  0  0  0  0  0  0  0  0  0  0
   -0.4827    0.2158   -0.0891 C   0  0  1  0  0  0  0  0  0  0  0  0
   -0.0861    0.3822   -1.0942 H   0  0  0  0  0  0  0  0  0  0  0  0
   -0.7256    1.5729    0.6063 C   0  0  0  0  0  0  0  0  0  0  0  0
   -1.2488    1.3992    1.5530 H   0  0  0  0  0  0  0  0  0  0  0  0
    0.2371    2.0299    0.8550 H   0  0  0  0  0  0  0  0  0  0  0  0
   -1.5327    2.5671   -0.2416 C   0  0  0  0  0  0  0  0  0  0  0  0
   -2.5185    2.1512   -0.4689 H   0  0  0  0  0  0  0  0  0  0  0  0
   -1.6912    3.4855    0.3328 H   0  0  0  0  0  0  0  0  0  0  0  0
   -0.6789    2.9840   -1.8181 S   0  0  0  0  0  0  0  0  0  0  0  0
    0.7740    3.9628   -1.2637 C   0  0  0  0  0  0  0  0  0  0  0  0
    1.4525    3.3432   -0.6706 H   0  0  0  0  0  0  0  0  0  0  0  0
    1.3209    4.3427   -2.1319 H   0  0  0  0  0  0  0  0  0  0  0  0
    0.4498    4.8130   -0.6562 H   0  0  0  0  0  0  0  0  0  0  0  0
    0.6424   -0.5190    0.6879 C   0  0  0  0  0  0  0  0  0  0  0  0
    0.4355   -0.9154    1.8300 O   0  0  0  0  0  0  0  0  0  0  0  0
    1.9605   -0.2782    0.3372 N   0  0  0  0  0  0  0  0  0  0  0  0
    2.1305    0.0576   -0.6057 H   0  0  0  0  0  0  0  0  0  0  0  0
    3.0902   -0.7767    1.1133 C   0  0  0  0  0  0  0  0  0  0  0  0
    3.0378   -1.8666    1.2082 H   0  0  0  0  0  0  0  0  0  0  0  0
    4.0320   -0.5165    0.6211 H   0  0  0  0  0  0  0  0  0  0  0  0
    3.0916   -0.3352    2.1156 H   0  0  0  0  0  0  0  0  0  0  0  0
  1  2  1  0  0  0  0
  2  3  1  0  0  0  0
  2  4  1  0  0  0  0
  2  5  1  0  0  0  0
  5  6  2  0  0  0  0
  5  7  1  0  0  0  0
  7  8  1  0  0  0  0
  7  9  1  0  0  0  0
  9 10  1  0  0  0  0
  9 11  1  0  0  0  0
  9 22  1  0  0  0  0
 11 12  1  0  0  0  0
 11 13  1  0  0  0  0
 11 14  1  0  0  0  0
 14 15  1  0  0  0  0
 14 16  1  0  0  0  0
 14 17  1  0  0  0  0
 17 18  1  0  0  0  0
 18 19  1  0  0  0  0
 18 20  1  0  0  0  0
 18 21  1  0  0  0  0
 22 23  2  0  0  0  0
 22 24  1  0  0  0  0
 24 25  1  0  0  0  0
 24 26  1  0  0  0  0
 26 27  1  0  0  0  0
 26 28  1  0  0  0  0
 26 29  1  0  0  0  0
M  END
$$$$

  -OEChem-01062216093D

 29 28  0     1  0  0  0  0  0999 V2000
   -3.6208   -3.0125    1.0284 H   0  0  0  0  0  0  0  0  0  0  0  0
   -3.5293   -1.9775    0.6871 C   0  0  0  0  0  0  0  0  0  0  0  0
   -3.7662   -1.3128    1.5211 H   0  0  0  0  0  0  0  0  0  0  0  0
   -4.2422   -1.8081   -0.1233 H   0  0  0  0  0  0  0  0  0  0  0  0
   -2.1165   -1.7145    0.2018 C   0  0  0  0  0  0  0  0  0  0  0  0
   -1.3618   -2.6535    0.0145 O   0  0  0  0  0  0  0  0  0  0  0  0
   -1.7849   -0.4633   -0.2823 N   0  0  0  0  0  0  0  0  0  0  0  0
   -2.5717    0.1748   -0.2782 H   0  0  0  0  0  0  0  0  0  0  0  0
   -0.4669    0.1921   -0.1147 C   0  0  1  0  0  0  0  0  0  0  0  0
   -0.0636    0.3630   -1.1166 H   0  0  0  0  0  0  0  0  0  0  0  0
   -0.7269    1.5442    0.5890 C   0  0  0  0  0  0  0  0  0  0  0  0
   -1.2617    1.3580    1.5269 H   0  0  0  0  0  0  0  0  0  0  0  0
    0.2266    2.0093    0.8559 H   0  0  0  0  0  0  0  0  0  0  0  0
   -1.5288    2.5427   -0.2600 C   0  0  0  0  0  0  0  0  0  0  0  0
   -2.5100    2.1262   -0.5047 H   0  0  0  0  0  0  0  0  0  0  0  0
   -1.6985    3.4553    0.3205 H   0  0  0  0  0  0  0  0  0  0  0  0
   -0.6559    2.9773   -1.8207 S   0  0  0  0  0  0  0  0  0  0  0  0
    0.7842    3.9578   -1.2368 C   0  0  0  0  0  0  0  0  0  0  0  0
    1.4509    3.3397   -0.6291 H   0  0  0  0  0  0  0  0  0  0  0  0
    1.3488    4.3384   -2.0933 H   0  0  0  0  0  0  0  0  0  0  0  0
    0.4455    4.8078   -0.6369 H   0  0  0  0  0  0  0  0  0  0  0  0
    0.6620   -0.5374    0.6668 C   0  0  0  0  0  0  0  0  0  0  0  0
    0.4132   -1.1145    1.7191 O   0  0  0  0  0  0  0  0  0  0  0  0
    1.9583   -0.0642    0.5341 N   0  0  0  0  0  0  0  0  0  0  0  0
    2.1753    0.4483   -0.3149 H   0  0  0  0  0  0  0  0  0  0  0  0
    3.0608   -0.5028    1.3835 C   0  0  0  0  0  0  0  0  0  0  0  0
    3.1710   -1.5915    1.3363 H   0  0  0  0  0  0  0  0  0  0  0  0
    3.9985   -0.0453    1.0540 H   0  0  0  0  0  0  0  0  0  0  0  0
    2.8826   -0.2118    2.4242 H   0  0  0  0  0  0  0  0  0  0  0  0
  1  2  1  0  0  0  0
  2  3  1  0  0  0  0
  2  4  1  0  0  0  0
  2  5  1  0  0  0  0
  5  6  2  0  0  0  0
  5  7  1  0  0  0  0
  7  8  1  0  0  0  0
  7  9  1  0  0  0  0
  9 10  1  0  0  0  0
  9 11  1  0  0  0  0
  9 22  1  0  0  0  0
 11 12  1  0  0  0  0
 11 13  1  0  0  0  0
 11 14  1  0  0  0  0
 14 15  1  0  0  0  0
 14 16  1  0  0  0  0
 14 17  1  0  0  0  0
 17 18  1  0  0  0  0
 18 19  1  0  0  0  0
 18 20  1  0  0  0  0
 18 21  1  0  0  0  0
 22 23  2  0  0  0  0
 22 24  1  0  0  0  0
 24 25  1  0  0  0  0
 24 26  1  0  0  0  0
 26 27  1  0  0  0  0
 26 28  1  0  0  0  0
 26 29  1  0  0  0  0
M  END
$$$$

  -OEChem-01062216093D

 29 28  0     1  0  0  0  0  0999 V2000
   -3.4916   -3.1717    0.9255 H   0  0  0  0  0  0  0  0  0  0  0  0
   -3.3303   -2.3136    0.2669 C   0  0  0  0  0  0  0  0  0  0  0  0
   -4.2737   -1.7759    0.1478 H   0  0  0  0  0  0  0  0  0  0  0  0
   -2.9976   -2.6791   -0.7075 H   0  0  0  0  0  0  0  0  0  0  0  0
   -2.2780   -1.3960    0.8592 C   0  0  0  0  0  0  0  0  0  0  0  0
   -1.9060   -1.5608    2.0100 O   0  0  0  0  0  0  0  0  0  0  0  0
   -1.9382   -0.2239    0.2106 N   0  0  0  0  0  0  0  0  0  0  0  0
   -2.4530   -0.1015   -0.6554 H   0  0  0  0  0  0  0  0  0  0  0  0
   -0.5661    0.3361    0.1772 C   0  0  1  0  0  0  0  0  0  0  0  0
   -0.3535    0.6508   -0.8481 H   0  0  0  0  0  0  0  0  0  0  0  0
   -0.6009    1.5717    1.1082 C   0  0  0  0  0  0  0  0  0  0  0  0
   -0.9582    1.2595    2.0960 H   0  0  0  0  0  0  0  0  0  0  0  0
    0.4052    1.9749    1.2455 H   0  0  0  0  0  0  0  0  0  0  0  0
   -1.4988    2.7016    0.5826 C   0  0  0  0  0  0  0  0  0  0  0  0
   -2.5283    2.3420    0.4905 H   0  0  0  0  0  0  0  0  0  0  0  0
   -1.5062    3.5224    1.3066 H   0  0  0  0  0  0  0  0  0  0  0  0
   -0.9330    3.3421   -1.0488 S   0  0  0  0  0  0  0  0  0  0  0  0
    0.6429    4.1953   -0.6447 C   0  0  0  0  0  0  0  0  0  0  0  0
    1.3911    3.4783   -0.2966 H   0  0  0  0  0  0  0  0  0  0  0  0
    1.0328    4.6990   -1.5344 H   0  0  0  0  0  0  0  0  0  0  0  0
    0.4790    4.9437    0.1364 H   0  0  0  0  0  0  0  0  0  0  0  0
    0.6375   -0.5710    0.5772 C   0  0  0  0  0  0  0  0  0  0  0  0
    0.5797   -1.7904    0.4774 O   0  0  0  0  0  0  0  0  0  0  0  0
    1.9150   -0.0328    0.5465 N   0  0  0  0  0  0  0  0  0  0  0  0
    1.9949    0.9768    0.4922 H   0  0  0  0  0  0  0  0  0  0  0  0
    3.1337   -0.8291    0.6464 C   0  0  0  0  0  0  0  0  0  0  0  0
    3.2394   -1.4788   -0.2288 H   0  0  0  0  0  0  0  0  0  0  0  0
    4.0096   -0.1756    0.7005 H   0  0  0  0  0  0  0  0  0  0  0  0
    3.1124   -1.4519    1.5471 H   0  0  0  0  0  0  0  0  0  0  0  0
  1  2  1  0  0  0  0
  2  3  1  0  0  0  0
  2  4  1  0  0  0  0
  2  5  1  0  0  0  0
  5  6  2  0  0  0  0
  5  7  1  0  0  0  0
  7  8  1  0  0  0  0
  7  9  1  0  0  0  0
  9 10  1  0  0  0  0
  9 11  1  0  0  0  0
  9 22  1  0  0  0  0
 11 12  1  0  0  0  0
 11 13  1  0  0  0  0
 11 14  1  0  0  0  0
 14 15  1  0  0  0  0
 14 16  1  0  0  0  0
 14 17  1  0  0  0  0
 17 18  1  0  0  0  0
 18 19  1  0  0  0  0
 18 20  1  0  0  0  0
 18 21  1  0  0  0  0
 22 23  2  0  0  0  0
 22 24  1  0  0  0  0
 24 25  1  0  0  0  0
 24 26  1  0  0  0  0
 26 27  1  0  0  0  0
 26 28  1  0  0  0  0
 26 29  1  0  0  0  0
M  END
$$$$

  -OEChem-01062216093D

 29 28  0     1  0  0  0  0  0999 V2000
   -3.4699   -3.1643    0.9306 H   0  0  0  0  0  0  0  0  0  0  0  0
   -3.3236   -2.2985    0.2786 C   0  0  0  0  0  0  0  0  0  0  0  0
   -4.2643   -1.7480    0.2050 H   0  0  0  0  0  0  0  0  0  0  0  0
   -3.0346   -2.6529   -0.7138 H   0  0  0  0  0  0  0  0  0  0  0  0
   -2.2368   -1.4026    0.8413 C   0  0  0  0  0  0  0  0  0  0  0  0
   -1.7902   -1.6149    1.9578 O   0  0  0  0  0  0  0  0  0  0  0  0
   -1.9221   -0.2164    0.2047 N   0  0  0  0  0  0  0  0  0  0  0  0
   -2.4562   -0.0788   -0.6474 H   0  0  0  0  0  0  0  0  0  0  0  0
   -0.5576    0.3609    0.1650 C   0  0  1  0  0  0  0  0  0  0  0  0
   -0.3451    0.6807   -0.8588 H   0  0  0  0  0  0  0  0  0  0  0  0
   -0.6047    1.5962    1.0968 C   0  0  0  0  0  0  0  0  0  0  0  0
   -0.9496    1.2803    2.0878 H   0  0  0  0  0  0  0  0  0  0  0  0
    0.3941    2.0189    1.2224 H   0  0  0  0  0  0  0  0  0  0  0  0
   -1.5210    2.7137    0.5744 C   0  0  0  0  0  0  0  0  0  0  0  0
   -2.5458    2.3395    0.4865 H   0  0  0  0  0  0  0  0  0  0  0  0
   -1.5372    3.5351    1.2977 H   0  0  0  0  0  0  0  0  0  0  0  0
   -0.9732    3.3620   -1.0597 S   0  0  0  0  0  0  0  0  0  0  0  0
    0.5926    4.2377   -0.6649 C   0  0  0  0  0  0  0  0  0  0  0  0
    1.3549    3.5295   -0.3289 H   0  0  0  0  0  0  0  0  0  0  0  0
    0.9664    4.7525   -1.5550 H   0  0  0  0  0  0  0  0  0  0  0  0
    0.4248    4.9791    0.1220 H   0  0  0  0  0  0  0  0  0  0  0  0
    0.6307   -0.5735    0.5481 C   0  0  0  0  0  0  0  0  0  0  0  0
    0.6163   -1.7472    0.1941 O   0  0  0  0  0  0  0  0  0  0  0  0
    1.8789   -0.0449    0.8392 N   0  0  0  0  0  0  0  0  0  0  0  0
    1.9230    0.9397    1.0767 H   0  0  0  0  0  0  0  0  0  0  0  0
    3.0749   -0.8613    1.0184 C   0  0  0  0  0  0  0  0  0  0  0  0
    3.3368   -1.3679    0.0834 H   0  0  0  0  0  0  0  0  0  0  0  0
    3.9198   -0.2349    1.3201 H   0  0  0  0  0  0  0  0  0  0  0  0
    2.9103   -1.6168    1.7944 H   0  0  0  0  0  0  0  0  0  0  0  0
  1  2  1  0  0  0  0
  2  3  1  0  0  0  0
  2  4  1  0  0  0  0
  2  5  1  0  0  0  0
  5  6  2  0  0  0  0
  5  7  1  0  0  0  0
  7  8  1  0  0  0  0
  7  9  1  0  0  0  0
  9 10  1  0  0  0  0
  9 11  1  0  0  0  0
  9 22  1  0  0  0  0
 11 12  1  0  0  0  0
 11 13  1  0  0  0  0
 11 14  1  0  0  0  0
 14 15  1  0  0  0  0
 14 16  1  0  0  0  0
 14 17  1  0  0  0  0
 17 18  1  0  0  0  0
 18 19  1  0  0  0  0
 18 20  1  0  0  0  0
 18 21  1  0  0  0  0
 22 23  2  0  0  0  0
 22 24  1  0  0  0  0
 24 25  1  0  0  0  0
 24 26  1  0  0  0  0
 26 27  1  0  0  0  0
 26 28  1  0  0  0  0
 26 29  1  0  0  0  0
M  END
$$$$

  -OEChem-01062216093D

 29 28  0     1  0  0  0  0  0999 V2000
   -3.4200   -3.1860    0.9056 H   0  0  0  0  0  0  0  0  0  0  0  0
   -3.3084   -2.2953    0.2809 C   0  0  0  0  0  0  0  0  0  0  0  0
   -4.2551   -1.7502    0.2693 H   0  0  0  0  0  0  0  0  0  0  0  0
   -3.0613   -2.6102   -0.7359 H   0  0  0  0  0  0  0  0  0  0  0  0
   -2.2045   -1.4109    0.8284 C   0  0  0  0  0  0  0  0  0  0  0  0
   -1.7046   -1.6634    1.9135 O   0  0  0  0  0  0  0  0  0  0  0  0
   -1.9125   -0.2109    0.2066 N   0  0  0  0  0  0  0  0  0  0  0  0
   -2.4649   -0.0572   -0.6311 H   0  0  0  0  0  0  0  0  0  0  0  0
   -0.5573    0.3850    0.1631 C   0  0  1  0  0  0  0  0  0  0  0  0
   -0.3511    0.7077   -0.8611 H   0  0  0  0  0  0  0  0  0  0  0  0
   -0.6034    1.6223    1.0912 C   0  0  0  0  0  0  0  0  0  0  0  0
   -0.9339    1.3088    2.0877 H   0  0  0  0  0  0  0  0  0  0  0  0
    0.3945    2.0536    1.1971 H   0  0  0  0  0  0  0  0  0  0  0  0
   -1.5315    2.7316    0.5725 C   0  0  0  0  0  0  0  0  0  0  0  0
   -2.5543    2.3494    0.4951 H   0  0  0  0  0  0  0  0  0  0  0  0
   -1.5470    3.5555    1.2930 H   0  0  0  0  0  0  0  0  0  0  0  0
   -1.0039    3.3781   -1.0688 S   0  0  0  0  0  0  0  0  0  0  0  0
    0.5599    4.2665   -0.6945 C   0  0  0  0  0  0  0  0  0  0  0  0
    1.3308    3.5652   -0.3633 H   0  0  0  0  0  0  0  0  0  0  0  0
    0.9207    4.7796   -1.5910 H   0  0  0  0  0  0  0  0  0  0  0  0
    0.3954    5.0100    0.0910 H   0  0  0  0  0  0  0  0  0  0  0  0
    0.6243   -0.5639    0.5274 C   0  0  0  0  0  0  0  0  0  0  0  0
    0.6795   -1.6636   -0.0129 O   0  0  0  0  0  0  0  0  0  0  0  0
    1.7880   -0.0956    1.1167 N   0  0  0  0  0  0  0  0  0  0  0  0
    1.7333    0.7987    1.5920 H   0  0  0  0  0  0  0  0  0  0  0  0
    2.9456   -0.9462    1.3701 C   0  0  0  0  0  0  0  0  0  0  0  0
    3.3564   -1.3260    0.4286 H   0  0  0  0  0  0  0  0  0  0  0  0
    3.7278   -0.3782    1.8825 H   0  0  0  0  0  0  0  0  0  0  0  0
    2.6646   -1.7965    2.0007 H   0  0  0  0  0  0  0  0  0  0  0  0
  1  2  1  0  0  0  0
  2  3  1  0  0  0  0
  2  4  1  0  0  0  0
  2  5  1  0  0  0  0
  5  6  2  0  0  0  0
  5  7  1  0  0  0  0
  7  8  1  0  0  0  0
  7  9  1  0  0  0  0
  9 10  1  0  0  0  0
  9 11  1  0  0  0  0
  9 22  1  0  0  0  0
 11 12  1  0  0  0  0
 11 13  1  0  0  0  0
 11 14  1  0  0  0  0
 14 15  1  0  0  0  0
 14 16  1  0  0  0  0
 14 17  1  0  0  0  0
 17 18  1  0  0  0  0
 18 19  1  0  0  0  0
 18 20  1  0  0  0  0
 18 21  1  0  0  0  0
 22 23  2  0  0  0  0
 22 24  1  0  0  0  0
 24 25  1  0  0  0  0
 24 26  1  0  0  0  0
 26 27  1  0  0  0  0
 26 28  1  0  0  0  0
 26 29  1  0  0  0  0
M  END
$$$$

  -OEChem-01062216093D

 29 28  0     1  0  0  0  0  0999 V2000
   -3.4014   -3.1960    0.8889 H   0  0  0  0  0  0  0  0  0  0  0  0
   -3.3075   -2.2909    0.2823 C   0  0  0  0  0  0  0  0  0  0  0  0
   -4.2513   -1.7422    0.3180 H   0  0  0  0  0  0  0  0  0  0  0  0
   -3.0992   -2.5820   -0.7500 H   0  0  0  0  0  0  0  0  0  0  0  0
   -2.1805   -1.4241    0.8109 C   0  0  0  0  0  0  0  0  0  0  0  0
   -1.6390   -1.7117    1.8669 O   0  0  0  0  0  0  0  0  0  0  0  0
   -1.9018   -0.2148    0.2005 N   0  0  0  0  0  0  0  0  0  0  0  0
   -2.4688   -0.0462   -0.6248 H   0  0  0  0  0  0  0  0  0  0  0  0
   -0.5549    0.3986    0.1577 C   0  0  1  0  0  0  0  0  0  0  0  0
   -0.3535    0.7245   -0.8667 H   0  0  0  0  0  0  0  0  0  0  0  0
   -0.5987    1.6358    1.0842 C   0  0  0  0  0  0  0  0  0  0  0  0
   -0.9204    1.3229    2.0837 H   0  0  0  0  0  0  0  0  0  0  0  0
    0.4015    2.0668    1.1782 H   0  0  0  0  0  0  0  0  0  0  0  0
   -1.5344    2.7419    0.5727 C   0  0  0  0  0  0  0  0  0  0  0  0
   -2.5562    2.3557    0.5041 H   0  0  0  0  0  0  0  0  0  0  0  0
   -1.5466    3.5658    1.2934 H   0  0  0  0  0  0  0  0  0  0  0  0
   -1.0233    3.3909   -1.0730 S   0  0  0  0  0  0  0  0  0  0  0  0
    0.5407    4.2849   -0.7128 C   0  0  0  0  0  0  0  0  0  0  0  0
    1.3161    3.5865   -0.3859 H   0  0  0  0  0  0  0  0  0  0  0  0
    0.8932    4.7966   -1.6134 H   0  0  0  0  0  0  0  0  0  0  0  0
    0.3803    5.0297    0.0723 H   0  0  0  0  0  0  0  0  0  0  0  0
    0.6271   -0.5508    0.5123 C   0  0  0  0  0  0  0  0  0  0  0  0
    0.7787   -1.5603   -0.1669 O   0  0  0  0  0  0  0  0  0  0  0  0
    1.6560   -0.1806    1.3634 N   0  0  0  0  0  0  0  0  0  0  0  0
    1.4650    0.5925    1.9919 H   0  0  0  0  0  0  0  0  0  0  0  0
    2.7659   -1.0708    1.6830 C   0  0  0  0  0  0  0  0  0  0  0  0
    3.3268   -1.3263    0.7779 H   0  0  0  0  0  0  0  0  0  0  0  0
    3.4503   -0.5856    2.3854 H   0  0  0  0  0  0  0  0  0  0  0  0
    2.3955   -1.9948    2.1399 H   0  0  0  0  0  0  0  0  0  0  0  0
  1  2  1  0  0  0  0
  2  3  1  0  0  0  0
  2  4  1  0  0  0  0
  2  5  1  0  0  0  0
  5  6  2  0  0  0  0
  5  7  1  0  0  0  0
  7  8  1  0  0  0  0
  7  9  1  0  0  0  0
  9 10  1  0  0  0  0
  9 11  1  0  0  0  0
  9 22  1  0  0  0  0
 11 12  1  0  0  0  0
 11 13  1  0  0  0  0
 11 14  1  0  0  0  0
 14 15  1  0  0  0  0
 14 16  1  0  0  0  0
 14 17  1  0  0  0  0
 17 18  1  0  0  0  0
 18 19  1  0  0  0  0
 18 20  1  0  0  0  0
 18 21  1  0  0  0  0
 22 23  2  0  0  0  0
 22 24  1  0  0  0  0
 24 25  1  0  0  0  0
 24 26  1  0  0  0  0
 26 27  1  0  0  0  0
 26 28  1  0  0  0  0
 26 29  1  0  0  0  0
M  END
$$$$

  -OEChem-01062216093D

 29 28  0     1  0  0  0  0  0999 V2000
   -3.3836   -3.2146    0.8494 H   0  0  0  0  0  0  0  0  0  0  0  0
   -3.3249   -2.2793    0.2857 C   0  0  0  0  0  0  0  0  0  0  0  0
   -4.2638   -1.7339    0.4071 H   0  0  0  0  0  0  0  0  0  0  0  0
   -3.1809   -2.5170   -0.7711 H   0  0  0  0  0  0  0  0  0  0  0  0
   -2.1666   -1.4393    0.7896 C   0  0  0  0  0  0  0  0  0  0  0  0
   -1.5893   -1.7616    1.8160 O   0  0  0  0  0  0  0  0  0  0  0  0
   -1.8897   -0.2253    0.1874 N   0  0  0  0  0  0  0  0  0  0  0  0
   -2.4699   -0.0367   -0.6245 H   0  0  0  0  0  0  0  0  0  0  0  0
   -0.5491    0.4005    0.1516 C   0  0  1  0  0  0  0  0  0  0  0  0
   -0.3480    0.7289   -0.8724 H   0  0  0  0  0  0  0  0  0  0  0  0
   -0.5951    1.6369    1.0774 C   0  0  0  0  0  0  0  0  0  0  0  0
   -0.9186    1.3246    2.0763 H   0  0  0  0  0  0  0  0  0  0  0  0
    0.4079    2.0633    1.1717 H   0  0  0  0  0  0  0  0  0  0  0  0
   -1.5333    2.7413    0.5673 C   0  0  0  0  0  0  0  0  0  0  0  0
   -2.5544    2.3529    0.4993 H   0  0  0  0  0  0  0  0  0  0  0  0
   -1.5464    3.5650    1.2880 H   0  0  0  0  0  0  0  0  0  0  0  0
   -1.0253    3.3922   -1.0784 S   0  0  0  0  0  0  0  0  0  0  0  0
    0.5372    4.2890   -0.7188 C   0  0  0  0  0  0  0  0  0  0  0  0
    1.3113    3.5926   -0.3847 H   0  0  0  0  0  0  0  0  0  0  0  0
    0.8932    4.7951   -1.6213 H   0  0  0  0  0  0  0  0  0  0  0  0
    0.3743    5.0388    0.0610 H   0  0  0  0  0  0  0  0  0  0  0  0
    0.6371   -0.5397    0.5064 C   0  0  0  0  0  0  0  0  0  0  0  0
    0.9195   -1.4319   -0.2848 O   0  0  0  0  0  0  0  0  0  0  0  0
    1.4887   -0.3025    1.5727 N   0  0  0  0  0  0  0  0  0  0  0  0
    1.1269    0.3100    2.2965 H   0  0  0  0  0  0  0  0  0  0  0  0
    2.5559   -1.2281    1.9327 C   0  0  0  0  0  0  0  0  0  0  0  0
    3.2629   -1.3410    1.1040 H   0  0  0  0  0  0  0  0  0  0  0  0
    3.1036   -0.8536    2.8027 H   0  0  0  0  0  0  0  0  0  0  0  0
    2.1413   -2.2115    2.1790 H   0  0  0  0  0  0  0  0  0  0  0  0
  1  2  1  0  0  0  0
  2  3  1  0  0  0  0
  2  4  1  0  0  0  0
  2  5  1  0  0  0  0
  5  6  2  0  0  0  0
  5  7  1  0  0  0  0
  7  8  1  0  0  0  0
  7  9  1  0  0  0  0
  9 10  1  0  0  0  0
  9 11  1  0  0  0  0
  9 22  1  0  0  0  0
 11 12  1  0  0  0  0
 11 13  1  0  0  0  0
 11 14  1  0  0  0  0
 14 15  1  0  0  0  0
 14 16  1  0  0  0  0
 14 17  1  0  0  0  0
 17 18  1  0  0  0  0
 18 19  1  0  0  0  0
 18 20  1  0  0  0  0
 18 21  1  0  0  0  0
 22 23  2  0  0  0  0
 22 24  1  0  0  0  0
 24 25  1  0  0  0  0
 24 26  1  0  0  0  0
 26 27  1  0  0  0  0
 26 28  1  0  0  0  0
 26 29  1  0  0  0  0
M  END
$$$$

  -OEChem-01062216093D

 29 28  0     1  0  0  0  0  0999 V2000
   -3.4265   -3.2046    0.8341 H   0  0  0  0  0  0  0  0  0  0  0  0
   -3.3629   -2.2612    0.2845 C   0  0  0  0  0  0  0  0  0  0  0  0
   -4.2864   -1.6985    0.4402 H   0  0  0  0  0  0  0  0  0  0  0  0
   -3.2526   -2.4835   -0.7797 H   0  0  0  0  0  0  0  0  0  0  0  0
   -2.1738   -1.4544    0.7709 C   0  0  0  0  0  0  0  0  0  0  0  0
   -1.5710   -1.8124    1.7702 O   0  0  0  0  0  0  0  0  0  0  0  0
   -1.8844   -0.2406    0.1749 N   0  0  0  0  0  0  0  0  0  0  0  0
   -2.4779   -0.0242   -0.6205 H   0  0  0  0  0  0  0  0  0  0  0  0
   -0.5465    0.3904    0.1480 C   0  0  1  0  0  0  0  0  0  0  0  0
   -0.3450    0.7203   -0.8757 H   0  0  0  0  0  0  0  0  0  0  0  0
   -0.5947    1.6259    1.0731 C   0  0  0  0  0  0  0  0  0  0  0  0
   -0.9250    1.3149    2.0699 H   0  0  0  0  0  0  0  0  0  0  0  0
    0.4114    2.0443    1.1741 H   0  0  0  0  0  0  0  0  0  0  0  0
   -1.5302    2.7320    0.5622 C   0  0  0  0  0  0  0  0  0  0  0  0
   -2.5513    2.3449    0.4904 H   0  0  0  0  0  0  0  0  0  0  0  0
   -1.5437    3.5549    1.2839 H   0  0  0  0  0  0  0  0  0  0  0  0
   -1.0169    3.3835   -1.0811 S   0  0  0  0  0  0  0  0  0  0  0  0
    0.5457    4.2766   -0.7121 C   0  0  0  0  0  0  0  0  0  0  0  0
    1.3167    3.5784   -0.3742 H   0  0  0  0  0  0  0  0  0  0  0  0
    0.9074    4.7823   -1.6124 H   0  0  0  0  0  0  0  0  0  0  0  0
    0.3805    5.0265    0.0672 H   0  0  0  0  0  0  0  0  0  0  0  0
    0.6488   -0.5334    0.5091 C   0  0  0  0  0  0  0  0  0  0  0  0
    1.0955   -1.2688   -0.3630 O   0  0  0  0  0  0  0  0  0  0  0  0
    1.2981   -0.4633    1.7303 N   0  0  0  0  0  0  0  0  0  0  0  0
    0.7523   -0.0503    2.4806 H   0  0  0  0  0  0  0  0  0  0  0  0
    2.3461   -1.4067    2.0999 C   0  0  0  0  0  0  0  0  0  0  0  0
    3.1787   -1.3546    1.3903 H   0  0  0  0  0  0  0  0  0  0  0  0
    2.7302   -1.1733    3.0975 H   0  0  0  0  0  0  0  0  0  0  0  0
    1.9530   -2.4290    2.1087 H   0  0  0  0  0  0  0  0  0  0  0  0
  1  2  1  0  0  0  0
  2  3  1  0  0  0  0
  2  4  1  0  0  0  0
  2  5  1  0  0  0  0
  5  6  2  0  0  0  0
  5  7  1  0  0  0  0
  7  8  1  0  0  0  0
  7  9  1  0  0  0  0
  9 10  1  0  0  0  0
  9 11  1  0  0  0  0
  9 22  1  0  0  0  0
 11 12  1  0  0  0  0
 11 13  1  0  0  0  0
 11 14  1  0  0  0  0
 14 15  1  0  0  0  0
 14 16  1  0  0  0  0
 14 17  1  0  0  0  0
 17 18  1  0  0  0  0
 18 19  1  0  0  0  0
 18 20  1  0  0  0  0
 18 21  1  0  0  0  0
 22 23  2  0  0  0  0
 22 24  1  0  0  0  0
 24 25  1  0  0  0  0
 24 26  1  0  0  0  0
 26 27  1  0  0  0  0
 26 28  1  0  0  0  0
 26 29  1  0  0  0  0
M  END
$$$$

  -OEChem-01062216093D

 29 28  0     1  0  0  0  0  0999 V2000
   -3.5269   -3.1729    0.8259 H   0  0  0  0  0  0  0  0  0  0  0  0
   -3.4343   -2.2312    0.2772 C   0  0  0  0  0  0  0  0  0  0  0  0
   -4.3348   -1.6354    0.4442 H   0  0  0  0  0  0  0  0  0  0  0  0
   -3.3450   -2.4552   -0.7886 H   0  0  0  0  0  0  0  0  0  0  0  0
   -2.2109   -1.4692    0.7508 C   0  0  0  0  0  0  0  0  0  0  0  0
   -1.6017   -1.8609    1.7326 O   0  0  0  0  0  0  0  0  0  0  0  0
   -1.8917   -0.2613    0.1593 N   0  0  0  0  0  0  0  0  0  0  0  0
   -2.4925   -0.0137   -0.6218 H   0  0  0  0  0  0  0  0  0  0  0  0
   -0.5515    0.3663    0.1437 C   0  0  1  0  0  0  0  0  0  0  0  0
   -0.3471    0.6980   -0.8790 H   0  0  0  0  0  0  0  0  0  0  0  0
   -0.5976    1.5990    1.0713 C   0  0  0  0  0  0  0  0  0  0  0  0
   -0.9343    1.2883    2.0661 H   0  0  0  0  0  0  0  0  0  0  0  0
    0.4120    2.0076    1.1802 H   0  0  0  0  0  0  0  0  0  0  0  0
   -1.5241    2.7120    0.5596 C   0  0  0  0  0  0  0  0  0  0  0  0
   -2.5474    2.3317    0.4826 H   0  0  0  0  0  0  0  0  0  0  0  0
   -1.5351    3.5330    1.2833 H   0  0  0  0  0  0  0  0  0  0  0  0
   -0.9998    3.3654   -1.0792 S   0  0  0  0  0  0  0  0  0  0  0  0
    0.5660    4.2465   -0.6949 C   0  0  0  0  0  0  0  0  0  0  0  0
    1.3304    3.5412   -0.3560 H   0  0  0  0  0  0  0  0  0  0  0  0
    0.9371    4.7552   -1.5897 H   0  0  0  0  0  0  0  0  0  0  0  0
    0.4002    4.9921    0.0884 H   0  0  0  0  0  0  0  0  0  0  0  0
    0.6537   -0.5384    0.5182 C   0  0  0  0  0  0  0  0  0  0  0  0
    1.2961   -1.0581   -0.3859 O   0  0  0  0  0  0  0  0  0  0  0  0
    1.0948   -0.6693    1.8235 N   0  0  0  0  0  0  0  0  0  0  0  0
    0.3665   -0.5173    2.5175 H   0  0  0  0  0  0  0  0  0  0  0  0
    2.1717   -1.5843    2.1808 C   0  0  0  0  0  0  0  0  0  0  0  0
    3.0915   -1.3243    1.6462 H   0  0  0  0  0  0  0  0  0  0  0  0
    2.3721   -1.5298    3.2551 H   0  0  0  0  0  0  0  0  0  0  0  0
    1.8971   -2.6141    1.9290 H   0  0  0  0  0  0  0  0  0  0  0  0
  1  2  1  0  0  0  0
  2  3  1  0  0  0  0
  2  4  1  0  0  0  0
  2  5  1  0  0  0  0
  5  6  2  0  0  0  0
  5  7  1  0  0  0  0
  7  8  1  0  0  0  0
  7  9  1  0  0  0  0
  9 10  1  0  0  0  0
  9 11  1  0  0  0  0
  9 22  1  0  0  0  0
 11 12  1  0  0  0  0
 11 13  1  0  0  0  0
 11 14  1  0  0  0  0
 14 15  1  0  0  0  0
 14 16  1  0  0  0  0
 14 17  1  0  0  0  0
 17 18  1  0  0  0  0
 18 19  1  0  0  0  0
 18 20  1  0  0  0  0
 18 21  1  0  0  0  0
 22 23  2  0  0  0  0
 22 24  1  0  0  0  0
 24 25  1  0  0  0  0
 24 26  1  0  0  0  0
 26 27  1  0  0  0  0
 26 28  1  0  0  0  0
 26 29  1  0  0  0  0
M  END
$$$$

  -OEChem-01062216093D

 29 28  0     1  0  0  0  0  0999 V2000
   -3.6825   -3.1215    0.7923 H   0  0  0  0  0  0  0  0  0  0  0  0
   -3.5469   -2.1770    0.2576 C   0  0  0  0  0  0  0  0  0  0  0  0
   -4.4091   -1.5346    0.4529 H   0  0  0  0  0  0  0  0  0  0  0  0
   -3.4912   -2.3866   -0.8134 H   0  0  0  0  0  0  0  0  0  0  0  0
   -2.2741   -1.4928    0.7197 C   0  0  0  0  0  0  0  0  0  0  0  0
   -1.6676   -1.9432    1.6765 O   0  0  0  0  0  0  0  0  0  0  0  0
   -1.9043   -0.2947    0.1387 N   0  0  0  0  0  0  0  0  0  0  0  0
   -2.5157    0.0025   -0.6167 H   0  0  0  0  0  0  0  0  0  0  0  0
   -0.5589    0.3259    0.1355 C   0  0  1  0  0  0  0  0  0  0  0  0
   -0.3531    0.6611   -0.8860 H   0  0  0  0  0  0  0  0  0  0  0  0
   -0.6049    1.5530    1.0692 C   0  0  0  0  0  0  0  0  0  0  0  0
   -0.9457    1.2381    2.0611 H   0  0  0  0  0  0  0  0  0  0  0  0
    0.4065    1.9551    1.1861 H   0  0  0  0  0  0  0  0  0  0  0  0
   -1.5214    2.6753    0.5601 C   0  0  0  0  0  0  0  0  0  0  0  0
   -2.5465    2.3024    0.4744 H   0  0  0  0  0  0  0  0  0  0  0  0
   -1.5310    3.4915    1.2895 H   0  0  0  0  0  0  0  0  0  0  0  0
   -0.9819    3.3354   -1.0710 S   0  0  0  0  0  0  0  0  0  0  0  0
    0.5874    4.2032   -0.6720 C   0  0  0  0  0  0  0  0  0  0  0  0
    1.3473    3.4889   -0.3421 H   0  0  0  0  0  0  0  0  0  0  0  0
    0.9625    4.7221   -1.5590 H   0  0  0  0  0  0  0  0  0  0  0  0
    0.4250    4.9388    0.1212 H   0  0  0  0  0  0  0  0  0  0  0  0
    0.6641   -0.5493    0.5227 C   0  0  0  0  0  0  0  0  0  0  0  0
    1.4954   -0.8053   -0.3394 O   0  0  0  0  0  0  0  0  0  0  0  0
    0.9237   -0.9075    1.8329 N   0  0  0  0  0  0  0  0  0  0  0  0
    0.0765   -0.9979    2.3953 H   0  0  0  0  0  0  0  0  0  0  0  0
    2.0490   -1.7620    2.1902 C   0  0  0  0  0  0  0  0  0  0  0  0
    2.9945   -1.2990    1.8889 H   0  0  0  0  0  0  0  0  0  0  0  0
    2.0733   -1.9194    3.2727 H   0  0  0  0  0  0  0  0  0  0  0  0
    1.9606   -2.7365    1.6988 H   0  0  0  0  0  0  0  0  0  0  0  0
  1  2  1  0  0  0  0
  2  3  1  0  0  0  0
  2  4  1  0  0  0  0
  2  5  1  0  0  0  0
  5  6  2  0  0  0  0
  5  7  1  0  0  0  0
  7  8  1  0  0  0  0
  7  9  1  0  0  0  0
  9 10  1  0  0  0  0
  9 11  1  0  0  0  0
  9 22  1  0  0  0  0
 11 12  1  0  0  0  0
 11 13  1  0  0  0  0
 11 14  1  0  0  0  0
 14 15  1  0  0  0  0
 14 16  1  0  0  0  0
 14 17  1  0  0  0  0
 17 18  1  0  0  0  0
 18 19  1  0  0  0  0
 18 20  1  0  0  0  0
 18 21  1  0  0  0  0
 22 23  2  0  0  0  0
 22 24  1  0  0  0  0
 24 25  1  0  0  0  0
 24 26  1  0  0  0  0
 26 27  1  0  0  0  0
 26 28  1  0  0  0  0
 26 29  1  0  0  0  0
M  END
$$$$

  -OEChem-01062216093D

 29 28  0     1  0  0  0  0  0999 V2000
   -3.8706   -3.0408    0.7544 H   0  0  0  0  0  0  0  0  0  0  0  0
   -3.6728   -2.1023    0.2286 C   0  0  0  0  0  0  0  0  0  0  0  0
   -4.4851   -1.4026    0.4398 H   0  0  0  0  0  0  0  0  0  0  0  0
   -3.6429   -2.3025   -0.8453 H   0  0  0  0  0  0  0  0  0  0  0  0
   -2.3497   -1.5156    0.6838 C   0  0  0  0  0  0  0  0  0  0  0  0
   -1.7548   -2.0444    1.6055 O   0  0  0  0  0  0  0  0  0  0  0  0
   -1.9183   -0.3304    0.1194 N   0  0  0  0  0  0  0  0  0  0  0  0
   -2.5390    0.0261   -0.6021 H   0  0  0  0  0  0  0  0  0  0  0  0
   -0.5664    0.2806    0.1294 C   0  0  1  0  0  0  0  0  0  0  0  0
   -0.3591    0.6170   -0.8913 H   0  0  0  0  0  0  0  0  0  0  0  0
   -0.6215    1.5042    1.0668 C   0  0  0  0  0  0  0  0  0  0  0  0
   -0.9732    1.1847    2.0535 H   0  0  0  0  0  0  0  0  0  0  0  0
    0.3889    1.9046    1.1982 H   0  0  0  0  0  0  0  0  0  0  0  0
   -1.5285    2.6319    0.5518 C   0  0  0  0  0  0  0  0  0  0  0  0
   -2.5542    2.2644    0.4532 H   0  0  0  0  0  0  0  0  0  0  0  0
   -1.5431    3.4447    1.2851 H   0  0  0  0  0  0  0  0  0  0  0  0
   -0.9678    3.2983   -1.0696 S   0  0  0  0  0  0  0  0  0  0  0  0
    0.5991    4.1589   -0.6463 C   0  0  0  0  0  0  0  0  0  0  0  0
    1.3552    3.4388   -0.3200 H   0  0  0  0  0  0  0  0  0  0  0  0
    0.9827    4.6893   -1.5229 H   0  0  0  0  0  0  0  0  0  0  0  0
    0.4310    4.8838    0.1555 H   0  0  0  0  0  0  0  0  0  0  0  0
    0.6812   -0.5564    0.5272 C   0  0  0  0  0  0  0  0  0  0  0  0
    1.6405   -0.5589   -0.2343 O   0  0  0  0  0  0  0  0  0  0  0  0
    0.8209   -1.1592    1.7626 N   0  0  0  0  0  0  0  0  0  0  0  0
   -0.0686   -1.3850    2.2141 H   0  0  0  0  0  0  0  0  0  0  0  0
    1.9803   -1.9695    2.1136 C   0  0  0  0  0  0  0  0  0  0  0  0
    2.8979   -1.3756    2.0487 H   0  0  0  0  0  0  0  0  0  0  0  0
    1.8831   -2.3402    3.1385 H   0  0  0  0  0  0  0  0  0  0  0  0
    2.0670   -2.8278    1.4390 H   0  0  0  0  0  0  0  0  0  0  0  0
  1  2  1  0  0  0  0
  2  3  1  0  0  0  0
  2  4  1  0  0  0  0
  2  5  1  0  0  0  0
  5  6  2  0  0  0  0
  5  7  1  0  0  0  0
  7  8  1  0  0  0  0
  7  9  1  0  0  0  0
  9 10  1  0  0  0  0
  9 11  1  0  0  0  0
  9 22  1  0  0  0  0
 11 12  1  0  0  0  0
 11 13  1  0  0  0  0
 11 14  1  0  0  0  0
 14 15  1  0  0  0  0
 14 16  1  0  0  0  0
 14 17  1  0  0  0  0
 17 18  1  0  0  0  0
 18 19  1  0  0  0  0
 18 20  1  0  0  0  0
 18 21  1  0  0  0  0
 22 23  2  0  0  0  0
 22 24  1  0  0  0  0
 24 25  1  0  0  0  0
 24 26  1  0  0  0  0
 26 27  1  0  0  0  0
 26 28  1  0  0  0  0
 26 29  1  0  0  0  0
M  END
$$$$

  -OEChem-01062216093D

 29 28  0     1  0  0  0  0  0999 V2000
   -4.0078   -2.9878    0.6760 H   0  0  0  0  0  0  0  0  0  0  0  0
   -3.7881   -2.0213    0.2130 C   0  0  0  0  0  0  0  0  0  0  0  0
   -4.5573   -1.3050    0.5116 H   0  0  0  0  0  0  0  0  0  0  0  0
   -3.8124   -2.1409   -0.8729 H   0  0  0  0  0  0  0  0  0  0  0  0
   -2.4217   -1.5283    0.6518 C   0  0  0  0  0  0  0  0  0  0  0  0
   -1.8429   -2.1248    1.5406 O   0  0  0  0  0  0  0  0  0  0  0  0
   -1.9364   -0.3573    0.1009 N   0  0  0  0  0  0  0  0  0  0  0  0
   -2.5605    0.0479   -0.5913 H   0  0  0  0  0  0  0  0  0  0  0  0
   -0.5760    0.2398    0.1195 C   0  0  1  0  0  0  0  0  0  0  0  0
   -0.3669    0.5762   -0.9010 H   0  0  0  0  0  0  0  0  0  0  0  0
   -0.6397    1.4613    1.0595 C   0  0  0  0  0  0  0  0  0  0  0  0
   -1.0018    1.1380    2.0414 H   0  0  0  0  0  0  0  0  0  0  0  0
    0.3691    1.8612    1.2045 H   0  0  0  0  0  0  0  0  0  0  0  0
   -1.5373    2.5936    0.5382 C   0  0  0  0  0  0  0  0  0  0  0  0
   -2.5634    2.2310    0.4271 H   0  0  0  0  0  0  0  0  0  0  0  0
   -1.5563    3.4040    1.2738 H   0  0  0  0  0  0  0  0  0  0  0  0
   -0.9558    3.2639   -1.0740 S   0  0  0  0  0  0  0  0  0  0  0  0
    0.6088    4.1177   -0.6289 C   0  0  0  0  0  0  0  0  0  0  0  0
    1.3547    3.3952   -0.2847 H   0  0  0  0  0  0  0  0  0  0  0  0
    1.0108    4.6400   -1.5021 H   0  0  0  0  0  0  0  0  0  0  0  0
    0.4310    4.8487    0.1651 H   0  0  0  0  0  0  0  0  0  0  0  0
    0.6915   -0.5677    0.5233 C   0  0  0  0  0  0  0  0  0  0  0  0
    1.7214   -0.3570   -0.1054 O   0  0  0  0  0  0  0  0  0  0  0  0
    0.7677   -1.4074    1.6162 N   0  0  0  0  0  0  0  0  0  0  0  0
   -0.1323   -1.7084    1.9971 H   0  0  0  0  0  0  0  0  0  0  0  0
    1.9527   -2.1859    1.9521 C   0  0  0  0  0  0  0  0  0  0  0  0
    2.8116   -1.5271    2.1177 H   0  0  0  0  0  0  0  0  0  0  0  0
    1.7781   -2.7589    2.8677 H   0  0  0  0  0  0  0  0  0  0  0  0
    2.1939   -2.8848    1.1446 H   0  0  0  0  0  0  0  0  0  0  0  0
  1  2  1  0  0  0  0
  2  3  1  0  0  0  0
  2  4  1  0  0  0  0
  2  5  1  0  0  0  0
  5  6  2  0  0  0  0
  5  7  1  0  0  0  0
  7  8  1  0  0  0  0
  7  9  1  0  0  0  0
  9 10  1  0  0  0  0
  9 11  1  0  0  0  0
  9 22  1  0  0  0  0
 11 12  1  0  0  0  0
 11 13  1  0  0  0  0
 11 14  1  0  0  0  0
 14 15  1  0  0  0  0
 14 16  1  0  0  0  0
 14 17  1  0  0  0  0
 17 18  1  0  0  0  0
 18 19  1  0  0  0  0
 18 20  1  0  0  0  0
 18 21  1  0  0  0  0
 22 23  2  0  0  0  0
 22 24  1  0  0  0  0
 24 25  1  0  0  0  0
 24 26  1  0  0  0  0
 26 27  1  0  0  0  0
 26 28  1  0  0  0  0
 26 29  1  0  0  0  0
M  END
$$$$

  -OEChem-01062216093D

 29 28  0     1  0  0  0  0  0999 V2000
   -4.1195   -2.9152    0.7907 H   0  0  0  0  0  0  0  0  0  0  0  0
   -3.8720   -1.9683    0.3024 C   0  0  0  0  0  0  0  0  0  0  0  0
   -4.6103   -1.2179    0.5954 H   0  0  0  0  0  0  0  0  0  0  0  0
   -3.9163   -2.1112   -0.7801 H   0  0  0  0  0  0  0  0  0  0  0  0
   -2.4827   -1.5148    0.7092 C   0  0  0  0  0  0  0  0  0  0  0  0
   -1.9052   -2.1244    1.5896 O   0  0  0  0  0  0  0  0  0  0  0  0
   -1.9794   -0.3590    0.1426 N   0  0  0  0  0  0  0  0  0  0  0  0
   -2.6176    0.0635   -0.5259 H   0  0  0  0  0  0  0  0  0  0  0  0
   -0.6072    0.2126    0.1112 C   0  0  1  0  0  0  0  0  0  0  0  0
   -0.4314    0.5408   -0.9179 H   0  0  0  0  0  0  0  0  0  0  0  0
   -0.6312    1.4410    1.0461 C   0  0  0  0  0  0  0  0  0  0  0  0
   -0.9696    1.1272    2.0393 H   0  0  0  0  0  0  0  0  0  0  0  0
    0.3847    1.8323    1.1626 H   0  0  0  0  0  0  0  0  0  0  0  0
   -1.5296    2.5816    0.5432 C   0  0  0  0  0  0  0  0  0  0  0  0
   -2.5629    2.2315    0.4622 H   0  0  0  0  0  0  0  0  0  0  0  0
   -1.5188    3.3957    1.2747 H   0  0  0  0  0  0  0  0  0  0  0  0
   -0.9846    3.2365   -1.0879 S   0  0  0  0  0  0  0  0  0  0  0  0
    0.6014    4.0731   -0.6878 C   0  0  0  0  0  0  0  0  0  0  0  0
    1.3475    3.3421   -0.3623 H   0  0  0  0  0  0  0  0  0  0  0  0
    0.9859    4.5887   -1.5727 H   0  0  0  0  0  0  0  0  0  0  0  0
    0.4541    4.8080    0.1091 H   0  0  0  0  0  0  0  0  0  0  0  0
    0.6769   -0.5939    0.4685 C   0  0  0  0  0  0  0  0  0  0  0  0
    1.7258   -0.2308   -0.0506 O   0  0  0  0  0  0  0  0  0  0  0  0
    0.7486   -1.6415    1.3632 N   0  0  0  0  0  0  0  0  0  0  0  0
   -0.1383   -1.9737    1.7470 H   0  0  0  0  0  0  0  0  0  0  0  0
    1.9653   -2.3868    1.6581 C   0  0  0  0  0  0  0  0  0  0  0  0
    2.7325   -1.7222    2.0687 H   0  0  0  0  0  0  0  0  0  0  0  0
    1.7574   -3.1696    2.3939 H   0  0  0  0  0  0  0  0  0  0  0  0
    2.3548   -2.8588    0.7501 H   0  0  0  0  0  0  0  0  0  0  0  0
  1  2  1  0  0  0  0
  2  3  1  0  0  0  0
  2  4  1  0  0  0  0
  2  5  1  0  0  0  0
  5  6  2  0  0  0  0
  5  7  1  0  0  0  0
  7  8  1  0  0  0  0
  7  9  1  0  0  0  0
  9 10  1  0  0  0  0
  9 11  1  0  0  0  0
  9 22  1  0  0  0  0
 11 12  1  0  0  0  0
 11 13  1  0  0  0  0
 11 14  1  0  0  0  0
 14 15  1  0  0  0  0
 14 16  1  0  0  0  0
 14 17  1  0  0  0  0
 17 18  1  0  0  0  0
 18 19  1  0  0  0  0
 18 20  1  0  0  0  0
 18 21  1  0  0  0  0
 22 23  2  0  0  0  0
 22 24  1  0  0  0  0
 24 25  1  0  0  0  0
 24 26  1  0  0  0  0
 26 27  1  0  0  0  0
 26 28  1  0  0  0  0
 26 29  1  0  0  0  0
M  END
$$$$

  -OEChem-01062216093D

 29 28  0     1  0  0  0  0  0999 V2000
   -3.3563   -3.3260    0.9729 H   0  0  0  0  0  0  0  0  0  0  0  0
   -3.2511   -2.4003    0.3998 C   0  0  0  0  0  0  0  0  0  0  0  0
   -4.1758   -1.8246    0.4875 H   0  0  0  0  0  0  0  0  0  0  0  0
   -3.0858   -2.6558   -0.6496 H   0  0  0  0  0  0  0  0  0  0  0  0
   -2.0835   -1.5888    0.9288 C   0  0  0  0  0  0  0  0  0  0  0  0
   -1.5997   -1.8846    2.0044 O   0  0  0  0  0  0  0  0  0  0  0  0
   -1.7378   -0.4174    0.2878 N   0  0  0  0  0  0  0  0  0  0  0  0
   -2.3433   -0.2056   -0.4997 H   0  0  0  0  0  0  0  0  0  0  0  0
   -0.4424    0.3086    0.2637 C   0  0  1  0  0  0  0  0  0  0  0  0
   -0.2635    0.5946   -0.7766 H   0  0  0  0  0  0  0  0  0  0  0  0
   -0.6944    1.5807    1.1105 C   0  0  0  0  0  0  0  0  0  0  0  0
   -1.0463    1.2801    2.1033 H   0  0  0  0  0  0  0  0  0  0  0  0
    0.2402    2.1292    1.2593 H   0  0  0  0  0  0  0  0  0  0  0  0
   -1.7093    2.5496    0.4833 C   0  0  0  0  0  0  0  0  0  0  0  0
   -2.6786    2.0542    0.3744 H   0  0  0  0  0  0  0  0  0  0  0  0
   -1.8542    3.4009    1.1559 H   0  0  0  0  0  0  0  0  0  0  0  0
   -1.1569    3.1714   -1.1593 S   0  0  0  0  0  0  0  0  0  0  0  0
    0.2711    4.2463   -0.7334 C   0  0  0  0  0  0  0  0  0  0  0  0
    1.0874    3.6502   -0.3146 H   0  0  0  0  0  0  0  0  0  0  0  0
    0.6384    4.7533   -1.6304 H   0  0  0  0  0  0  0  0  0  0  0  0
   -0.0266    5.0024   -0.0012 H   0  0  0  0  0  0  0  0  0  0  0  0
    0.9313   -0.3000    0.7067 C   0  0  0  0  0  0  0  0  0  0  0  0
    1.9306    0.3983    0.6122 O   0  0  0  0  0  0  0  0  0  0  0  0
    1.2211   -1.4346    1.4256 N   0  0  0  0  0  0  0  0  0  0  0  0
    2.1388   -1.3440    1.8523 H   0  0  0  0  0  0  0  0  0  0  0  0
    0.9630   -2.7494    0.8509 C   0  0  0  0  0  0  0  0  0  0  0  0
    0.5361   -3.4151    1.6078 H   0  0  0  0  0  0  0  0  0  0  0  0
    0.2708   -2.6920    0.0054 H   0  0  0  0  0  0  0  0  0  0  0  0
    1.8987   -3.1888    0.4913 H   0  0  0  0  0  0  0  0  0  0  0  0
  1  2  1  0  0  0  0
  2  3  1  0  0  0  0
  2  4  1  0  0  0  0
  2  5  1  0  0  0  0
  5  6  2  0  0  0  0
  5  7  1  0  0  0  0
  7  8  1  0  0  0  0
  7  9  1  0  0  0  0
  9 10  1  0  0  0  0
  9 11  1  0  0  0  0
  9 22  1  0  0  0  0
 11 12  1  0  0  0  0
 11 13  1  0  0  0  0
 11 14  1  0  0  0  0
 14 15  1  0  0  0  0
 14 16  1  0  0  0  0
 14 17  1  0  0  0  0
 17 18  1  0  0  0  0
 18 19  1  0  0  0  0
 18 20  1  0  0  0  0
 18 21  1  0  0  0  0
 22 23  2  0  0  0  0
 22 24  1  0  0  0  0
 24 25  1  0  0  0  0
 24 26  1  0  0  0  0
 26 27  1  0  0  0  0
 26 28  1  0  0  0  0
 26 29  1  0  0  0  0
M  END
$$$$

  -OEChem-01062216093D

 29 28  0     1  0  0  0  0  0999 V2000
   -3.7032   -3.1743    1.0179 H   0  0  0  0  0  0  0  0  0  0  0  0
   -3.6137   -2.2093    0.5111 C   0  0  0  0  0  0  0  0  0  0  0  0
   -4.4172   -1.5544    0.8567 H   0  0  0  0  0  0  0  0  0  0  0  0
   -3.7179   -2.3683   -0.5649 H   0  0  0  0  0  0  0  0  0  0  0  0
   -2.2653   -1.5827    0.8135 C   0  0  0  0  0  0  0  0  0  0  0  0
   -1.5629   -2.0822    1.6705 O   0  0  0  0  0  0  0  0  0  0  0  0
   -1.9779   -0.3367    0.2968 N   0  0  0  0  0  0  0  0  0  0  0  0
   -2.7503    0.0434   -0.2420 H   0  0  0  0  0  0  0  0  0  0  0  0
   -0.6630    0.2448   -0.0707 C   0  0  1  0  0  0  0  0  0  0  0  0
   -0.7963    0.7338   -1.0404 H   0  0  0  0  0  0  0  0  0  0  0  0
   -0.3593    1.3090    1.0063 C   0  0  0  0  0  0  0  0  0  0  0  0
   -0.3939    0.8355    1.9935 H   0  0  0  0  0  0  0  0  0  0  0  0
    0.6566    1.6930    0.8695 H   0  0  0  0  0  0  0  0  0  0  0  0
   -1.3284    2.5009    0.9838 C   0  0  0  0  0  0  0  0  0  0  0  0
   -2.3489    2.1511    1.1669 H   0  0  0  0  0  0  0  0  0  0  0  0
   -1.0705    3.1892    1.7947 H   0  0  0  0  0  0  0  0  0  0  0  0
   -1.2800    3.4127   -0.6147 S   0  0  0  0  0  0  0  0  0  0  0  0
    0.3802    4.1994   -0.5922 C   0  0  0  0  0  0  0  0  0  0  0  0
    1.1655    3.4386   -0.6334 H   0  0  0  0  0  0  0  0  0  0  0  0
    0.4924    4.8595   -1.4574 H   0  0  0  0  0  0  0  0  0  0  0  0
    0.5086    4.7914    0.3186 H   0  0  0  0  0  0  0  0  0  0  0  0
    0.6373   -0.5981   -0.2517 C   0  0  0  0  0  0  0  0  0  0  0  0
    1.5340   -0.1111   -0.9242 O   0  0  0  0  0  0  0  0  0  0  0  0
    0.8137   -1.9533   -0.1156 N   0  0  0  0  0  0  0  0  0  0  0  0
    1.4323   -2.2719   -0.8562 H   0  0  0  0  0  0  0  0  0  0  0  0
    1.2531   -2.4321    1.1908 C   0  0  0  0  0  0  0  0  0  0  0  0
    0.9733   -1.7372    1.9903 H   0  0  0  0  0  0  0  0  0  0  0  0
    0.8017   -3.4057    1.4064 H   0  0  0  0  0  0  0  0  0  0  0  0
    2.3420   -2.5415    1.2035 H   0  0  0  0  0  0  0  0  0  0  0  0
  1  2  1  0  0  0  0
  2  3  1  0  0  0  0
  2  4  1  0  0  0  0
  2  5  1  0  0  0  0
  5  6  2  0  0  0  0
  5  7  1  0  0  0  0
  7  8  1  0  0  0  0
  7  9  1  0  0  0  0
  9 10  1  0  0  0  0
  9 11  1  0  0  0  0
  9 22  1  0  0  0  0
 11 12  1  0  0  0  0
 11 13  1  0  0  0  0
 11 14  1  0  0  0  0
 14 15  1  0  0  0  0
 14 16  1  0  0  0  0
 14 17  1  0  0  0  0
 17 18  1  0  0  0  0
 18 19  1  0  0  0  0
 18 20  1  0  0  0  0
 18 21  1  0  0  0  0
 22 23  2  0  0  0  0
 22 24  1  0  0  0  0
 24 25  1  0  0  0  0
 24 26  1  0  0  0  0
 26 27  1  0  0  0  0
 26 28  1  0  0  0  0
 26 29  1  0  0  0  0
M  END
$$$$

  -OEChem-01062216093D

 29 28  0     1  0  0  0  0  0999 V2000
   -4.0791   -2.9041    0.7582 H   0  0  0  0  0  0  0  0  0  0  0  0
   -3.8473   -1.9397    0.2969 C   0  0  0  0  0  0  0  0  0  0  0  0
   -4.5495   -1.1924    0.6744 H   0  0  0  0  0  0  0  0  0  0  0  0
   -3.9694   -2.0314   -0.7852 H   0  0  0  0  0  0  0  0  0  0  0  0
   -2.4244   -1.5284    0.6270 C   0  0  0  0  0  0  0  0  0  0  0  0
   -1.7811   -2.2118    1.4018 O   0  0  0  0  0  0  0  0  0  0  0  0
   -1.9379   -0.3478    0.0980 N   0  0  0  0  0  0  0  0  0  0  0  0
   -2.6070    0.1335   -0.4962 H   0  0  0  0  0  0  0  0  0  0  0  0
   -0.5648    0.2238    0.0660 C   0  0  1  0  0  0  0  0  0  0  0  0
   -0.3923    0.5826   -0.9526 H   0  0  0  0  0  0  0  0  0  0  0  0
   -0.6104    1.4308    1.0369 C   0  0  0  0  0  0  0  0  0  0  0  0
   -0.9451    1.0834    2.0200 H   0  0  0  0  0  0  0  0  0  0  0  0
    0.3918    1.8474    1.1728 H   0  0  0  0  0  0  0  0  0  0  0  0
   -1.5254    2.5705    0.5610 C   0  0  0  0  0  0  0  0  0  0  0  0
   -2.5541    2.2101    0.4702 H   0  0  0  0  0  0  0  0  0  0  0  0
   -1.5258    3.3660    1.3131 H   0  0  0  0  0  0  0  0  0  0  0  0
   -0.9852    3.2755   -1.0509 S   0  0  0  0  0  0  0  0  0  0  0  0
    0.5865    4.1257   -0.6228 C   0  0  0  0  0  0  0  0  0  0  0  0
    1.3411    3.3996   -0.3062 H   0  0  0  0  0  0  0  0  0  0  0  0
    0.9694    4.6647   -1.4944 H   0  0  0  0  0  0  0  0  0  0  0  0
    0.4231    4.8421    0.1876 H   0  0  0  0  0  0  0  0  0  0  0  0
    0.7125   -0.6239    0.3695 C   0  0  0  0  0  0  0  0  0  0  0  0
    1.7945   -0.0496    0.4239 O   0  0  0  0  0  0  0  0  0  0  0  0
    0.7395   -2.0049    0.4001 N   0  0  0  0  0  0  0  0  0  0  0  0
   -0.1607   -2.4422    0.6021 H   0  0  0  0  0  0  0  0  0  0  0  0
    1.9431   -2.7716    0.6987 C   0  0  0  0  0  0  0  0  0  0  0  0
    2.3195   -2.5213    1.6959 H   0  0  0  0  0  0  0  0  0  0  0  0
    1.7234   -3.8431    0.6688 H   0  0  0  0  0  0  0  0  0  0  0  0
    2.7256   -2.5606   -0.0378 H   0  0  0  0  0  0  0  0  0  0  0  0
  1  2  1  0  0  0  0
  2  3  1  0  0  0  0
  2  4  1  0  0  0  0
  2  5  1  0  0  0  0
  5  6  2  0  0  0  0
  5  7  1  0  0  0  0
  7  8  1  0  0  0  0
  7  9  1  0  0  0  0
  9 10  1  0  0  0  0
  9 11  1  0  0  0  0
  9 22  1  0  0  0  0
 11 12  1  0  0  0  0
 11 13  1  0  0  0  0
 11 14  1  0  0  0  0
 14 15  1  0  0  0  0
 14 16  1  0  0  0  0
 14 17  1  0  0  0  0
 17 18  1  0  0  0  0
 18 19  1  0  0  0  0
 18 20  1  0  0  0  0
 18 21  1  0  0  0  0
 22 23  2  0  0  0  0
 22 24  1  0  0  0  0
 24 25  1  0  0  0  0
 24 26  1  0  0  0  0
 26 27  1  0  0  0  0
 26 28  1  0  0  0  0
 26 29  1  0  0  0  0
M  END
$$$$

  -OEChem-01062216093D

 29 28  0     1  0  0  0  0  0999 V2000
   -4.0054   -2.9148    0.8239 H   0  0  0  0  0  0  0  0  0  0  0  0
   -3.7934   -1.9497    0.3545 C   0  0  0  0  0  0  0  0  0  0  0  0
   -4.4616   -1.1978    0.7812 H   0  0  0  0  0  0  0  0  0  0  0  0
   -3.9849   -2.0324   -0.7181 H   0  0  0  0  0  0  0  0  0  0  0  0
   -2.3482   -1.5556    0.5961 C   0  0  0  0  0  0  0  0  0  0  0  0
   -1.6429   -2.2902    1.2618 O   0  0  0  0  0  0  0  0  0  0  0  0
   -1.8922   -0.3579    0.0786 N   0  0  0  0  0  0  0  0  0  0  0  0
   -2.5929    0.1563   -0.4476 H   0  0  0  0  0  0  0  0  0  0  0  0
   -0.5308    0.2394    0.0616 C   0  0  1  0  0  0  0  0  0  0  0  0
   -0.3491    0.6006   -0.9545 H   0  0  0  0  0  0  0  0  0  0  0  0
   -0.6051    1.4488    1.0291 C   0  0  0  0  0  0  0  0  0  0  0  0
   -0.9413    1.0985    2.0106 H   0  0  0  0  0  0  0  0  0  0  0  0
    0.3874    1.8854    1.1710 H   0  0  0  0  0  0  0  0  0  0  0  0
   -1.5334    2.5724    0.5425 C   0  0  0  0  0  0  0  0  0  0  0  0
   -2.5555    2.1962    0.4423 H   0  0  0  0  0  0  0  0  0  0  0  0
   -1.5533    3.3691    1.2930 H   0  0  0  0  0  0  0  0  0  0  0  0
   -0.9874    3.2804   -1.0663 S   0  0  0  0  0  0  0  0  0  0  0  0
    0.5675    4.1567   -0.6293 C   0  0  0  0  0  0  0  0  0  0  0  0
    1.3311    3.4435   -0.3045 H   0  0  0  0  0  0  0  0  0  0  0  0
    0.9485    4.6982   -1.5002 H   0  0  0  0  0  0  0  0  0  0  0  0
    0.3873    4.8734    0.1772 H   0  0  0  0  0  0  0  0  0  0  0  0
    0.7384   -0.6178    0.3717 C   0  0  0  0  0  0  0  0  0  0  0  0
    1.7864   -0.0588    0.6773 O   0  0  0  0  0  0  0  0  0  0  0  0
    0.8072   -1.9691    0.0883 N   0  0  0  0  0  0  0  0  0  0  0  0
   -0.0941   -2.4436    0.1515 H   0  0  0  0  0  0  0  0  0  0  0  0
    1.9959   -2.7673    0.3640 C   0  0  0  0  0  0  0  0  0  0  0  0
    2.2305   -2.7477    1.4334 H   0  0  0  0  0  0  0  0  0  0  0  0
    1.8296   -3.8059    0.0630 H   0  0  0  0  0  0  0  0  0  0  0  0
    2.8564   -2.3822   -0.1933 H   0  0  0  0  0  0  0  0  0  0  0  0
  1  2  1  0  0  0  0
  2  3  1  0  0  0  0
  2  4  1  0  0  0  0
  2  5  1  0  0  0  0
  5  6  2  0  0  0  0
  5  7  1  0  0  0  0
  7  8  1  0  0  0  0
  7  9  1  0  0  0  0
  9 10  1  0  0  0  0
  9 11  1  0  0  0  0
  9 22  1  0  0  0  0
 11 12  1  0  0  0  0
 11 13  1  0  0  0  0
 11 14  1  0  0  0  0
 14 15  1  0  0  0  0
 14 16  1  0  0  0  0
 14 17  1  0  0  0  0
 17 18  1  0  0  0  0
 18 19  1  0  0  0  0
 18 20  1  0  0  0  0
 18 21  1  0  0  0  0
 22 23  2  0  0  0  0
 22 24  1  0  0  0  0
 24 25  1  0  0  0  0
 24 26  1  0  0  0  0
 26 27  1  0  0  0  0
 26 28  1  0  0  0  0
 26 29  1  0  0  0  0
M  END
$$$$

  -OEChem-01062216093D

 29 28  0     1  0  0  0  0  0999 V2000
   -3.9078   -2.9378    0.8857 H   0  0  0  0  0  0  0  0  0  0  0  0
   -3.7235   -1.9701    0.4102 C   0  0  0  0  0  0  0  0  0  0  0  0
   -4.3580   -1.2195    0.8878 H   0  0  0  0  0  0  0  0  0  0  0  0
   -3.9882   -2.0427   -0.6475 H   0  0  0  0  0  0  0  0  0  0  0  0
   -2.2634   -1.5845    0.5560 C   0  0  0  0  0  0  0  0  0  0  0  0
   -1.5037   -2.3580    1.1074 O   0  0  0  0  0  0  0  0  0  0  0  0
   -1.8435   -0.3690    0.0481 N   0  0  0  0  0  0  0  0  0  0  0  0
   -2.5748    0.1709   -0.4056 H   0  0  0  0  0  0  0  0  0  0  0  0
   -0.4975    0.2585    0.0548 C   0  0  1  0  0  0  0  0  0  0  0  0
   -0.3010    0.6229   -0.9572 H   0  0  0  0  0  0  0  0  0  0  0  0
   -0.6013    1.4685    1.0183 C   0  0  0  0  0  0  0  0  0  0  0  0
   -0.9391    1.1163    1.9985 H   0  0  0  0  0  0  0  0  0  0  0  0
    0.3842    1.9200    1.1639 H   0  0  0  0  0  0  0  0  0  0  0  0
   -1.5412    2.5766    0.5184 C   0  0  0  0  0  0  0  0  0  0  0  0
   -2.5558    2.1841    0.4072 H   0  0  0  0  0  0  0  0  0  0  0  0
   -1.5824    3.3748    1.2664 H   0  0  0  0  0  0  0  0  0  0  0  0
   -0.9874    3.2894   -1.0855 S   0  0  0  0  0  0  0  0  0  0  0  0
    0.5484    4.1895   -0.6286 C   0  0  0  0  0  0  0  0  0  0  0  0
    1.3194    3.4883   -0.2959 H   0  0  0  0  0  0  0  0  0  0  0  0
    0.9311    4.7388   -1.4938 H   0  0  0  0  0  0  0  0  0  0  0  0
    0.3474    4.9012    0.1774 H   0  0  0  0  0  0  0  0  0  0  0  0
    0.7578   -0.6090    0.3835 C   0  0  0  0  0  0  0  0  0  0  0  0
    1.7216   -0.1220    0.9654 O   0  0  0  0  0  0  0  0  0  0  0  0
    0.9180   -1.8578   -0.1892 N   0  0  0  0  0  0  0  0  0  0  0  0
    0.0353   -2.3413   -0.3455 H   0  0  0  0  0  0  0  0  0  0  0  0
    2.0839   -2.6900    0.0831 C   0  0  0  0  0  0  0  0  0  0  0  0
    2.1469   -2.9228    1.1513 H   0  0  0  0  0  0  0  0  0  0  0  0
    2.0147   -3.6289   -0.4743 H   0  0  0  0  0  0  0  0  0  0  0  0
    3.0023   -2.1770   -0.2213 H   0  0  0  0  0  0  0  0  0  0  0  0
  1  2  1  0  0  0  0
  2  3  1  0  0  0  0
  2  4  1  0  0  0  0
  2  5  1  0  0  0  0
  5  6  2  0  0  0  0
  5  7  1  0  0  0  0
  7  8  1  0  0  0  0
  7  9  1  0  0  0  0
  9 10  1  0  0  0  0
  9 11  1  0  0  0  0
  9 22  1  0  0  0  0
 11 12  1  0  0  0  0
 11 13  1  0  0  0  0
 11 14  1  0  0  0  0
 14 15  1  0  0  0  0
 14 16  1  0  0  0  0
 14 17  1  0  0  0  0
 17 18  1  0  0  0  0
 18 19  1  0  0  0  0
 18 20  1  0  0  0  0
 18 21  1  0  0  0  0
 22 23  2  0  0  0  0
 22 24  1  0  0  0  0
 24 25  1  0  0  0  0
 24 26  1  0  0  0  0
 26 27  1  0  0  0  0
 26 28  1  0  0  0  0
 26 29  1  0  0  0  0
M  END
$$$$

  -OEChem-01062216093D

 29 28  0     1  0  0  0  0  0999 V2000
   -3.7976   -2.9790    0.9245 H   0  0  0  0  0  0  0  0  0  0  0  0
   -3.6466   -2.0077    0.4446 C   0  0  0  0  0  0  0  0  0  0  0  0
   -4.2740   -1.2679    0.9474 H   0  0  0  0  0  0  0  0  0  0  0  0
   -3.9487   -2.0822   -0.6028 H   0  0  0  0  0  0  0  0  0  0  0  0
   -2.1879   -1.6005    0.5360 C   0  0  0  0  0  0  0  0  0  0  0  0
   -1.3916   -2.3750    1.0315 O   0  0  0  0  0  0  0  0  0  0  0  0
   -1.8076   -0.3724    0.0255 N   0  0  0  0  0  0  0  0  0  0  0  0
   -2.5640    0.1731   -0.3765 H   0  0  0  0  0  0  0  0  0  0  0  0
   -0.4756    0.2806    0.0449 C   0  0  1  0  0  0  0  0  0  0  0  0
   -0.2711    0.6500   -0.9637 H   0  0  0  0  0  0  0  0  0  0  0  0
   -0.5914    1.4872    1.0084 C   0  0  0  0  0  0  0  0  0  0  0  0
   -0.9266    1.1307    1.9882 H   0  0  0  0  0  0  0  0  0  0  0  0
    0.3932    1.9423    1.1521 H   0  0  0  0  0  0  0  0  0  0  0  0
   -1.5417    2.5867    0.5105 C   0  0  0  0  0  0  0  0  0  0  0  0
   -2.5524    2.1838    0.3994 H   0  0  0  0  0  0  0  0  0  0  0  0
   -1.5904    3.3828    1.2602 H   0  0  0  0  0  0  0  0  0  0  0  0
   -0.9970    3.3088   -1.0923 S   0  0  0  0  0  0  0  0  0  0  0  0
    0.5295    4.2236   -0.6341 C   0  0  0  0  0  0  0  0  0  0  0  0
    1.3109    3.5294   -0.3110 H   0  0  0  0  0  0  0  0  0  0  0  0
    0.9010    4.7861   -1.4958 H   0  0  0  0  0  0  0  0  0  0  0  0
    0.3227    4.9255    0.1790 H   0  0  0  0  0  0  0  0  0  0  0  0
    0.7674   -0.5938    0.3895 C   0  0  0  0  0  0  0  0  0  0  0  0
    1.5916   -0.2364    1.2250 O   0  0  0  0  0  0  0  0  0  0  0  0
    1.0747   -1.6802   -0.4103 N   0  0  0  0  0  0  0  0  0  0  0  0
    0.2742   -2.0889   -0.8839 H   0  0  0  0  0  0  0  0  0  0  0  0
    2.1996   -2.5603   -0.1178 C   0  0  0  0  0  0  0  0  0  0  0  0
    2.0662   -3.0389    0.8583 H   0  0  0  0  0  0  0  0  0  0  0  0
    2.2762   -3.3407   -0.8808 H   0  0  0  0  0  0  0  0  0  0  0  0
    3.1382   -1.9962   -0.1087 H   0  0  0  0  0  0  0  0  0  0  0  0
  1  2  1  0  0  0  0
  2  3  1  0  0  0  0
  2  4  1  0  0  0  0
  2  5  1  0  0  0  0
  5  6  2  0  0  0  0
  5  7  1  0  0  0  0
  7  8  1  0  0  0  0
  7  9  1  0  0  0  0
  9 10  1  0  0  0  0
  9 11  1  0  0  0  0
  9 22  1  0  0  0  0
 11 12  1  0  0  0  0
 11 13  1  0  0  0  0
 11 14  1  0  0  0  0
 14 15  1  0  0  0  0
 14 16  1  0  0  0  0
 14 17  1  0  0  0  0
 17 18  1  0  0  0  0
 18 19  1  0  0  0  0
 18 20  1  0  0  0  0
 18 21  1  0  0  0  0
 22 23  2  0  0  0  0
 22 24  1  0  0  0  0
 24 25  1  0  0  0  0
 24 26  1  0  0  0  0
 26 27  1  0  0  0  0
 26 28  1  0  0  0  0
 26 29  1  0  0  0  0
M  END
$$$$

  -OEChem-01062216093D

 29 28  0     1  0  0  0  0  0999 V2000
   -3.7460   -2.9950    0.9542 H   0  0  0  0  0  0  0  0  0  0  0  0
   -3.6123   -2.0219    0.4725 C   0  0  0  0  0  0  0  0  0  0  0  0
   -4.2194   -1.2837    1.0020 H   0  0  0  0  0  0  0  0  0  0  0  0
   -3.9546   -2.0924   -0.5627 H   0  0  0  0  0  0  0  0  0  0  0  0
   -2.1505   -1.6160    0.5103 C   0  0  0  0  0  0  0  0  0  0  0  0
   -1.3346   -2.4041    0.9499 O   0  0  0  0  0  0  0  0  0  0  0  0
   -1.7899   -0.3817   -0.0017 N   0  0  0  0  0  0  0  0  0  0  0  0
   -2.5615    0.1727   -0.3596 H   0  0  0  0  0  0  0  0  0  0  0  0
   -0.4671    0.2866    0.0355 C   0  0  1  0  0  0  0  0  0  0  0  0
   -0.2517    0.6606   -0.9690 H   0  0  0  0  0  0  0  0  0  0  0  0
   -0.5941    1.4898    0.9998 C   0  0  0  0  0  0  0  0  0  0  0  0
   -0.9358    1.1300    1.9762 H   0  0  0  0  0  0  0  0  0  0  0  0
    0.3912    1.9419    1.1510 H   0  0  0  0  0  0  0  0  0  0  0  0
   -1.5461    2.5859    0.4984 C   0  0  0  0  0  0  0  0  0  0  0  0
   -2.5538    2.1780    0.3795 H   0  0  0  0  0  0  0  0  0  0  0  0
   -1.6035    3.3802    1.2497 H   0  0  0  0  0  0  0  0  0  0  0  0
   -0.9938    3.3133   -1.0995 S   0  0  0  0  0  0  0  0  0  0  0  0
    0.5257    4.2341   -0.6292 C   0  0  0  0  0  0  0  0  0  0  0  0
    1.3051    3.5437   -0.2939 H   0  0  0  0  0  0  0  0  0  0  0  0
    0.9054    4.7934   -1.4895 H   0  0  0  0  0  0  0  0  0  0  0  0
    0.3085    4.9398    0.1780 H   0  0  0  0  0  0  0  0  0  0  0  0
    0.7681   -0.5855    0.4021 C   0  0  0  0  0  0  0  0  0  0  0  0
    1.4287   -0.3731    1.4140 O   0  0  0  0  0  0  0  0  0  0  0  0
    1.2697   -1.4638   -0.5419 N   0  0  0  0  0  0  0  0  0  0  0  0
    0.6121   -1.7480   -1.2609 H   0  0  0  0  0  0  0  0  0  0  0  0
    2.3875   -2.3537   -0.2532 C   0  0  0  0  0  0  0  0  0  0  0  0
    2.1376   -3.0219    0.5778 H   0  0  0  0  0  0  0  0  0  0  0  0
    2.6222   -2.9626   -1.1313 H   0  0  0  0  0  0  0  0  0  0  0  0
    3.2796   -1.7771    0.0135 H   0  0  0  0  0  0  0  0  0  0  0  0
  1  2  1  0  0  0  0
  2  3  1  0  0  0  0
  2  4  1  0  0  0  0
  2  5  1  0  0  0  0
  5  6  2  0  0  0  0
  5  7  1  0  0  0  0
  7  8  1  0  0  0  0
  7  9  1  0  0  0  0
  9 10  1  0  0  0  0
  9 11  1  0  0  0  0
  9 22  1  0  0  0  0
 11 12  1  0  0  0  0
 11 13  1  0  0  0  0
 11 14  1  0  0  0  0
 14 15  1  0  0  0  0
 14 16  1  0  0  0  0
 14 17  1  0  0  0  0
 17 18  1  0  0  0  0
 18 19  1  0  0  0  0
 18 20  1  0  0  0  0
 18 21  1  0  0  0  0
 22 23  2  0  0  0  0
 22 24  1  0  0  0  0
 24 25  1  0  0  0  0
 24 26  1  0  0  0  0
 26 27  1  0  0  0  0
 26 28  1  0  0  0  0
 26 29  1  0  0  0  0
M  END
$$$$

  -OEChem-01062216093D

 29 28  0     1  0  0  0  0  0999 V2000
   -3.7498   -2.9865    0.9841 H   0  0  0  0  0  0  0  0  0  0  0  0
   -3.6196   -2.0162    0.4962 C   0  0  0  0  0  0  0  0  0  0  0  0
   -4.2000   -1.2695    1.0435 H   0  0  0  0  0  0  0  0  0  0  0  0
   -3.9955   -2.0840   -0.5275 H   0  0  0  0  0  0  0  0  0  0  0  0
   -2.1520   -1.6300    0.4862 C   0  0  0  0  0  0  0  0  0  0  0  0
   -1.3303   -2.4416    0.8686 O   0  0  0  0  0  0  0  0  0  0  0  0
   -1.7935   -0.3953   -0.0265 N   0  0  0  0  0  0  0  0  0  0  0  0
   -2.5712    0.1752   -0.3427 H   0  0  0  0  0  0  0  0  0  0  0  0
   -0.4725    0.2736    0.0257 C   0  0  1  0  0  0  0  0  0  0  0  0
   -0.2496    0.6509   -0.9760 H   0  0  0  0  0  0  0  0  0  0  0  0
   -0.6024    1.4744    0.9912 C   0  0  0  0  0  0  0  0  0  0  0  0
   -0.9552    1.1141    1.9635 H   0  0  0  0  0  0  0  0  0  0  0  0
    0.3854    1.9169    1.1534 H   0  0  0  0  0  0  0  0  0  0  0  0
   -1.5468    2.5755    0.4872 C   0  0  0  0  0  0  0  0  0  0  0  0
   -2.5551    2.1714    0.3602 H   0  0  0  0  0  0  0  0  0  0  0  0
   -1.6070    3.3674    1.2407 H   0  0  0  0  0  0  0  0  0  0  0  0
   -0.9814    3.3064   -1.1049 S   0  0  0  0  0  0  0  0  0  0  0  0
    0.5383    4.2203   -0.6220 C   0  0  0  0  0  0  0  0  0  0  0  0
    1.3135    3.5269   -0.2834 H   0  0  0  0  0  0  0  0  0  0  0  0
    0.9252    4.7810   -1.4781 H   0  0  0  0  0  0  0  0  0  0  0  0
    0.3174    4.9243    0.1858 H   0  0  0  0  0  0  0  0  0  0  0  0
    0.7602   -0.5930    0.4100 C   0  0  0  0  0  0  0  0  0  0  0  0
    1.2628   -0.5262    1.5273 O   0  0  0  0  0  0  0  0  0  0  0  0
    1.4690   -1.2324   -0.5918 N   0  0  0  0  0  0  0  0  0  0  0  0
    0.9690   -1.3832   -1.4621 H   0  0  0  0  0  0  0  0  0  0  0  0
    2.6293   -2.0696   -0.3122 C   0  0  0  0  0  0  0  0  0  0  0  0
    2.3513   -2.8989    0.3469 H   0  0  0  0  0  0  0  0  0  0  0  0
    3.0300   -2.4834   -1.2424 H   0  0  0  0  0  0  0  0  0  0  0  0
    3.4183   -1.4841    0.1715 H   0  0  0  0  0  0  0  0  0  0  0  0
  1  2  1  0  0  0  0
  2  3  1  0  0  0  0
  2  4  1  0  0  0  0
  2  5  1  0  0  0  0
  5  6  2  0  0  0  0
  5  7  1  0  0  0  0
  7  8  1  0  0  0  0
  7  9  1  0  0  0  0
  9 10  1  0  0  0  0
  9 11  1  0  0  0  0
  9 22  1  0  0  0  0
 11 12  1  0  0  0  0
 11 13  1  0  0  0  0
 11 14  1  0  0  0  0
 14 15  1  0  0  0  0
 14 16  1  0  0  0  0
 14 17  1  0  0  0  0
 17 18  1  0  0  0  0
 18 19  1  0  0  0  0
 18 20  1  0  0  0  0
 18 21  1  0  0  0  0
 22 23  2  0  0  0  0
 22 24  1  0  0  0  0
 24 25  1  0  0  0  0
 24 26  1  0  0  0  0
 26 27  1  0  0  0  0
 26 28  1  0  0  0  0
 26 29  1  0  0  0  0
M  END
$$$$

  -OEChem-01062216093D

 29 28  0     1  0  0  0  0  0999 V2000
   -3.7643   -2.9829    0.9865 H   0  0  0  0  0  0  0  0  0  0  0  0
   -3.6360   -1.9985    0.5273 C   0  0  0  0  0  0  0  0  0  0  0  0
   -4.1638   -1.2588    1.1337 H   0  0  0  0  0  0  0  0  0  0  0  0
   -4.0707   -2.0181   -0.4748 H   0  0  0  0  0  0  0  0  0  0  0  0
   -2.1619   -1.6481    0.4477 C   0  0  0  0  0  0  0  0  0  0  0  0
   -1.3415   -2.4932    0.7517 O   0  0  0  0  0  0  0  0  0  0  0  0
   -1.8001   -0.4133   -0.0620 N   0  0  0  0  0  0  0  0  0  0  0  0
   -2.5814    0.1758   -0.3307 H   0  0  0  0  0  0  0  0  0  0  0  0
   -0.4789    0.2529    0.0066 C   0  0  1  0  0  0  0  0  0  0  0  0
   -0.2508    0.6344   -0.9920 H   0  0  0  0  0  0  0  0  0  0  0  0
   -0.6103    1.4483    0.9775 C   0  0  0  0  0  0  0  0  0  0  0  0
   -0.9740    1.0843    1.9447 H   0  0  0  0  0  0  0  0  0  0  0  0
    0.3795    1.8818    1.1515 H   0  0  0  0  0  0  0  0  0  0  0  0
   -1.5462    2.5561    0.4725 C   0  0  0  0  0  0  0  0  0  0  0  0
   -2.5551    2.1571    0.3350 H   0  0  0  0  0  0  0  0  0  0  0  0
   -1.6088    3.3446    1.2295 H   0  0  0  0  0  0  0  0  0  0  0  0
   -0.9645    3.2919   -1.1111 S   0  0  0  0  0  0  0  0  0  0  0  0
    0.5551    4.1957   -0.6102 C   0  0  0  0  0  0  0  0  0  0  0  0
    1.3209    3.4971   -0.2612 H   0  0  0  0  0  0  0  0  0  0  0  0
    0.9570    4.7532   -1.4614 H   0  0  0  0  0  0  0  0  0  0  0  0
    0.3287    4.9020    0.1940 H   0  0  0  0  0  0  0  0  0  0  0  0
    0.7541   -0.6057    0.4057 C   0  0  0  0  0  0  0  0  0  0  0  0
    1.1054   -0.6942    1.5779 O   0  0  0  0  0  0  0  0  0  0  0  0
    1.6573   -0.9841   -0.5725 N   0  0  0  0  0  0  0  0  0  0  0  0
    1.3169   -0.9785   -1.5286 H   0  0  0  0  0  0  0  0  0  0  0  0
    2.8639   -1.7459   -0.2725 C   0  0  0  0  0  0  0  0  0  0  0  0
    2.6066   -2.6959    0.2080 H   0  0  0  0  0  0  0  0  0  0  0  0
    3.4147   -1.9601   -1.1932 H   0  0  0  0  0  0  0  0  0  0  0  0
    3.5195   -1.1788    0.3969 H   0  0  0  0  0  0  0  0  0  0  0  0
  1  2  1  0  0  0  0
  2  3  1  0  0  0  0
  2  4  1  0  0  0  0
  2  5  1  0  0  0  0
  5  6  2  0  0  0  0
  5  7  1  0  0  0  0
  7  8  1  0  0  0  0
  7  9  1  0  0  0  0
  9 10  1  0  0  0  0
  9 11  1  0  0  0  0
  9 22  1  0  0  0  0
 11 12  1  0  0  0  0
 11 13  1  0  0  0  0
 11 14  1  0  0  0  0
 14 15  1  0  0  0  0
 14 16  1  0  0  0  0
 14 17  1  0  0  0  0
 17 18  1  0  0  0  0
 18 19  1  0  0  0  0
 18 20  1  0  0  0  0
 18 21  1  0  0  0  0
 22 23  2  0  0  0  0
 22 24  1  0  0  0  0
 24 25  1  0  0  0  0
 24 26  1  0  0  0  0
 26 27  1  0  0  0  0
 26 28  1  0  0  0  0
 26 29  1  0  0  0  0
M  END
$$$$

  -OEChem-01062216093D

 29 28  0     1  0  0  0  0  0999 V2000
   -3.7796   -2.9653    1.0185 H   0  0  0  0  0  0  0  0  0  0  0  0
   -3.6511   -1.9809    0.5590 C   0  0  0  0  0  0  0  0  0  0  0  0
   -4.1268   -1.2328    1.1976 H   0  0  0  0  0  0  0  0  0  0  0  0
   -4.1389   -1.9822   -0.4186 H   0  0  0  0  0  0  0  0  0  0  0  0
   -2.1746   -1.6675    0.4021 C   0  0  0  0  0  0  0  0  0  0  0  0
   -1.3637   -2.5510    0.6055 O   0  0  0  0  0  0  0  0  0  0  0  0
   -1.8079   -0.4323   -0.1025 N   0  0  0  0  0  0  0  0  0  0  0  0
   -2.5903    0.1777   -0.3147 H   0  0  0  0  0  0  0  0  0  0  0  0
   -0.4845    0.2277   -0.0179 C   0  0  1  0  0  0  0  0  0  0  0  0
   -0.2516    0.6130   -1.0139 H   0  0  0  0  0  0  0  0  0  0  0  0
   -0.6142    1.4154    0.9618 C   0  0  0  0  0  0  0  0  0  0  0  0
   -0.9868    1.0452    1.9232 H   0  0  0  0  0  0  0  0  0  0  0  0
    0.3777    1.8399    1.1465 H   0  0  0  0  0  0  0  0  0  0  0  0
   -1.5397    2.5341    0.4614 C   0  0  0  0  0  0  0  0  0  0  0  0
   -2.5505    2.1431    0.3142 H   0  0  0  0  0  0  0  0  0  0  0  0
   -1.6023    3.3159    1.2252 H   0  0  0  0  0  0  0  0  0  0  0  0
   -0.9437    3.2802   -1.1123 S   0  0  0  0  0  0  0  0  0  0  0  0
    0.5794    4.1702   -0.5976 C   0  0  0  0  0  0  0  0  0  0  0  0
    1.3385    3.4641   -0.2492 H   0  0  0  0  0  0  0  0  0  0  0  0
    0.9891    4.7300   -1.4437 H   0  0  0  0  0  0  0  0  0  0  0  0
    0.3536    4.8733    0.2098 H   0  0  0  0  0  0  0  0  0  0  0  0
    0.7493   -0.6238    0.3920 C   0  0  0  0  0  0  0  0  0  0  0  0
    0.9662   -0.8727    1.5734 O   0  0  0  0  0  0  0  0  0  0  0  0
    1.8128   -0.7346   -0.4881 N   0  0  0  0  0  0  0  0  0  0  0  0
    1.6161   -0.5582   -1.4681 H   0  0  0  0  0  0  0  0  0  0  0  0
    3.0584   -1.4081   -0.1389 C   0  0  0  0  0  0  0  0  0  0  0  0
    2.8625   -2.4433    0.1605 H   0  0  0  0  0  0  0  0  0  0  0  0
    3.7371   -1.4173   -0.9970 H   0  0  0  0  0  0  0  0  0  0  0  0
    3.5555   -0.8902    0.6883 H   0  0  0  0  0  0  0  0  0  0  0  0
  1  2  1  0  0  0  0
  2  3  1  0  0  0  0
  2  4  1  0  0  0  0
  2  5  1  0  0  0  0
  5  6  2  0  0  0  0
  5  7  1  0  0  0  0
  7  8  1  0  0  0  0
  7  9  1  0  0  0  0
  9 10  1  0  0  0  0
  9 11  1  0  0  0  0
  9 22  1  0  0  0  0
 11 12  1  0  0  0  0
 11 13  1  0  0  0  0
 11 14  1  0  0  0  0
 14 15  1  0  0  0  0
 14 16  1  0  0  0  0
 14 17  1  0  0  0  0
 17 18  1  0  0  0  0
 18 19  1  0  0  0  0
 18 20  1  0  0  0  0
 18 21  1  0  0  0  0
 22 23  2  0  0  0  0
 22 24  1  0  0  0  0
 24 25  1  0  0  0  0
 24 26  1  0  0  0  0
 26 27  1  0  0  0  0
 26 28  1  0  0  0  0
 26 29  1  0  0  0  0
M  END
$$$$

  -OEChem-01062216093D

 29 28  0     1  0  0  0  0  0999 V2000
   -3.7734   -2.9536    1.0321 H   0  0  0  0  0  0  0  0  0  0  0  0
   -3.6450   -1.9515    0.6133 C   0  0  0  0  0  0  0  0  0  0  0  0
   -4.0302   -1.2219    1.3294 H   0  0  0  0  0  0  0  0  0  0  0  0
   -4.2163   -1.8811   -0.3152 H   0  0  0  0  0  0  0  0  0  0  0  0
   -2.1765   -1.6852    0.3411 C   0  0  0  0  0  0  0  0  0  0  0  0
   -1.3894   -2.6105    0.4098 O   0  0  0  0  0  0  0  0  0  0  0  0
   -1.8079   -0.4498   -0.1601 N   0  0  0  0  0  0  0  0  0  0  0  0
   -2.5900    0.1809   -0.2970 H   0  0  0  0  0  0  0  0  0  0  0  0
   -0.4828    0.2038   -0.0562 C   0  0  1  0  0  0  0  0  0  0  0  0
   -0.2403    0.5924   -1.0486 H   0  0  0  0  0  0  0  0  0  0  0  0
   -0.6200    1.3812    0.9345 C   0  0  0  0  0  0  0  0  0  0  0  0
   -1.0049    1.0015    1.8871 H   0  0  0  0  0  0  0  0  0  0  0  0
    0.3705    1.8010    1.1361 H   0  0  0  0  0  0  0  0  0  0  0  0
   -1.5370    2.5076    0.4357 C   0  0  0  0  0  0  0  0  0  0  0  0
   -2.5474    2.1219    0.2723 H   0  0  0  0  0  0  0  0  0  0  0  0
   -1.6054    3.2827    1.2059 H   0  0  0  0  0  0  0  0  0  0  0  0
   -0.9182    3.2660   -1.1230 S   0  0  0  0  0  0  0  0  0  0  0  0
    0.6012    4.1446   -0.5788 C   0  0  0  0  0  0  0  0  0  0  0  0
    1.3551    3.4323   -0.2319 H   0  0  0  0  0  0  0  0  0  0  0  0
    1.0212    4.7157   -1.4121 H   0  0  0  0  0  0  0  0  0  0  0  0
    0.3678    4.8363    0.2360 H   0  0  0  0  0  0  0  0  0  0  0  0
    0.7502   -0.6397    0.3691 C   0  0  0  0  0  0  0  0  0  0  0  0
    0.8460   -1.0538    1.5193 O   0  0  0  0  0  0  0  0  0  0  0  0
    1.9312   -0.4940   -0.3399 N   0  0  0  0  0  0  0  0  0  0  0  0
    1.8581   -0.1390   -1.2880 H   0  0  0  0  0  0  0  0  0  0  0  0
    3.1900   -1.0969    0.0835 C   0  0  0  0  0  0  0  0  0  0  0  0
    3.0747   -2.1794    0.2038 H   0  0  0  0  0  0  0  0  0  0  0  0
    3.9680   -0.9124   -0.6632 H   0  0  0  0  0  0  0  0  0  0  0  0
    3.5182   -0.6697    1.0368 H   0  0  0  0  0  0  0  0  0  0  0  0
  1  2  1  0  0  0  0
  2  3  1  0  0  0  0
  2  4  1  0  0  0  0
  2  5  1  0  0  0  0
  5  6  2  0  0  0  0
  5  7  1  0  0  0  0
  7  8  1  0  0  0  0
  7  9  1  0  0  0  0
  9 10  1  0  0  0  0
  9 11  1  0  0  0  0
  9 22  1  0  0  0  0
 11 12  1  0  0  0  0
 11 13  1  0  0  0  0
 11 14  1  0  0  0  0
 14 15  1  0  0  0  0
 14 16  1  0  0  0  0
 14 17  1  0  0  0  0
 17 18  1  0  0  0  0
 18 19  1  0  0  0  0
 18 20  1  0  0  0  0
 18 21  1  0  0  0  0
 22 23  2  0  0  0  0
 22 24  1  0  0  0  0
 24 25  1  0  0  0  0
 24 26  1  0  0  0  0
 26 27  1  0  0  0  0
 26 28  1  0  0  0  0
 26 29  1  0  0  0  0
M  END
$$$$

  -OEChem-01062216093D

 29 28  0     1  0  0  0  0  0999 V2000
   -3.7505   -2.9417    1.0567 H   0  0  0  0  0  0  0  0  0  0  0  0
   -3.6201   -1.9240    0.6780 C   0  0  0  0  0  0  0  0  0  0  0  0
   -3.9018   -1.2198    1.4644 H   0  0  0  0  0  0  0  0  0  0  0  0
   -4.2748   -1.7818   -0.1850 H   0  0  0  0  0  0  0  0  0  0  0  0
   -2.1744   -1.7000    0.2762 C   0  0  0  0  0  0  0  0  0  0  0  0
   -1.4307   -2.6597    0.1921 O   0  0  0  0  0  0  0  0  0  0  0  0
   -1.8037   -0.4644   -0.2211 N   0  0  0  0  0  0  0  0  0  0  0  0
   -2.5813    0.1825   -0.2870 H   0  0  0  0  0  0  0  0  0  0  0  0
   -0.4761    0.1815   -0.0965 C   0  0  1  0  0  0  0  0  0  0  0  0
   -0.2209    0.5742   -1.0842 H   0  0  0  0  0  0  0  0  0  0  0  0
   -0.6262    1.3484    0.9050 C   0  0  0  0  0  0  0  0  0  0  0  0
   -1.0238    0.9583    1.8485 H   0  0  0  0  0  0  0  0  0  0  0  0
    0.3606    1.7669    1.1261 H   0  0  0  0  0  0  0  0  0  0  0  0
   -1.5351    2.4809    0.4050 C   0  0  0  0  0  0  0  0  0  0  0  0
   -2.5437    2.0991    0.2230 H   0  0  0  0  0  0  0  0  0  0  0  0
   -1.6137    3.2478    1.1822 H   0  0  0  0  0  0  0  0  0  0  0  0
   -0.8934    3.2547   -1.1364 S   0  0  0  0  0  0  0  0  0  0  0  0
    0.6192    4.1274   -0.5647 C   0  0  0  0  0  0  0  0  0  0  0  0
    1.3661    3.4118   -0.2097 H   0  0  0  0  0  0  0  0  0  0  0  0
    1.0532    4.7018   -1.3886 H   0  0  0  0  0  0  0  0  0  0  0  0
    0.3746    4.8159    0.2496 H   0  0  0  0  0  0  0  0  0  0  0  0
    0.7576   -0.6532    0.3443 C   0  0  0  0  0  0  0  0  0  0  0  0
    0.7542   -1.2424    1.4188 O   0  0  0  0  0  0  0  0  0  0  0  0
    2.0031   -0.2767   -0.1331 N   0  0  0  0  0  0  0  0  0  0  0  0
    2.0245    0.2556   -0.9971 H   0  0  0  0  0  0  0  0  0  0  0  0
    3.2539   -0.8285    0.3770 C   0  0  0  0  0  0  0  0  0  0  0  0
    3.2528   -1.9206    0.2936 H   0  0  0  0  0  0  0  0  0  0  0  0
    4.1010   -0.4387   -0.1951 H   0  0  0  0  0  0  0  0  0  0  0  0
    3.3931   -0.5559    1.4285 H   0  0  0  0  0  0  0  0  0  0  0  0
  1  2  1  0  0  0  0
  2  3  1  0  0  0  0
  2  4  1  0  0  0  0
  2  5  1  0  0  0  0
  5  6  2  0  0  0  0
  5  7  1  0  0  0  0
  7  8  1  0  0  0  0
  7  9  1  0  0  0  0
  9 10  1  0  0  0  0
  9 11  1  0  0  0  0
  9 22  1  0  0  0  0
 11 12  1  0  0  0  0
 11 13  1  0  0  0  0
 11 14  1  0  0  0  0
 14 15  1  0  0  0  0
 14 16  1  0  0  0  0
 14 17  1  0  0  0  0
 17 18  1  0  0  0  0
 18 19  1  0  0  0  0
 18 20  1  0  0  0  0
 18 21  1  0  0  0  0
 22 23  2  0  0  0  0
 22 24  1  0  0  0  0
 24 25  1  0  0  0  0
 24 26  1  0  0  0  0
 26 27  1  0  0  0  0
 26 28  1  0  0  0  0
 26 29  1  0  0  0  0
M  END
$$$$

  -OEChem-01062216093D

 29 28  0     1  0  0  0  0  0999 V2000
   -3.4678   -3.2029    0.8939 H   0  0  0  0  0  0  0  0  0  0  0  0
   -3.3146   -2.3332    0.2487 C   0  0  0  0  0  0  0  0  0  0  0  0
   -4.2703   -1.8228    0.1092 H   0  0  0  0  0  0  0  0  0  0  0  0
   -2.9448   -2.6782   -0.7196 H   0  0  0  0  0  0  0  0  0  0  0  0
   -2.3072   -1.3911    0.8798 C   0  0  0  0  0  0  0  0  0  0  0  0
   -2.0168   -1.5165    2.0579 O   0  0  0  0  0  0  0  0  0  0  0  0
   -1.9519   -0.2253    0.2297 N   0  0  0  0  0  0  0  0  0  0  0  0
   -2.4586   -0.1084   -0.6417 H   0  0  0  0  0  0  0  0  0  0  0  0
   -0.5761    0.3256    0.1929 C   0  0  1  0  0  0  0  0  0  0  0  0
   -0.3775    0.6358   -0.8366 H   0  0  0  0  0  0  0  0  0  0  0  0
   -0.5903    1.5631    1.1180 C   0  0  0  0  0  0  0  0  0  0  0  0
   -0.9467    1.2589    2.1088 H   0  0  0  0  0  0  0  0  0  0  0  0
    0.4247    1.9476    1.2482 H   0  0  0  0  0  0  0  0  0  0  0  0
   -1.4768    2.7024    0.5938 C   0  0  0  0  0  0  0  0  0  0  0  0
   -2.5112    2.3552    0.5082 H   0  0  0  0  0  0  0  0  0  0  0  0
   -1.4702    3.5260    1.3149 H   0  0  0  0  0  0  0  0  0  0  0  0
   -0.9085    3.3270   -1.0429 S   0  0  0  0  0  0  0  0  0  0  0  0
    0.6802    4.1589   -0.6439 C   0  0  0  0  0  0  0  0  0  0  0  0
    1.4164    3.4336   -0.2875 H   0  0  0  0  0  0  0  0  0  0  0  0
    1.0796    4.6488   -1.5371 H   0  0  0  0  0  0  0  0  0  0  0  0
    0.5271    4.9166    0.1304 H   0  0  0  0  0  0  0  0  0  0  0  0
    0.6492   -0.5535    0.5866 C   0  0  0  0  0  0  0  0  0  0  0  0
    0.5759   -1.7545    0.8046 O   0  0  0  0  0  0  0  0  0  0  0  0
    1.9062   -0.0864    0.2346 N   0  0  0  0  0  0  0  0  0  0  0  0
    1.9741    0.8722   -0.0915 H   0  0  0  0  0  0  0  0  0  0  0  0
    3.1199   -0.8945    0.2967 C   0  0  0  0  0  0  0  0  0  0  0  0
    3.0634   -1.7260   -0.4136 H   0  0  0  0  0  0  0  0  0  0  0  0
    3.9937   -0.2851    0.0477 H   0  0  0  0  0  0  0  0  0  0  0  0
    3.2591   -1.3008    1.3042 H   0  0  0  0  0  0  0  0  0  0  0  0
  1  2  1  0  0  0  0
  2  3  1  0  0  0  0
  2  4  1  0  0  0  0
  2  5  1  0  0  0  0
  5  6  2  0  0  0  0
  5  7  1  0  0  0  0
  7  8  1  0  0  0  0
  7  9  1  0  0  0  0
  9 10  1  0  0  0  0
  9 11  1  0  0  0  0
  9 22  1  0  0  0  0
 11 12  1  0  0  0  0
 11 13  1  0  0  0  0
 11 14  1  0  0  0  0
 14 15  1  0  0  0  0
 14 16  1  0  0  0  0
 14 17  1  0  0  0  0
 17 18  1  0  0  0  0
 18 19  1  0  0  0  0
 18 20  1  0  0  0  0
 18 21  1  0  0  0  0
 22 23  2  0  0  0  0
 22 24  1  0  0  0  0
 24 25  1  0  0  0  0
 24 26  1  0  0  0  0
 26 27  1  0  0  0  0
 26 28  1  0  0  0  0
 26 29  1  0  0  0  0
M  END
$$$$

  -OEChem-01062216093D

 29 28  0     1  0  0  0  0  0999 V2000
   -3.4193   -3.2156    0.9151 H   0  0  0  0  0  0  0  0  0  0  0  0
   -3.3265   -2.3182    0.2971 C   0  0  0  0  0  0  0  0  0  0  0  0
   -4.2714   -1.7707    0.3236 H   0  0  0  0  0  0  0  0  0  0  0  0
   -3.1150   -2.6225   -0.7307 H   0  0  0  0  0  0  0  0  0  0  0  0
   -2.2021   -1.4431    0.8168 C   0  0  0  0  0  0  0  0  0  0  0  0
   -1.6681   -1.7082    1.8828 O   0  0  0  0  0  0  0  0  0  0  0  0
   -1.9111   -0.2476    0.1846 N   0  0  0  0  0  0  0  0  0  0  0  0
   -2.4628   -0.0972   -0.6539 H   0  0  0  0  0  0  0  0  0  0  0  0
   -0.5544    0.3458    0.1534 C   0  0  1  0  0  0  0  0  0  0  0  0
   -0.4494    0.9013   -0.7822 H   0  0  0  0  0  0  0  0  0  0  0  0
   -0.4627    1.3263    1.3472 C   0  0  0  0  0  0  0  0  0  0  0  0
   -0.7012    0.7900    2.2721 H   0  0  0  0  0  0  0  0  0  0  0  0
    0.5582    1.7013    1.4509 H   0  0  0  0  0  0  0  0  0  0  0  0
   -1.4034    2.5321    1.2083 C   0  0  0  0  0  0  0  0  0  0  0  0
   -2.4394    2.1831    1.1522 H   0  0  0  0  0  0  0  0  0  0  0  0
   -1.3202    3.1607    2.1006 H   0  0  0  0  0  0  0  0  0  0  0  0
   -1.0256    3.5454   -0.2826 S   0  0  0  0  0  0  0  0  0  0  0  0
    0.5961    4.3077    0.1223 C   0  0  0  0  0  0  0  0  0  0  0  0
    1.3725    3.5421    0.2014 H   0  0  0  0  0  0  0  0  0  0  0  0
    0.8831    5.0128   -0.6638 H   0  0  0  0  0  0  0  0  0  0  0  0
    0.5347    4.8491    1.0712 H   0  0  0  0  0  0  0  0  0  0  0  0
    0.6550   -0.6353    0.1799 C   0  0  0  0  0  0  0  0  0  0  0  0
    0.5318   -1.8018   -0.1757 O   0  0  0  0  0  0  0  0  0  0  0  0
    1.9423   -0.1223    0.1565 N   0  0  0  0  0  0  0  0  0  0  0  0
    2.0549    0.8676    0.3477 H   0  0  0  0  0  0  0  0  0  0  0  0
    3.1344   -0.9415   -0.0341 C   0  0  0  0  0  0  0  0  0  0  0  0
    3.1305   -1.3982   -1.0294 H   0  0  0  0  0  0  0  0  0  0  0  0
    4.0352   -0.3279    0.0613 H   0  0  0  0  0  0  0  0  0  0  0  0
    3.1771   -1.7364    0.7183 H   0  0  0  0  0  0  0  0  0  0  0  0
  1  2  1  0  0  0  0
  2  3  1  0  0  0  0
  2  4  1  0  0  0  0
  2  5  1  0  0  0  0
  5  6  2  0  0  0  0
  5  7  1  0  0  0  0
  7  8  1  0  0  0  0
  7  9  1  0  0  0  0
  9 10  1  0  0  0  0
  9 11  1  0  0  0  0
  9 22  1  0  0  0  0
 11 12  1  0  0  0  0
 11 13  1  0  0  0  0
 11 14  1  0  0  0  0
 14 15  1  0  0  0  0
 14 16  1  0  0  0  0
 14 17  1  0  0  0  0
 17 18  1  0  0  0  0
 18 19  1  0  0  0  0
 18 20  1  0  0  0  0
 18 21  1  0  0  0  0
 22 23  2  0  0  0  0
 22 24  1  0  0  0  0
 24 25  1  0  0  0  0
 24 26  1  0  0  0  0
 26 27  1  0  0  0  0
 26 28  1  0  0  0  0
 26 29  1  0  0  0  0
M  END
$$$$

  -OEChem-01062216093D

 29 28  0     1  0  0  0  0  0999 V2000
   -3.3790   -3.2130    0.9224 H   0  0  0  0  0  0  0  0  0  0  0  0
   -3.2982   -2.3143    0.3046 C   0  0  0  0  0  0  0  0  0  0  0  0
   -4.2421   -1.7665    0.3520 H   0  0  0  0  0  0  0  0  0  0  0  0
   -3.1072   -2.6159   -0.7281 H   0  0  0  0  0  0  0  0  0  0  0  0
   -2.1628   -1.4410    0.8035 C   0  0  0  0  0  0  0  0  0  0  0  0
   -1.5783   -1.7334    1.8357 O   0  0  0  0  0  0  0  0  0  0  0  0
   -1.8968   -0.2338    0.1819 N   0  0  0  0  0  0  0  0  0  0  0  0
   -2.4609   -0.0777   -0.6476 H   0  0  0  0  0  0  0  0  0  0  0  0
   -0.5479    0.3756    0.1464 C   0  0  1  0  0  0  0  0  0  0  0  0
   -0.4441    0.9368   -0.7862 H   0  0  0  0  0  0  0  0  0  0  0  0
   -0.4647    1.3543    1.3432 C   0  0  0  0  0  0  0  0  0  0  0  0
   -0.6911    0.8126    2.2680 H   0  0  0  0  0  0  0  0  0  0  0  0
    0.5489    1.7487    1.4411 H   0  0  0  0  0  0  0  0  0  0  0  0
   -1.4223    2.5482    1.2103 C   0  0  0  0  0  0  0  0  0  0  0  0
   -2.4542    2.1862    1.1584 H   0  0  0  0  0  0  0  0  0  0  0  0
   -1.3430    3.1758    2.1035 H   0  0  0  0  0  0  0  0  0  0  0  0
   -1.0664    3.5724   -0.2784 S   0  0  0  0  0  0  0  0  0  0  0  0
    0.5459    4.3570    0.1208 C   0  0  0  0  0  0  0  0  0  0  0  0
    1.3334    3.6023    0.1957 H   0  0  0  0  0  0  0  0  0  0  0  0
    0.8197    5.0667   -0.6657 H   0  0  0  0  0  0  0  0  0  0  0  0
    0.4804    4.8964    1.0705 H   0  0  0  0  0  0  0  0  0  0  0  0
    0.6445   -0.6266    0.1526 C   0  0  0  0  0  0  0  0  0  0  0  0
    0.5338   -1.7043   -0.4225 O   0  0  0  0  0  0  0  0  0  0  0  0
    1.9324   -0.1995    0.4335 N   0  0  0  0  0  0  0  0  0  0  0  0
    2.0342    0.6998    0.8911 H   0  0  0  0  0  0  0  0  0  0  0  0
    3.1030   -1.0623    0.3183 C   0  0  0  0  0  0  0  0  0  0  0  0
    3.2499   -1.3733   -0.7216 H   0  0  0  0  0  0  0  0  0  0  0  0
    3.9999   -0.5303    0.6490 H   0  0  0  0  0  0  0  0  0  0  0  0
    2.9819   -1.9562    0.9396 H   0  0  0  0  0  0  0  0  0  0  0  0
  1  2  1  0  0  0  0
  2  3  1  0  0  0  0
  2  4  1  0  0  0  0
  2  5  1  0  0  0  0
  5  6  2  0  0  0  0
  5  7  1  0  0  0  0
  7  8  1  0  0  0  0
  7  9  1  0  0  0  0
  9 10  1  0  0  0  0
  9 11  1  0  0  0  0
  9 22  1  0  0  0  0
 11 12  1  0  0  0  0
 11 13  1  0  0  0  0
 11 14  1  0  0  0  0
 14 15  1  0  0  0  0
 14 16  1  0  0  0  0
 14 17  1  0  0  0  0
 17 18  1  0  0  0  0
 18 19  1  0  0  0  0
 18 20  1  0  0  0  0
 18 21  1  0  0  0  0
 22 23  2  0  0  0  0
 22 24  1  0  0  0  0
 24 25  1  0  0  0  0
 24 26  1  0  0  0  0
 26 27  1  0  0  0  0
 26 28  1  0  0  0  0
 26 29  1  0  0  0  0
M  END
$$$$

  -OEChem-01062216093D

 29 28  0     1  0  0  0  0  0999 V2000
   -3.3585   -3.2111    0.9177 H   0  0  0  0  0  0  0  0  0  0  0  0
   -3.2832   -2.3080    0.3056 C   0  0  0  0  0  0  0  0  0  0  0  0
   -4.2212   -1.7528    0.3785 H   0  0  0  0  0  0  0  0  0  0  0  0
   -3.1190   -2.6023   -0.7339 H   0  0  0  0  0  0  0  0  0  0  0  0
   -2.1294   -1.4483    0.7854 C   0  0  0  0  0  0  0  0  0  0  0  0
   -1.5056   -1.7695    1.7856 O   0  0  0  0  0  0  0  0  0  0  0  0
   -1.8801   -0.2309    0.1774 N   0  0  0  0  0  0  0  0  0  0  0  0
   -2.4592   -0.0595   -0.6388 H   0  0  0  0  0  0  0  0  0  0  0  0
   -0.5406    0.3969    0.1440 C   0  0  1  0  0  0  0  0  0  0  0  0
   -0.4414    0.9612   -0.7871 H   0  0  0  0  0  0  0  0  0  0  0  0
   -0.4624    1.3753    1.3403 C   0  0  0  0  0  0  0  0  0  0  0  0
   -0.6759    0.8312    2.2668 H   0  0  0  0  0  0  0  0  0  0  0  0
    0.5469    1.7839    1.4263 H   0  0  0  0  0  0  0  0  0  0  0  0
   -1.4334    2.5586    1.2118 C   0  0  0  0  0  0  0  0  0  0  0  0
   -2.4611    2.1848    1.1637 H   0  0  0  0  0  0  0  0  0  0  0  0
   -1.3578    3.1867    2.1049 H   0  0  0  0  0  0  0  0  0  0  0  0
   -1.0964    3.5872   -0.2781 S   0  0  0  0  0  0  0  0  0  0  0  0
    0.5089    4.3901    0.1122 C   0  0  0  0  0  0  0  0  0  0  0  0
    1.3067    3.6448    0.1762 H   0  0  0  0  0  0  0  0  0  0  0  0
    0.7674    5.1075   -0.6725 H   0  0  0  0  0  0  0  0  0  0  0  0
    0.4446    4.9238    1.0650 H   0  0  0  0  0  0  0  0  0  0  0  0
    0.6460   -0.6112    0.1365 C   0  0  0  0  0  0  0  0  0  0  0  0
    0.5868   -1.5849   -0.6071 O   0  0  0  0  0  0  0  0  0  0  0  0
    1.8751   -0.3072    0.6988 N   0  0  0  0  0  0  0  0  0  0  0  0
    1.8969    0.4586    1.3634 H   0  0  0  0  0  0  0  0  0  0  0  0
    3.0113   -1.2205    0.6548 C   0  0  0  0  0  0  0  0  0  0  0  0
    3.3078   -1.4146   -0.3814 H   0  0  0  0  0  0  0  0  0  0  0  0
    3.8665   -0.7869    1.1818 H   0  0  0  0  0  0  0  0  0  0  0  0
    2.7554   -2.1724    1.1324 H   0  0  0  0  0  0  0  0  0  0  0  0
  1  2  1  0  0  0  0
  2  3  1  0  0  0  0
  2  4  1  0  0  0  0
  2  5  1  0  0  0  0
  5  6  2  0  0  0  0
  5  7  1  0  0  0  0
  7  8  1  0  0  0  0
  7  9  1  0  0  0  0
  9 10  1  0  0  0  0
  9 11  1  0  0  0  0
  9 22  1  0  0  0  0
 11 12  1  0  0  0  0
 11 13  1  0  0  0  0
 11 14  1  0  0  0  0
 14 15  1  0  0  0  0
 14 16  1  0  0  0  0
 14 17  1  0  0  0  0
 17 18  1  0  0  0  0
 18 19  1  0  0  0  0
 18 20  1  0  0  0  0
 18 21  1  0  0  0  0
 22 23  2  0  0  0  0
 22 24  1  0  0  0  0
 24 25  1  0  0  0  0
 24 26  1  0  0  0  0
 26 27  1  0  0  0  0
 26 28  1  0  0  0  0
 26 29  1  0  0  0  0
M  END
$$$$

  -OEChem-01062216093D

 29 28  0     1  0  0  0  0  0999 V2000
   -3.3156   -3.2349    0.8813 H   0  0  0  0  0  0  0  0  0  0  0  0
   -3.2740   -2.3063    0.3052 C   0  0  0  0  0  0  0  0  0  0  0  0
   -4.2125   -1.7638    0.4412 H   0  0  0  0  0  0  0  0  0  0  0  0
   -3.1523   -2.5555   -0.7518 H   0  0  0  0  0  0  0  0  0  0  0  0
   -2.1083   -1.4552    0.7717 C   0  0  0  0  0  0  0  0  0  0  0  0
   -1.4577   -1.7971    1.7477 O   0  0  0  0  0  0  0  0  0  0  0  0
   -1.8684   -0.2316    0.1727 N   0  0  0  0  0  0  0  0  0  0  0  0
   -2.4569   -0.0488   -0.6345 H   0  0  0  0  0  0  0  0  0  0  0  0
   -0.5359    0.4095    0.1438 C   0  0  1  0  0  0  0  0  0  0  0  0
   -0.4394    0.9746   -0.7874 H   0  0  0  0  0  0  0  0  0  0  0  0
   -0.4594    1.3906    1.3370 C   0  0  0  0  0  0  0  0  0  0  0  0
   -0.6673    0.8475    2.2653 H   0  0  0  0  0  0  0  0  0  0  0  0
    0.5502    1.8022    1.4147 H   0  0  0  0  0  0  0  0  0  0  0  0
   -1.4362    2.5692    1.2102 C   0  0  0  0  0  0  0  0  0  0  0  0
   -2.4620    2.1903    1.1659 H   0  0  0  0  0  0  0  0  0  0  0  0
   -1.3597    3.1991    2.1019 H   0  0  0  0  0  0  0  0  0  0  0  0
   -1.1102    3.5980   -0.2819 S   0  0  0  0  0  0  0  0  0  0  0  0
    0.4930    4.4084    0.1037 C   0  0  0  0  0  0  0  0  0  0  0  0
    1.2930    3.6660    0.1708 H   0  0  0  0  0  0  0  0  0  0  0  0
    0.7490    5.1225   -0.6849 H   0  0  0  0  0  0  0  0  0  0  0  0
    0.4282    4.9462    1.0544 H   0  0  0  0  0  0  0  0  0  0  0  0
    0.6502   -0.5966    0.1310 C   0  0  0  0  0  0  0  0  0  0  0  0
    0.6750   -1.4526   -0.7465 O   0  0  0  0  0  0  0  0  0  0  0  0
    1.7672   -0.4464    0.9361 N   0  0  0  0  0  0  0  0  0  0  0  0
    1.6594    0.1617    1.7411 H   0  0  0  0  0  0  0  0  0  0  0  0
    2.8597   -1.4119    0.9449 C   0  0  0  0  0  0  0  0  0  0  0  0
    3.3142   -1.4875   -0.0486 H   0  0  0  0  0  0  0  0  0  0  0  0
    3.6332   -1.1015    1.6536 H   0  0  0  0  0  0  0  0  0  0  0  0
    2.4933   -2.4006    1.2408 H   0  0  0  0  0  0  0  0  0  0  0  0
  1  2  1  0  0  0  0
  2  3  1  0  0  0  0
  2  4  1  0  0  0  0
  2  5  1  0  0  0  0
  5  6  2  0  0  0  0
  5  7  1  0  0  0  0
  7  8  1  0  0  0  0
  7  9  1  0  0  0  0
  9 10  1  0  0  0  0
  9 11  1  0  0  0  0
  9 22  1  0  0  0  0
 11 12  1  0  0  0  0
 11 13  1  0  0  0  0
 11 14  1  0  0  0  0
 14 15  1  0  0  0  0
 14 16  1  0  0  0  0
 14 17  1  0  0  0  0
 17 18  1  0  0  0  0
 18 19  1  0  0  0  0
 18 20  1  0  0  0  0
 18 21  1  0  0  0  0
 22 23  2  0  0  0  0
 22 24  1  0  0  0  0
 24 25  1  0  0  0  0
 24 26  1  0  0  0  0
 26 27  1  0  0  0  0
 26 28  1  0  0  0  0
 26 29  1  0  0  0  0
M  END
$$$$

  -OEChem-01062216093D

 29 28  0     1  0  0  0  0  0999 V2000
   -3.3146   -3.2359    0.8683 H   0  0  0  0  0  0  0  0  0  0  0  0
   -3.2811   -2.2967    0.3089 C   0  0  0  0  0  0  0  0  0  0  0  0
   -4.2104   -1.7490    0.4818 H   0  0  0  0  0  0  0  0  0  0  0  0
   -3.1918   -2.5264   -0.7558 H   0  0  0  0  0  0  0  0  0  0  0  0
   -2.0960   -1.4640    0.7586 C   0  0  0  0  0  0  0  0  0  0  0  0
   -1.4261   -1.8269    1.7136 O   0  0  0  0  0  0  0  0  0  0  0  0
   -1.8557   -0.2385    0.1651 N   0  0  0  0  0  0  0  0  0  0  0  0
   -2.4567   -0.0373   -0.6286 H   0  0  0  0  0  0  0  0  0  0  0  0
   -0.5286    0.4117    0.1418 C   0  0  1  0  0  0  0  0  0  0  0  0
   -0.4341    0.9776   -0.7895 H   0  0  0  0  0  0  0  0  0  0  0  0
   -0.4544    1.3936    1.3333 C   0  0  0  0  0  0  0  0  0  0  0  0
   -0.6637    0.8522    2.2622 H   0  0  0  0  0  0  0  0  0  0  0  0
    0.5576    1.8013    1.4092 H   0  0  0  0  0  0  0  0  0  0  0  0
   -1.4351    2.5690    1.2067 C   0  0  0  0  0  0  0  0  0  0  0  0
   -2.4598    2.1871    1.1642 H   0  0  0  0  0  0  0  0  0  0  0  0
   -1.3594    3.2001    2.0979 H   0  0  0  0  0  0  0  0  0  0  0  0
   -1.1146    3.5981   -0.2862 S   0  0  0  0  0  0  0  0  0  0  0  0
    0.4863    4.4123    0.0999 C   0  0  0  0  0  0  0  0  0  0  0  0
    1.2865    3.6706    0.1744 H   0  0  0  0  0  0  0  0  0  0  0  0
    0.7442    5.1219   -0.6920 H   0  0  0  0  0  0  0  0  0  0  0  0
    0.4170    4.9555    1.0471 H   0  0  0  0  0  0  0  0  0  0  0  0
    0.6627   -0.5856    0.1315 C   0  0  0  0  0  0  0  0  0  0  0  0
    0.8066   -1.3035   -0.8512 O   0  0  0  0  0  0  0  0  0  0  0  0
    1.6234   -0.6135    1.1285 N   0  0  0  0  0  0  0  0  0  0  0  0
    1.3532   -0.1798    2.0059 H   0  0  0  0  0  0  0  0  0  0  0  0
    2.6722   -1.6253    1.1655 C   0  0  0  0  0  0  0  0  0  0  0  0
    3.2853   -1.5775    0.2594 H   0  0  0  0  0  0  0  0  0  0  0  0
    3.3236   -1.4633    2.0294 H   0  0  0  0  0  0  0  0  0  0  0  0
    2.2341   -2.6261    1.2429 H   0  0  0  0  0  0  0  0  0  0  0  0
  1  2  1  0  0  0  0
  2  3  1  0  0  0  0
  2  4  1  0  0  0  0
  2  5  1  0  0  0  0
  5  6  2  0  0  0  0
  5  7  1  0  0  0  0
  7  8  1  0  0  0  0
  7  9  1  0  0  0  0
  9 10  1  0  0  0  0
  9 11  1  0  0  0  0
  9 22  1  0  0  0  0
 11 12  1  0  0  0  0
 11 13  1  0  0  0  0
 11 14  1  0  0  0  0
 14 15  1  0  0  0  0
 14 16  1  0  0  0  0
 14 17  1  0  0  0  0
 17 18  1  0  0  0  0
 18 19  1  0  0  0  0
 18 20  1  0  0  0  0
 18 21  1  0  0  0  0
 22 23  2  0  0  0  0
 22 24  1  0  0  0  0
 24 25  1  0  0  0  0
 24 26  1  0  0  0  0
 26 27  1  0  0  0  0
 26 28  1  0  0  0  0
 26 29  1  0  0  0  0
M  END
$$$$

  -OEChem-01062216093D

 29 28  0     1  0  0  0  0  0999 V2000
   -3.3683   -3.2182    0.8700 H   0  0  0  0  0  0  0  0  0  0  0  0
   -3.3206   -2.2784    0.3128 C   0  0  0  0  0  0  0  0  0  0  0  0
   -4.2353   -1.7108    0.4989 H   0  0  0  0  0  0  0  0  0  0  0  0
   -3.2503   -2.5066   -0.7535 H   0  0  0  0  0  0  0  0  0  0  0  0
   -2.1115   -1.4735    0.7489 C   0  0  0  0  0  0  0  0  0  0  0  0
   -1.4339   -1.8577    1.6898 O   0  0  0  0  0  0  0  0  0  0  0  0
   -1.8539   -0.2513    0.1570 N   0  0  0  0  0  0  0  0  0  0  0  0
   -2.4642   -0.0260   -0.6234 H   0  0  0  0  0  0  0  0  0  0  0  0
   -0.5268    0.3986    0.1416 C   0  0  1  0  0  0  0  0  0  0  0  0
   -0.4295    0.9641   -0.7900 H   0  0  0  0  0  0  0  0  0  0  0  0
   -0.4539    1.3805    1.3316 C   0  0  0  0  0  0  0  0  0  0  0  0
   -0.6700    0.8419    2.2602 H   0  0  0  0  0  0  0  0  0  0  0  0
    0.5619    1.7789    1.4114 H   0  0  0  0  0  0  0  0  0  0  0  0
   -1.4308    2.5585    1.2021 C   0  0  0  0  0  0  0  0  0  0  0  0
   -2.4565    2.1794    1.1569 H   0  0  0  0  0  0  0  0  0  0  0  0
   -1.3554    3.1894    2.0933 H   0  0  0  0  0  0  0  0  0  0  0  0
   -1.1035    3.5860   -0.2903 S   0  0  0  0  0  0  0  0  0  0  0  0
    0.4988    4.3957    0.0989 C   0  0  0  0  0  0  0  0  0  0  0  0
    1.2971    3.6519    0.1725 H   0  0  0  0  0  0  0  0  0  0  0  0
    0.7594    5.1064   -0.6911 H   0  0  0  0  0  0  0  0  0  0  0  0
    0.4305    4.9371    1.0470 H   0  0  0  0  0  0  0  0  0  0  0  0
    0.6723   -0.5874    0.1440 C   0  0  0  0  0  0  0  0  0  0  0  0
    0.9840   -1.1245   -0.9118 O   0  0  0  0  0  0  0  0  0  0  0  0
    1.4423   -0.8137    1.2718 N   0  0  0  0  0  0  0  0  0  0  0  0
    0.9750   -0.5988    2.1487 H   0  0  0  0  0  0  0  0  0  0  0  0
    2.4877   -1.8291    1.3004 C   0  0  0  0  0  0  0  0  0  0  0  0
    3.2404   -1.6292    0.5305 H   0  0  0  0  0  0  0  0  0  0  0  0
    2.9856   -1.8302    2.2746 H   0  0  0  0  0  0  0  0  0  0  0  0
    2.0601   -2.8223    1.1264 H   0  0  0  0  0  0  0  0  0  0  0  0
  1  2  1  0  0  0  0
  2  3  1  0  0  0  0
  2  4  1  0  0  0  0
  2  5  1  0  0  0  0
  5  6  2  0  0  0  0
  5  7  1  0  0  0  0
  7  8  1  0  0  0  0
  7  9  1  0  0  0  0
  9 10  1  0  0  0  0
  9 11  1  0  0  0  0
  9 22  1  0  0  0  0
 11 12  1  0  0  0  0
 11 13  1  0  0  0  0
 11 14  1  0  0  0  0
 14 15  1  0  0  0  0
 14 16  1  0  0  0  0
 14 17  1  0  0  0  0
 17 18  1  0  0  0  0
 18 19  1  0  0  0  0
 18 20  1  0  0  0  0
 18 21  1  0  0  0  0
 22 23  2  0  0  0  0
 22 24  1  0  0  0  0
 24 25  1  0  0  0  0
 24 26  1  0  0  0  0
 26 27  1  0  0  0  0
 26 28  1  0  0  0  0
 26 29  1  0  0  0  0
M  END
$$$$

  -OEChem-01062216093D

 29 28  0     1  0  0  0  0  0999 V2000
   -3.4688   -3.1913    0.8613 H   0  0  0  0  0  0  0  0  0  0  0  0
   -3.3979   -2.2478    0.3128 C   0  0  0  0  0  0  0  0  0  0  0  0
   -4.2912   -1.6528    0.5170 H   0  0  0  0  0  0  0  0  0  0  0  0
   -3.3498   -2.4671   -0.7565 H   0  0  0  0  0  0  0  0  0  0  0  0
   -2.1578   -1.4866    0.7411 C   0  0  0  0  0  0  0  0  0  0  0  0
   -1.4867   -1.8984    1.6745 O   0  0  0  0  0  0  0  0  0  0  0  0
   -1.8655   -0.2717    0.1510 N   0  0  0  0  0  0  0  0  0  0  0  0
   -2.4852   -0.0129   -0.6115 H   0  0  0  0  0  0  0  0  0  0  0  0
   -0.5339    0.3706    0.1410 C   0  0  1  0  0  0  0  0  0  0  0  0
   -0.4366    0.9361   -0.7907 H   0  0  0  0  0  0  0  0  0  0  0  0
   -0.4581    1.3526    1.3296 C   0  0  0  0  0  0  0  0  0  0  0  0
   -0.6815    0.8163    2.2578 H   0  0  0  0  0  0  0  0  0  0  0  0
    0.5620    1.7395    1.4142 H   0  0  0  0  0  0  0  0  0  0  0  0
   -1.4253    2.5384    1.1981 C   0  0  0  0  0  0  0  0  0  0  0  0
   -2.4541    2.1678    1.1505 H   0  0  0  0  0  0  0  0  0  0  0  0
   -1.3466    3.1691    2.0891 H   0  0  0  0  0  0  0  0  0  0  0  0
   -1.0854    3.5625   -0.2936 S   0  0  0  0  0  0  0  0  0  0  0  0
    0.5227    4.3578    0.1017 C   0  0  0  0  0  0  0  0  0  0  0  0
    1.3142    3.6066    0.1744 H   0  0  0  0  0  0  0  0  0  0  0  0
    0.7912    5.0685   -0.6855 H   0  0  0  0  0  0  0  0  0  0  0  0
    0.4573    4.8964    1.0516 H   0  0  0  0  0  0  0  0  0  0  0  0
    0.6792   -0.5975    0.1571 C   0  0  0  0  0  0  0  0  0  0  0  0
    1.1902   -0.9115   -0.9106 O   0  0  0  0  0  0  0  0  0  0  0  0
    1.2512   -1.0381    1.3371 N   0  0  0  0  0  0  0  0  0  0  0  0
    0.5997   -1.0519    2.1212 H   0  0  0  0  0  0  0  0  0  0  0  0
    2.3307   -2.0176    1.3515 C   0  0  0  0  0  0  0  0  0  0  0  0
    3.1941   -1.6463    0.7896 H   0  0  0  0  0  0  0  0  0  0  0  0
    2.6488   -2.2130    2.3799 H   0  0  0  0  0  0  0  0  0  0  0  0
    1.9981   -2.9605    0.9048 H   0  0  0  0  0  0  0  0  0  0  0  0
  1  2  1  0  0  0  0
  2  3  1  0  0  0  0
  2  4  1  0  0  0  0
  2  5  1  0  0  0  0
  5  6  2  0  0  0  0
  5  7  1  0  0  0  0
  7  8  1  0  0  0  0
  7  9  1  0  0  0  0
  9 10  1  0  0  0  0
  9 11  1  0  0  0  0
  9 22  1  0  0  0  0
 11 12  1  0  0  0  0
 11 13  1  0  0  0  0
 11 14  1  0  0  0  0
 14 15  1  0  0  0  0
 14 16  1  0  0  0  0
 14 17  1  0  0  0  0
 17 18  1  0  0  0  0
 18 19  1  0  0  0  0
 18 20  1  0  0  0  0
 18 21  1  0  0  0  0
 22 23  2  0  0  0  0
 22 24  1  0  0  0  0
 24 25  1  0  0  0  0
 24 26  1  0  0  0  0
 26 27  1  0  0  0  0
 26 28  1  0  0  0  0
 26 29  1  0  0  0  0
M  END
$$$$

  -OEChem-01062216093D

 29 28  0     1  0  0  0  0  0999 V2000
   -3.6230   -3.1346    0.8617 H   0  0  0  0  0  0  0  0  0  0  0  0
   -3.5031   -2.2003    0.3059 C   0  0  0  0  0  0  0  0  0  0  0  0
   -4.3651   -1.5592    0.5054 H   0  0  0  0  0  0  0  0  0  0  0  0
   -3.4667   -2.4304   -0.7617 H   0  0  0  0  0  0  0  0  0  0  0  0
   -2.2256   -1.5001    0.7292 C   0  0  0  0  0  0  0  0  0  0  0  0
   -1.5749   -1.9484    1.6589 O   0  0  0  0  0  0  0  0  0  0  0  0
   -1.8838   -0.2980    0.1399 N   0  0  0  0  0  0  0  0  0  0  0  0
   -2.5125   -0.0012   -0.6012 H   0  0  0  0  0  0  0  0  0  0  0  0
   -0.5449    0.3342    0.1287 C   0  0  1  0  0  0  0  0  0  0  0  0
   -0.4519    0.9019   -0.8023 H   0  0  0  0  0  0  0  0  0  0  0  0
   -0.4630    1.3101    1.3210 C   0  0  0  0  0  0  0  0  0  0  0  0
   -0.6872    0.7698    2.2469 H   0  0  0  0  0  0  0  0  0  0  0  0
    0.5602    1.6893    1.4066 H   0  0  0  0  0  0  0  0  0  0  0  0
   -1.4211    2.5039    1.1982 C   0  0  0  0  0  0  0  0  0  0  0  0
   -2.4527    2.1419    1.1495 H   0  0  0  0  0  0  0  0  0  0  0  0
   -1.3361    3.1286    2.0930 H   0  0  0  0  0  0  0  0  0  0  0  0
   -1.0736    3.5334   -0.2880 S   0  0  0  0  0  0  0  0  0  0  0  0
    0.5417    4.3115    0.1136 C   0  0  0  0  0  0  0  0  0  0  0  0
    1.3272    3.5530    0.1779 H   0  0  0  0  0  0  0  0  0  0  0  0
    0.8154    5.0276   -0.6670 H   0  0  0  0  0  0  0  0  0  0  0  0
    0.4818    4.8410    1.0689 H   0  0  0  0  0  0  0  0  0  0  0  0
    0.6904   -0.6053    0.1588 C   0  0  0  0  0  0  0  0  0  0  0  0
    1.3818   -0.6945   -0.8478 O   0  0  0  0  0  0  0  0  0  0  0  0
    1.0905   -1.2640    1.3061 N   0  0  0  0  0  0  0  0  0  0  0  0
    0.3300   -1.4229    1.9709 H   0  0  0  0  0  0  0  0  0  0  0  0
    2.2017   -2.2063    1.3181 C   0  0  0  0  0  0  0  0  0  0  0  0
    3.1260   -1.7146    0.9972 H   0  0  0  0  0  0  0  0  0  0  0  0
    2.3533   -2.5962    2.3291 H   0  0  0  0  0  0  0  0  0  0  0  0
    1.9980   -3.0473    0.6472 H   0  0  0  0  0  0  0  0  0  0  0  0
  1  2  1  0  0  0  0
  2  3  1  0  0  0  0
  2  4  1  0  0  0  0
  2  5  1  0  0  0  0
  5  6  2  0  0  0  0
  5  7  1  0  0  0  0
  7  8  1  0  0  0  0
  7  9  1  0  0  0  0
  9 10  1  0  0  0  0
  9 11  1  0  0  0  0
  9 22  1  0  0  0  0
 11 12  1  0  0  0  0
 11 13  1  0  0  0  0
 11 14  1  0  0  0  0
 14 15  1  0  0  0  0
 14 16  1  0  0  0  0
 14 17  1  0  0  0  0
 17 18  1  0  0  0  0
 18 19  1  0  0  0  0
 18 20  1  0  0  0  0
 18 21  1  0  0  0  0
 22 23  2  0  0  0  0
 22 24  1  0  0  0  0
 24 25  1  0  0  0  0
 24 26  1  0  0  0  0
 26 27  1  0  0  0  0
 26 28  1  0  0  0  0
 26 29  1  0  0  0  0
M  END
$$$$

  -OEChem-01062216093D

 29 28  0     1  0  0  0  0  0999 V2000
   -3.7965   -3.0593    0.8528 H   0  0  0  0  0  0  0  0  0  0  0  0
   -3.6243   -2.1322    0.2984 C   0  0  0  0  0  0  0  0  0  0  0  0
   -4.4438   -1.4402    0.5068 H   0  0  0  0  0  0  0  0  0  0  0  0
   -3.6116   -2.3608   -0.7701 H   0  0  0  0  0  0  0  0  0  0  0  0
   -2.3032   -1.5120    0.7130 C   0  0  0  0  0  0  0  0  0  0  0  0
   -1.6749   -2.0091    1.6318 O   0  0  0  0  0  0  0  0  0  0  0  0
   -1.9049   -0.3255    0.1276 N   0  0  0  0  0  0  0  0  0  0  0  0
   -2.5414    0.0165   -0.5871 H   0  0  0  0  0  0  0  0  0  0  0  0
   -0.5571    0.2932    0.1151 C   0  0  1  0  0  0  0  0  0  0  0  0
   -0.4659    0.8618   -0.8158 H   0  0  0  0  0  0  0  0  0  0  0  0
   -0.4748    1.2637    1.3109 C   0  0  0  0  0  0  0  0  0  0  0  0
   -0.7026    0.7186    2.2331 H   0  0  0  0  0  0  0  0  0  0  0  0
    0.5498    1.6380    1.4020 H   0  0  0  0  0  0  0  0  0  0  0  0
   -1.4246    2.4644    1.1912 C   0  0  0  0  0  0  0  0  0  0  0  0
   -2.4588    2.1105    1.1388 H   0  0  0  0  0  0  0  0  0  0  0  0
   -1.3371    3.0838    2.0894 H   0  0  0  0  0  0  0  0  0  0  0  0
   -1.0665    3.4994   -0.2884 S   0  0  0  0  0  0  0  0  0  0  0  0
    0.5525    4.2646    0.1223 C   0  0  0  0  0  0  0  0  0  0  0  0
    1.3338    3.5008    0.1774 H   0  0  0  0  0  0  0  0  0  0  0  0
    0.8306    4.9884   -0.6496 H   0  0  0  0  0  0  0  0  0  0  0  0
    0.4958    4.7832    1.0838 H   0  0  0  0  0  0  0  0  0  0  0  0
    0.7021   -0.6163    0.1577 C   0  0  0  0  0  0  0  0  0  0  0  0
    1.5333   -0.4950   -0.7332 O   0  0  0  0  0  0  0  0  0  0  0  0
    0.9732   -1.4914    1.1912 N   0  0  0  0  0  0  0  0  0  0  0  0
    0.1685   -1.7265    1.7778 H   0  0  0  0  0  0  0  0  0  0  0  0
    2.1164   -2.3946    1.1947 C   0  0  0  0  0  0  0  0  0  0  0  0
    3.0519   -1.8306    1.1178 H   0  0  0  0  0  0  0  0  0  0  0  0
    2.1381   -2.9702    2.1251 H   0  0  0  0  0  0  0  0  0  0  0  0
    2.0552   -3.0931    0.3539 H   0  0  0  0  0  0  0  0  0  0  0  0
  1  2  1  0  0  0  0
  2  3  1  0  0  0  0
  2  4  1  0  0  0  0
  2  5  1  0  0  0  0
  5  6  2  0  0  0  0
  5  7  1  0  0  0  0
  7  8  1  0  0  0  0
  7  9  1  0  0  0  0
  9 10  1  0  0  0  0
  9 11  1  0  0  0  0
  9 22  1  0  0  0  0
 11 12  1  0  0  0  0
 11 13  1  0  0  0  0
 11 14  1  0  0  0  0
 14 15  1  0  0  0  0
 14 16  1  0  0  0  0
 14 17  1  0  0  0  0
 17 18  1  0  0  0  0
 18 19  1  0  0  0  0
 18 20  1  0  0  0  0
 18 21  1  0  0  0  0
 22 23  2  0  0  0  0
 22 24  1  0  0  0  0
 24 25  1  0  0  0  0
 24 26  1  0  0  0  0
 26 27  1  0  0  0  0
 26 28  1  0  0  0  0
 26 29  1  0  0  0  0
M  END
$$$$

  -OEChem-01062216093D

 29 28  0     1  0  0  0  0  0999 V2000
   -3.9071   -3.0210    0.8167 H   0  0  0  0  0  0  0  0  0  0  0  0
   -3.7204   -2.0761    0.2982 C   0  0  0  0  0  0  0  0  0  0  0  0
   -4.5153   -1.3714    0.5541 H   0  0  0  0  0  0  0  0  0  0  0  0
   -3.7368   -2.2589   -0.7790 H   0  0  0  0  0  0  0  0  0  0  0  0
   -2.3741   -1.5103    0.7089 C   0  0  0  0  0  0  0  0  0  0  0  0
   -1.7635   -2.0385    1.6216 O   0  0  0  0  0  0  0  0  0  0  0  0
   -1.9388   -0.3349    0.1277 N   0  0  0  0  0  0  0  0  0  0  0  0
   -2.5799    0.0392   -0.5664 H   0  0  0  0  0  0  0  0  0  0  0  0
   -0.5803    0.2633    0.1041 C   0  0  1  0  0  0  0  0  0  0  0  0
   -0.4955    0.8338   -0.8263 H   0  0  0  0  0  0  0  0  0  0  0  0
   -0.4837    1.2284    1.3031 C   0  0  0  0  0  0  0  0  0  0  0  0
   -0.7136    0.6815    2.2238 H   0  0  0  0  0  0  0  0  0  0  0  0
    0.5445    1.5932    1.3930 H   0  0  0  0  0  0  0  0  0  0  0  0
   -1.4210    2.4399    1.1895 C   0  0  0  0  0  0  0  0  0  0  0  0
   -2.4589    2.0973    1.1390 H   0  0  0  0  0  0  0  0  0  0  0  0
   -1.3248    3.0554    2.0892 H   0  0  0  0  0  0  0  0  0  0  0  0
   -1.0553    3.4752   -0.2881 S   0  0  0  0  0  0  0  0  0  0  0  0
    0.5732    4.2215    0.1205 C   0  0  0  0  0  0  0  0  0  0  0  0
    1.3461    3.4491    0.1731 H   0  0  0  0  0  0  0  0  0  0  0  0
    0.8578    4.9429   -0.6512 H   0  0  0  0  0  0  0  0  0  0  0  0
    0.5241    4.7396    1.0827 H   0  0  0  0  0  0  0  0  0  0  0  0
    0.6892   -0.6350    0.1359 C   0  0  0  0  0  0  0  0  0  0  0  0
    1.6189   -0.3340   -0.6021 O   0  0  0  0  0  0  0  0  0  0  0  0
    0.8645   -1.7124    0.9806 N   0  0  0  0  0  0  0  0  0  0  0  0
    0.0486   -1.9929    1.5298 H   0  0  0  0  0  0  0  0  0  0  0  0
    2.0445   -2.5668    0.9835 C   0  0  0  0  0  0  0  0  0  0  0  0
    2.9441   -1.9784    1.1921 H   0  0  0  0  0  0  0  0  0  0  0  0
    1.9489   -3.3359    1.7558 H   0  0  0  0  0  0  0  0  0  0  0  0
    2.1622   -3.0611    0.0137 H   0  0  0  0  0  0  0  0  0  0  0  0
  1  2  1  0  0  0  0
  2  3  1  0  0  0  0
  2  4  1  0  0  0  0
  2  5  1  0  0  0  0
  5  6  2  0  0  0  0
  5  7  1  0  0  0  0
  7  8  1  0  0  0  0
  7  9  1  0  0  0  0
  9 10  1  0  0  0  0
  9 11  1  0  0  0  0
  9 22  1  0  0  0  0
 11 12  1  0  0  0  0
 11 13  1  0  0  0  0
 11 14  1  0  0  0  0
 14 15  1  0  0  0  0
 14 16  1  0  0  0  0
 14 17  1  0  0  0  0
 17 18  1  0  0  0  0
 18 19  1  0  0  0  0
 18 20  1  0  0  0  0
 18 21  1  0  0  0  0
 22 23  2  0  0  0  0
 22 24  1  0  0  0  0
 24 25  1  0  0  0  0
 24 26  1  0  0  0  0
 26 27  1  0  0  0  0
 26 28  1  0  0  0  0
 26 29  1  0  0  0  0
M  END
$$$$

  -OEChem-01062216093D

 29 28  0     1  0  0  0  0  0999 V2000
   -3.3117   -3.3442    0.8699 H   0  0  0  0  0  0  0  0  0  0  0  0
   -3.1996   -2.4234    0.2904 C   0  0  0  0  0  0  0  0  0  0  0  0
   -4.1164   -1.8360    0.3822 H   0  0  0  0  0  0  0  0  0  0  0  0
   -3.0457   -2.6862   -0.7588 H   0  0  0  0  0  0  0  0  0  0  0  0
   -2.0181   -1.6231    0.8049 C   0  0  0  0  0  0  0  0  0  0  0  0
   -1.4891   -1.9495    1.8508 O   0  0  0  0  0  0  0  0  0  0  0  0
   -1.6861   -0.4384    0.1817 N   0  0  0  0  0  0  0  0  0  0  0  0
   -2.2925   -0.2042   -0.5988 H   0  0  0  0  0  0  0  0  0  0  0  0
   -0.4007    0.3009    0.2138 C   0  0  1  0  0  0  0  0  0  0  0  0
   -0.3181    0.8292   -0.7404 H   0  0  0  0  0  0  0  0  0  0  0  0
   -0.5388    1.3332    1.3569 C   0  0  0  0  0  0  0  0  0  0  0  0
   -0.7883    0.8070    2.2846 H   0  0  0  0  0  0  0  0  0  0  0  0
    0.4193    1.8346    1.5243 H   0  0  0  0  0  0  0  0  0  0  0  0
   -1.5989    2.4114    1.0848 C   0  0  0  0  0  0  0  0  0  0  0  0
   -2.5798    1.9420    0.9639 H   0  0  0  0  0  0  0  0  0  0  0  0
   -1.6625    3.0788    1.9498 H   0  0  0  0  0  0  0  0  0  0  0  0
   -1.2156    3.4072   -0.4158 S   0  0  0  0  0  0  0  0  0  0  0  0
    0.2650    4.3664    0.0970 C   0  0  0  0  0  0  0  0  0  0  0  0
    1.1122    3.6968    0.2735 H   0  0  0  0  0  0  0  0  0  0  0  0
    0.5422    5.0748   -0.6891 H   0  0  0  0  0  0  0  0  0  0  0  0
    0.0580    4.9247    1.0146 H   0  0  0  0  0  0  0  0  0  0  0  0
    0.9918   -0.3922    0.3727 C   0  0  0  0  0  0  0  0  0  0  0  0
    1.9870    0.2852    0.1610 O   0  0  0  0  0  0  0  0  0  0  0  0
    1.3425   -1.5547    1.0172 N   0  0  0  0  0  0  0  0  0  0  0  0
    2.3169   -1.5032    1.3015 H   0  0  0  0  0  0  0  0  0  0  0  0
    0.9601   -2.8479    0.4642 C   0  0  0  0  0  0  0  0  0  0  0  0
    1.8362   -3.3388    0.0291 H   0  0  0  0  0  0  0  0  0  0  0  0
    0.5582   -3.4926    1.2524 H   0  0  0  0  0  0  0  0  0  0  0  0
    0.2081   -2.7446   -0.3238 H   0  0  0  0  0  0  0  0  0  0  0  0
  1  2  1  0  0  0  0
  2  3  1  0  0  0  0
  2  4  1  0  0  0  0
  2  5  1  0  0  0  0
  5  6  2  0  0  0  0
  5  7  1  0  0  0  0
  7  8  1  0  0  0  0
  7  9  1  0  0  0  0
  9 10  1  0  0  0  0
  9 11  1  0  0  0  0
  9 22  1  0  0  0  0
 11 12  1  0  0  0  0
 11 13  1  0  0  0  0
 11 14  1  0  0  0  0
 14 15  1  0  0  0  0
 14 16  1  0  0  0  0
 14 17  1  0  0  0  0
 17 18  1  0  0  0  0
 18 19  1  0  0  0  0
 18 20  1  0  0  0  0
 18 21  1  0  0  0  0
 22 23  2  0  0  0  0
 22 24  1  0  0  0  0
 24 25  1  0  0  0  0
 24 26  1  0  0  0  0
 26 27  1  0  0  0  0
 26 28  1  0  0  0  0
 26 29  1  0  0  0  0
M  END
$$$$

  -OEChem-01062216093D

 29 28  0     1  0  0  0  0  0999 V2000
   -3.6491   -3.2220    0.8687 H   0  0  0  0  0  0  0  0  0  0  0  0
   -3.5810   -2.2447    0.3822 C   0  0  0  0  0  0  0  0  0  0  0  0
   -4.4129   -1.6232    0.7225 H   0  0  0  0  0  0  0  0  0  0  0  0
   -3.6575   -2.3856   -0.6986 H   0  0  0  0  0  0  0  0  0  0  0  0
   -2.2609   -1.5803    0.7259 C   0  0  0  0  0  0  0  0  0  0  0  0
   -1.5598   -2.0663    1.5930 O   0  0  0  0  0  0  0  0  0  0  0  0
   -1.9899   -0.3252    0.2233 N   0  0  0  0  0  0  0  0  0  0  0  0
   -2.7440    0.0365   -0.3529 H   0  0  0  0  0  0  0  0  0  0  0  0
   -0.6698    0.2845   -0.0675 C   0  0  1  0  0  0  0  0  0  0  0  0
   -0.8199    0.9826   -0.8966 H   0  0  0  0  0  0  0  0  0  0  0  0
   -0.2523    1.0750    1.1900 C   0  0  0  0  0  0  0  0  0  0  0  0
   -0.2566    0.4034    2.0551 H   0  0  0  0  0  0  0  0  0  0  0  0
    0.7729    1.4385    1.0683 H   0  0  0  0  0  0  0  0  0  0  0  0
   -1.1604    2.2781    1.4853 C   0  0  0  0  0  0  0  0  0  0  0  0
   -2.1853    1.9324    1.6517 H   0  0  0  0  0  0  0  0  0  0  0  0
   -0.8271    2.7639    2.4077 H   0  0  0  0  0  0  0  0  0  0  0  0
   -1.1546    3.5128    0.1194 S   0  0  0  0  0  0  0  0  0  0  0  0
    0.5408    4.2154    0.2021 C   0  0  0  0  0  0  0  0  0  0  0  0
    1.2840    3.4515   -0.0447 H   0  0  0  0  0  0  0  0  0  0  0  0
    0.6398    5.0376   -0.5129 H   0  0  0  0  0  0  0  0  0  0  0  0
    0.7460    4.5975    1.2064 H   0  0  0  0  0  0  0  0  0  0  0  0
    0.5588   -0.5736   -0.4989 C   0  0  0  0  0  0  0  0  0  0  0  0
    1.3276   -0.0840   -1.3118 O   0  0  0  0  0  0  0  0  0  0  0  0
    0.7445   -1.9327   -0.4137 N   0  0  0  0  0  0  0  0  0  0  0  0
    1.3259   -2.2318   -1.1922 H   0  0  0  0  0  0  0  0  0  0  0  0
    1.1883   -2.4888    0.8598 C   0  0  0  0  0  0  0  0  0  0  0  0
    0.9992   -1.8003    1.6901 H   0  0  0  0  0  0  0  0  0  0  0  0
    0.6675   -3.4297    1.0635 H   0  0  0  0  0  0  0  0  0  0  0  0
    2.2642   -2.6874    0.8261 H   0  0  0  0  0  0  0  0  0  0  0  0
  1  2  1  0  0  0  0
  2  3  1  0  0  0  0
  2  4  1  0  0  0  0
  2  5  1  0  0  0  0
  5  6  2  0  0  0  0
  5  7  1  0  0  0  0
  7  8  1  0  0  0  0
  7  9  1  0  0  0  0
  9 10  1  0  0  0  0
  9 11  1  0  0  0  0
  9 22  1  0  0  0  0
 11 12  1  0  0  0  0
 11 13  1  0  0  0  0
 11 14  1  0  0  0  0
 14 15  1  0  0  0  0
 14 16  1  0  0  0  0
 14 17  1  0  0  0  0
 17 18  1  0  0  0  0
 18 19  1  0  0  0  0
 18 20  1  0  0  0  0
 18 21  1  0  0  0  0
 22 23  2  0  0  0  0
 22 24  1  0  0  0  0
 24 25  1  0  0  0  0
 24 26  1  0  0  0  0
 26 27  1  0  0  0  0
 26 28  1  0  0  0  0
 26 29  1  0  0  0  0
M  END
$$$$

  -OEChem-01062216093D

 29 28  0     1  0  0  0  0  0999 V2000
   -4.0026   -2.9333    0.8923 H   0  0  0  0  0  0  0  0  0  0  0  0
   -3.8106   -1.9803    0.3908 C   0  0  0  0  0  0  0  0  0  0  0  0
   -4.5169   -1.2366    0.7679 H   0  0  0  0  0  0  0  0  0  0  0  0
   -3.9680   -2.1114   -0.6827 H   0  0  0  0  0  0  0  0  0  0  0  0
   -2.3878   -1.5254    0.6560 C   0  0  0  0  0  0  0  0  0  0  0  0
   -1.6883   -2.1732    1.4142 O   0  0  0  0  0  0  0  0  0  0  0  0
   -1.9496   -0.3420    0.0945 N   0  0  0  0  0  0  0  0  0  0  0  0
   -2.6446    0.1286   -0.4787 H   0  0  0  0  0  0  0  0  0  0  0  0
   -0.5853    0.2432    0.0399 C   0  0  1  0  0  0  0  0  0  0  0  0
   -0.5204    0.8309   -0.8804 H   0  0  0  0  0  0  0  0  0  0  0  0
   -0.4748    1.1839    1.2623 C   0  0  0  0  0  0  0  0  0  0  0  0
   -0.6899    0.6138    2.1724 H   0  0  0  0  0  0  0  0  0  0  0  0
    0.5503    1.5558    1.3547 H   0  0  0  0  0  0  0  0  0  0  0  0
   -1.4156    2.3962    1.1895 C   0  0  0  0  0  0  0  0  0  0  0  0
   -2.4547    2.0566    1.1479 H   0  0  0  0  0  0  0  0  0  0  0  0
   -1.3043    2.9919    2.1011 H   0  0  0  0  0  0  0  0  0  0  0  0
   -1.0692    3.4634   -0.2697 S   0  0  0  0  0  0  0  0  0  0  0  0
    0.5641    4.1988    0.1385 C   0  0  0  0  0  0  0  0  0  0  0  0
    1.3354    3.4234    0.1730 H   0  0  0  0  0  0  0  0  0  0  0  0
    0.8449    4.9318   -0.6234 H   0  0  0  0  0  0  0  0  0  0  0  0
    0.5235    4.7012    1.1093 H   0  0  0  0  0  0  0  0  0  0  0  0
    0.6881   -0.6555    0.0041 C   0  0  0  0  0  0  0  0  0  0  0  0
    1.7715   -0.1080   -0.1672 O   0  0  0  0  0  0  0  0  0  0  0  0
    0.6704   -2.0369    0.0197 N   0  0  0  0  0  0  0  0  0  0  0  0
   -0.1795   -2.4471    0.4096 H   0  0  0  0  0  0  0  0  0  0  0  0
    1.8819   -2.8476    0.0301 C   0  0  0  0  0  0  0  0  0  0  0  0
    2.4808   -2.6301    0.9204 H   0  0  0  0  0  0  0  0  0  0  0  0
    1.6230   -3.9107    0.0362 H   0  0  0  0  0  0  0  0  0  0  0  0
    2.4867   -2.6466   -0.8604 H   0  0  0  0  0  0  0  0  0  0  0  0
  1  2  1  0  0  0  0
  2  3  1  0  0  0  0
  2  4  1  0  0  0  0
  2  5  1  0  0  0  0
  5  6  2  0  0  0  0
  5  7  1  0  0  0  0
  7  8  1  0  0  0  0
  7  9  1  0  0  0  0
  9 10  1  0  0  0  0
  9 11  1  0  0  0  0
  9 22  1  0  0  0  0
 11 12  1  0  0  0  0
 11 13  1  0  0  0  0
 11 14  1  0  0  0  0
 14 15  1  0  0  0  0
 14 16  1  0  0  0  0
 14 17  1  0  0  0  0
 17 18  1  0  0  0  0
 18 19  1  0  0  0  0
 18 20  1  0  0  0  0
 18 21  1  0  0  0  0
 22 23  2  0  0  0  0
 22 24  1  0  0  0  0
 24 25  1  0  0  0  0
 24 26  1  0  0  0  0
 26 27  1  0  0  0  0
 26 28  1  0  0  0  0
 26 29  1  0  0  0  0
M  END
$$$$

  -OEChem-01062216093D

 29 28  0     1  0  0  0  0  0999 V2000
   -3.9399   -2.9444    0.9196 H   0  0  0  0  0  0  0  0  0  0  0  0
   -3.7670   -1.9829    0.4276 C   0  0  0  0  0  0  0  0  0  0  0  0
   -4.4464   -1.2423    0.8566 H   0  0  0  0  0  0  0  0  0  0  0  0
   -3.9811   -2.0908   -0.6384 H   0  0  0  0  0  0  0  0  0  0  0  0
   -2.3286   -1.5436    0.6260 C   0  0  0  0  0  0  0  0  0  0  0  0
   -1.5815   -2.2373    1.2920 O   0  0  0  0  0  0  0  0  0  0  0  0
   -1.9114   -0.3472    0.0754 N   0  0  0  0  0  0  0  0  0  0  0  0
   -2.6304    0.1559   -0.4372 H   0  0  0  0  0  0  0  0  0  0  0  0
   -0.5544    0.2554    0.0350 C   0  0  1  0  0  0  0  0  0  0  0  0
   -0.4834    0.8434   -0.8845 H   0  0  0  0  0  0  0  0  0  0  0  0
   -0.4711    1.1994    1.2586 C   0  0  0  0  0  0  0  0  0  0  0  0
   -0.6881    0.6265    2.1664 H   0  0  0  0  0  0  0  0  0  0  0  0
    0.5454    1.5892    1.3646 H   0  0  0  0  0  0  0  0  0  0  0  0
   -1.4276    2.3987    1.1726 C   0  0  0  0  0  0  0  0  0  0  0  0
   -2.4616    2.0459    1.1195 H   0  0  0  0  0  0  0  0  0  0  0  0
   -1.3345    2.9975    2.0841 H   0  0  0  0  0  0  0  0  0  0  0  0
   -1.0770    3.4679   -0.2843 S   0  0  0  0  0  0  0  0  0  0  0  0
    0.5414    4.2256    0.1439 C   0  0  0  0  0  0  0  0  0  0  0  0
    1.3227    3.4607    0.1875 H   0  0  0  0  0  0  0  0  0  0  0  0
    0.8213    4.9628   -0.6144 H   0  0  0  0  0  0  0  0  0  0  0  0
    0.4826    4.7266    1.1145 H   0  0  0  0  0  0  0  0  0  0  0  0
    0.7146   -0.6502    0.0004 C   0  0  0  0  0  0  0  0  0  0  0  0
    1.8194   -0.1206    0.0511 O   0  0  0  0  0  0  0  0  0  0  0  0
    0.6667   -1.9998   -0.2948 N   0  0  0  0  0  0  0  0  0  0  0  0
   -0.2110   -2.4455   -0.0264 H   0  0  0  0  0  0  0  0  0  0  0  0
    1.8584   -2.8390   -0.3265 C   0  0  0  0  0  0  0  0  0  0  0  0
    2.3507   -2.8424    0.6516 H   0  0  0  0  0  0  0  0  0  0  0  0
    1.5874   -3.8674   -0.5836 H   0  0  0  0  0  0  0  0  0  0  0  0
    2.5671   -2.4734   -1.0771 H   0  0  0  0  0  0  0  0  0  0  0  0
  1  2  1  0  0  0  0
  2  3  1  0  0  0  0
  2  4  1  0  0  0  0
  2  5  1  0  0  0  0
  5  6  2  0  0  0  0
  5  7  1  0  0  0  0
  7  8  1  0  0  0  0
  7  9  1  0  0  0  0
  9 10  1  0  0  0  0
  9 11  1  0  0  0  0
  9 22  1  0  0  0  0
 11 12  1  0  0  0  0
 11 13  1  0  0  0  0
 11 14  1  0  0  0  0
 14 15  1  0  0  0  0
 14 16  1  0  0  0  0
 14 17  1  0  0  0  0
 17 18  1  0  0  0  0
 18 19  1  0  0  0  0
 18 20  1  0  0  0  0
 18 21  1  0  0  0  0
 22 23  2  0  0  0  0
 22 24  1  0  0  0  0
 24 25  1  0  0  0  0
 24 26  1  0  0  0  0
 26 27  1  0  0  0  0
 26 28  1  0  0  0  0
 26 29  1  0  0  0  0
M  END
$$$$

  -OEChem-01062216093D

 29 28  0     1  0  0  0  0  0999 V2000
   -3.8581   -2.9574    0.9562 H   0  0  0  0  0  0  0  0  0  0  0  0
   -3.7056   -1.9929    0.4632 C   0  0  0  0  0  0  0  0  0  0  0  0
   -4.3554   -1.2519    0.9351 H   0  0  0  0  0  0  0  0  0  0  0  0
   -3.9791   -2.0895   -0.5903 H   0  0  0  0  0  0  0  0  0  0  0  0
   -2.2552   -1.5654    0.5866 C   0  0  0  0  0  0  0  0  0  0  0  0
   -1.4656   -2.2951    1.1571 O   0  0  0  0  0  0  0  0  0  0  0  0
   -1.8647   -0.3544    0.0483 N   0  0  0  0  0  0  0  0  0  0  0  0
   -2.6075    0.1768   -0.3975 H   0  0  0  0  0  0  0  0  0  0  0  0
   -0.5186    0.2702    0.0301 C   0  0  1  0  0  0  0  0  0  0  0  0
   -0.4379    0.8595   -0.8874 H   0  0  0  0  0  0  0  0  0  0  0  0
   -0.4672    1.2164    1.2551 C   0  0  0  0  0  0  0  0  0  0  0  0
   -0.6863    0.6406    2.1604 H   0  0  0  0  0  0  0  0  0  0  0  0
    0.5404    1.6247    1.3741 H   0  0  0  0  0  0  0  0  0  0  0  0
   -1.4407    2.4009    1.1550 C   0  0  0  0  0  0  0  0  0  0  0  0
   -2.4685    2.0327    1.0880 H   0  0  0  0  0  0  0  0  0  0  0  0
   -1.3697    3.0012    2.0676 H   0  0  0  0  0  0  0  0  0  0  0  0
   -1.0861    3.4751   -0.2971 S   0  0  0  0  0  0  0  0  0  0  0  0
    0.5142    4.2588    0.1520 C   0  0  0  0  0  0  0  0  0  0  0  0
    1.3072    3.5069    0.2079 H   0  0  0  0  0  0  0  0  0  0  0  0
    0.7927    4.9994   -0.6035 H   0  0  0  0  0  0  0  0  0  0  0  0
    0.4345    4.7602    1.1209 H   0  0  0  0  0  0  0  0  0  0  0  0
    0.7419   -0.6469    0.0037 C   0  0  0  0  0  0  0  0  0  0  0  0
    1.8386   -0.1885    0.3052 O   0  0  0  0  0  0  0  0  0  0  0  0
    0.7081   -1.8938   -0.5939 N   0  0  0  0  0  0  0  0  0  0  0  0
   -0.2009   -2.3471   -0.5240 H   0  0  0  0  0  0  0  0  0  0  0  0
    1.8780   -2.7625   -0.6459 C   0  0  0  0  0  0  0  0  0  0  0  0
    2.2160   -3.0097    0.3659 H   0  0  0  0  0  0  0  0  0  0  0  0
    1.6340   -3.6924   -1.1683 H   0  0  0  0  0  0  0  0  0  0  0  0
    2.6979   -2.2732   -1.1823 H   0  0  0  0  0  0  0  0  0  0  0  0
  1  2  1  0  0  0  0
  2  3  1  0  0  0  0
  2  4  1  0  0  0  0
  2  5  1  0  0  0  0
  5  6  2  0  0  0  0
  5  7  1  0  0  0  0
  7  8  1  0  0  0  0
  7  9  1  0  0  0  0
  9 10  1  0  0  0  0
  9 11  1  0  0  0  0
  9 22  1  0  0  0  0
 11 12  1  0  0  0  0
 11 13  1  0  0  0  0
 11 14  1  0  0  0  0
 14 15  1  0  0  0  0
 14 16  1  0  0  0  0
 14 17  1  0  0  0  0
 17 18  1  0  0  0  0
 18 19  1  0  0  0  0
 18 20  1  0  0  0  0
 18 21  1  0  0  0  0
 22 23  2  0  0  0  0
 22 24  1  0  0  0  0
 24 25  1  0  0  0  0
 24 26  1  0  0  0  0
 26 27  1  0  0  0  0
 26 28  1  0  0  0  0
 26 29  1  0  0  0  0
M  END
$$$$

  -OEChem-01062216093D

 29 28  0     1  0  0  0  0  0999 V2000
   -3.7469   -2.9993    0.9651 H   0  0  0  0  0  0  0  0  0  0  0  0
   -3.6239   -2.0265    0.4803 C   0  0  0  0  0  0  0  0  0  0  0  0
   -4.2657   -1.3003    0.9848 H   0  0  0  0  0  0  0  0  0  0  0  0
   -3.9330   -2.1129   -0.5641 H   0  0  0  0  0  0  0  0  0  0  0  0
   -2.1752   -1.5822    0.5594 C   0  0  0  0  0  0  0  0  0  0  0  0
   -1.3581   -2.3113    1.0896 O   0  0  0  0  0  0  0  0  0  0  0  0
   -1.8194   -0.3564    0.0280 N   0  0  0  0  0  0  0  0  0  0  0  0
   -2.5835    0.1821   -0.3703 H   0  0  0  0  0  0  0  0  0  0  0  0
   -0.4863    0.2933    0.0273 C   0  0  1  0  0  0  0  0  0  0  0  0
   -0.3985    0.8861   -0.8873 H   0  0  0  0  0  0  0  0  0  0  0  0
   -0.4553    1.2389    1.2531 C   0  0  0  0  0  0  0  0  0  0  0  0
   -0.6675    0.6595    2.1580 H   0  0  0  0  0  0  0  0  0  0  0  0
    0.5458    1.6630    1.3727 H   0  0  0  0  0  0  0  0  0  0  0  0
   -1.4457    2.4084    1.1483 C   0  0  0  0  0  0  0  0  0  0  0  0
   -2.4673    2.0244    1.0758 H   0  0  0  0  0  0  0  0  0  0  0  0
   -1.3883    3.0088    2.0619 H   0  0  0  0  0  0  0  0  0  0  0  0
   -1.1007    3.4900   -0.3007 S   0  0  0  0  0  0  0  0  0  0  0  0
    0.4846    4.2984    0.1574 C   0  0  0  0  0  0  0  0  0  0  0  0
    1.2886    3.5591    0.2209 H   0  0  0  0  0  0  0  0  0  0  0  0
    0.7570    5.0415   -0.5979 H   0  0  0  0  0  0  0  0  0  0  0  0
    0.3900    4.8010    1.1246 H   0  0  0  0  0  0  0  0  0  0  0  0
    0.7635   -0.6363    0.0066 C   0  0  0  0  0  0  0  0  0  0  0  0
    1.8014   -0.3197    0.5779 O   0  0  0  0  0  0  0  0  0  0  0  0
    0.7990   -1.7170   -0.8568 N   0  0  0  0  0  0  0  0  0  0  0  0
   -0.1144   -2.0780   -1.1143 H   0  0  0  0  0  0  0  0  0  0  0  0
    1.9252   -2.6418   -0.8972 C   0  0  0  0  0  0  0  0  0  0  0  0
    2.0554   -3.1279    0.0755 H   0  0  0  0  0  0  0  0  0  0  0  0
    1.7520   -3.4142   -1.6522 H   0  0  0  0  0  0  0  0  0  0  0  0
    2.8491   -2.1126   -1.1535 H   0  0  0  0  0  0  0  0  0  0  0  0
  1  2  1  0  0  0  0
  2  3  1  0  0  0  0
  2  4  1  0  0  0  0
  2  5  1  0  0  0  0
  5  6  2  0  0  0  0
  5  7  1  0  0  0  0
  7  8  1  0  0  0  0
  7  9  1  0  0  0  0
  9 10  1  0  0  0  0
  9 11  1  0  0  0  0
  9 22  1  0  0  0  0
 11 12  1  0  0  0  0
 11 13  1  0  0  0  0
 11 14  1  0  0  0  0
 14 15  1  0  0  0  0
 14 16  1  0  0  0  0
 14 17  1  0  0  0  0
 17 18  1  0  0  0  0
 18 19  1  0  0  0  0
 18 20  1  0  0  0  0
 18 21  1  0  0  0  0
 22 23  2  0  0  0  0
 22 24  1  0  0  0  0
 24 25  1  0  0  0  0
 24 26  1  0  0  0  0
 26 27  1  0  0  0  0
 26 28  1  0  0  0  0
 26 29  1  0  0  0  0
M  END
$$$$

  -OEChem-01062216093D

 29 28  0     1  0  0  0  0  0999 V2000
   -3.6833   -3.0268    0.9679 H   0  0  0  0  0  0  0  0  0  0  0  0
   -3.5751   -2.0540    0.4795 C   0  0  0  0  0  0  0  0  0  0  0  0
   -4.2249   -1.3350    0.9840 H   0  0  0  0  0  0  0  0  0  0  0  0
   -3.8860   -2.1482   -0.5637 H   0  0  0  0  0  0  0  0  0  0  0  0
   -2.1319   -1.5913    0.5526 C   0  0  0  0  0  0  0  0  0  0  0  0
   -1.3039   -2.3141    1.0741 O   0  0  0  0  0  0  0  0  0  0  0  0
   -1.7954   -0.3598    0.0198 N   0  0  0  0  0  0  0  0  0  0  0  0
   -2.5701    0.1771   -0.3589 H   0  0  0  0  0  0  0  0  0  0  0  0
   -0.4715    0.3051    0.0324 C   0  0  1  0  0  0  0  0  0  0  0  0
   -0.3765    0.8979   -0.8814 H   0  0  0  0  0  0  0  0  0  0  0  0
   -0.4514    1.2538    1.2546 C   0  0  0  0  0  0  0  0  0  0  0  0
   -0.6636    0.6759    2.1605 H   0  0  0  0  0  0  0  0  0  0  0  0
    0.5489    1.6805    1.3739 H   0  0  0  0  0  0  0  0  0  0  0  0
   -1.4489    2.4159    1.1431 C   0  0  0  0  0  0  0  0  0  0  0  0
   -2.4674    2.0245    1.0677 H   0  0  0  0  0  0  0  0  0  0  0  0
   -1.3994    3.0194    2.0551 H   0  0  0  0  0  0  0  0  0  0  0  0
   -1.1043    3.4946   -0.3082 S   0  0  0  0  0  0  0  0  0  0  0  0
    0.4742    4.3119    0.1582 C   0  0  0  0  0  0  0  0  0  0  0  0
    1.2828    3.5778    0.2216 H   0  0  0  0  0  0  0  0  0  0  0  0
    0.7442    5.0602   -0.5928 H   0  0  0  0  0  0  0  0  0  0  0  0
    0.3729    4.8092    1.1273 H   0  0  0  0  0  0  0  0  0  0  0  0
    0.7710   -0.6310    0.0268 C   0  0  0  0  0  0  0  0  0  0  0  0
    1.7056   -0.4724    0.8050 O   0  0  0  0  0  0  0  0  0  0  0  0
    0.9400   -1.5061   -1.0316 N   0  0  0  0  0  0  0  0  0  0  0  0
    0.0986   -1.7257   -1.5543 H   0  0  0  0  0  0  0  0  0  0  0  0
    2.0516   -2.4469   -1.0945 C   0  0  0  0  0  0  0  0  0  0  0  0
    2.0223   -3.1297   -0.2386 H   0  0  0  0  0  0  0  0  0  0  0  0
    1.9951   -3.0378   -2.0135 H   0  0  0  0  0  0  0  0  0  0  0  0
    3.0077   -1.9131   -1.0871 H   0  0  0  0  0  0  0  0  0  0  0  0
  1  2  1  0  0  0  0
  2  3  1  0  0  0  0
  2  4  1  0  0  0  0
  2  5  1  0  0  0  0
  5  6  2  0  0  0  0
  5  7  1  0  0  0  0
  7  8  1  0  0  0  0
  7  9  1  0  0  0  0
  9 10  1  0  0  0  0
  9 11  1  0  0  0  0
  9 22  1  0  0  0  0
 11 12  1  0  0  0  0
 11 13  1  0  0  0  0
 11 14  1  0  0  0  0
 14 15  1  0  0  0  0
 14 16  1  0  0  0  0
 14 17  1  0  0  0  0
 17 18  1  0  0  0  0
 18 19  1  0  0  0  0
 18 20  1  0  0  0  0
 18 21  1  0  0  0  0
 22 23  2  0  0  0  0
 22 24  1  0  0  0  0
 24 25  1  0  0  0  0
 24 26  1  0  0  0  0
 26 27  1  0  0  0  0
 26 28  1  0  0  0  0
 26 29  1  0  0  0  0
M  END
$$$$

  -OEChem-01062216093D

 29 28  0     1  0  0  0  0  0999 V2000
   -3.6898   -3.0247    0.9793 H   0  0  0  0  0  0  0  0  0  0  0  0
   -3.5788   -2.0531    0.4892 C   0  0  0  0  0  0  0  0  0  0  0  0
   -4.2187   -1.3288    0.9988 H   0  0  0  0  0  0  0  0  0  0  0  0
   -3.8990   -2.1460   -0.5512 H   0  0  0  0  0  0  0  0  0  0  0  0
   -2.1319   -1.6003    0.5488 C   0  0  0  0  0  0  0  0  0  0  0  0
   -1.3046   -2.3330    1.0565 O   0  0  0  0  0  0  0  0  0  0  0  0
   -1.7939   -0.3698    0.0145 N   0  0  0  0  0  0  0  0  0  0  0  0
   -2.5696    0.1707   -0.3564 H   0  0  0  0  0  0  0  0  0  0  0  0
   -0.4714    0.2959    0.0354 C   0  0  1  0  0  0  0  0  0  0  0  0
   -0.3716    0.8895   -0.8772 H   0  0  0  0  0  0  0  0  0  0  0  0
   -0.4549    1.2464    1.2551 C   0  0  0  0  0  0  0  0  0  0  0  0
   -0.6737    0.6701    2.1606 H   0  0  0  0  0  0  0  0  0  0  0  0
    0.5478    1.6671    1.3774 H   0  0  0  0  0  0  0  0  0  0  0  0
   -1.4503    2.4096    1.1372 C   0  0  0  0  0  0  0  0  0  0  0  0
   -2.4689    2.0190    1.0583 H   0  0  0  0  0  0  0  0  0  0  0  0
   -1.4035    3.0145    2.0485 H   0  0  0  0  0  0  0  0  0  0  0  0
   -1.0989    3.4854   -0.3148 S   0  0  0  0  0  0  0  0  0  0  0  0
    0.4786    4.3028    0.1544 C   0  0  0  0  0  0  0  0  0  0  0  0
    1.2856    3.5679    0.2256 H   0  0  0  0  0  0  0  0  0  0  0  0
    0.7531    5.0464   -0.5996 H   0  0  0  0  0  0  0  0  0  0  0  0
    0.3735    4.8061    1.1201 H   0  0  0  0  0  0  0  0  0  0  0  0
    0.7712   -0.6392    0.0430 C   0  0  0  0  0  0  0  0  0  0  0  0
    1.5803   -0.6365    0.9648 O   0  0  0  0  0  0  0  0  0  0  0  0
    1.1222   -1.2820   -1.1311 N   0  0  0  0  0  0  0  0  0  0  0  0
    0.3951   -1.3569   -1.8348 H   0  0  0  0  0  0  0  0  0  0  0  0
    2.2685   -2.1785   -1.2207 C   0  0  0  0  0  0  0  0  0  0  0  0
    2.1542   -3.0147   -0.5225 H   0  0  0  0  0  0  0  0  0  0  0  0
    2.3562   -2.5809   -2.2343 H   0  0  0  0  0  0  0  0  0  0  0  0
    3.1941   -1.6439   -0.9818 H   0  0  0  0  0  0  0  0  0  0  0  0
  1  2  1  0  0  0  0
  2  3  1  0  0  0  0
  2  4  1  0  0  0  0
  2  5  1  0  0  0  0
  5  6  2  0  0  0  0
  5  7  1  0  0  0  0
  7  8  1  0  0  0  0
  7  9  1  0  0  0  0
  9 10  1  0  0  0  0
  9 11  1  0  0  0  0
  9 22  1  0  0  0  0
 11 12  1  0  0  0  0
 11 13  1  0  0  0  0
 11 14  1  0  0  0  0
 14 15  1  0  0  0  0
 14 16  1  0  0  0  0
 14 17  1  0  0  0  0
 17 18  1  0  0  0  0
 18 19  1  0  0  0  0
 18 20  1  0  0  0  0
 18 21  1  0  0  0  0
 22 23  2  0  0  0  0
 22 24  1  0  0  0  0
 24 25  1  0  0  0  0
 24 26  1  0  0  0  0
 26 27  1  0  0  0  0
 26 28  1  0  0  0  0
 26 29  1  0  0  0  0
M  END
$$$$

  -OEChem-01062216093D

 29 28  0     1  0  0  0  0  0999 V2000
   -3.7268   -3.0136    0.9911 H   0  0  0  0  0  0  0  0  0  0  0  0
   -3.6056   -2.0447    0.4979 C   0  0  0  0  0  0  0  0  0  0  0  0
   -4.2332   -1.3109    1.0090 H   0  0  0  0  0  0  0  0  0  0  0  0
   -3.9322   -2.1361   -0.5406 H   0  0  0  0  0  0  0  0  0  0  0  0
   -2.1522   -1.6114    0.5482 C   0  0  0  0  0  0  0  0  0  0  0  0
   -1.3314   -2.3610    1.0404 O   0  0  0  0  0  0  0  0  0  0  0  0
   -1.8041   -0.3850    0.0112 N   0  0  0  0  0  0  0  0  0  0  0  0
   -2.5786    0.1622   -0.3518 H   0  0  0  0  0  0  0  0  0  0  0  0
   -0.4796    0.2760    0.0330 C   0  0  1  0  0  0  0  0  0  0  0  0
   -0.3818    0.8706   -0.8789 H   0  0  0  0  0  0  0  0  0  0  0  0
   -0.4568    1.2276    1.2508 C   0  0  0  0  0  0  0  0  0  0  0  0
   -0.6792    0.6533    2.1569 H   0  0  0  0  0  0  0  0  0  0  0  0
    0.5503    1.6386    1.3715 H   0  0  0  0  0  0  0  0  0  0  0  0
   -1.4455    2.3967    1.1343 C   0  0  0  0  0  0  0  0  0  0  0  0
   -2.4667    2.0121    1.0581 H   0  0  0  0  0  0  0  0  0  0  0  0
   -1.3930    3.0017    2.0452 H   0  0  0  0  0  0  0  0  0  0  0  0
   -1.0906    3.4702   -0.3186 S   0  0  0  0  0  0  0  0  0  0  0  0
    0.4926    4.2786    0.1471 C   0  0  0  0  0  0  0  0  0  0  0  0
    1.2951    3.5390    0.2197 H   0  0  0  0  0  0  0  0  0  0  0  0
    0.7710    5.0187   -0.6089 H   0  0  0  0  0  0  0  0  0  0  0  0
    0.3917    4.7852    1.1115 H   0  0  0  0  0  0  0  0  0  0  0  0
    0.7680   -0.6525    0.0489 C   0  0  0  0  0  0  0  0  0  0  0  0
    1.4493   -0.8011    1.0578 O   0  0  0  0  0  0  0  0  0  0  0  0
    1.3151   -1.0479   -1.1597 N   0  0  0  0  0  0  0  0  0  0  0  0
    0.7210   -0.9654   -1.9781 H   0  0  0  0  0  0  0  0  0  0  0  0
    2.5187   -1.8659   -1.2512 C   0  0  0  0  0  0  0  0  0  0  0  0
    2.3717   -2.8211   -0.7360 H   0  0  0  0  0  0  0  0  0  0  0  0
    2.7595   -2.0696   -2.2987 H   0  0  0  0  0  0  0  0  0  0  0  0
    3.3698   -1.3479   -0.7967 H   0  0  0  0  0  0  0  0  0  0  0  0
  1  2  1  0  0  0  0
  2  3  1  0  0  0  0
  2  4  1  0  0  0  0
  2  5  1  0  0  0  0
  5  6  2  0  0  0  0
  5  7  1  0  0  0  0
  7  8  1  0  0  0  0
  7  9  1  0  0  0  0
  9 10  1  0  0  0  0
  9 11  1  0  0  0  0
  9 22  1  0  0  0  0
 11 12  1  0  0  0  0
 11 13  1  0  0  0  0
 11 14  1  0  0  0  0
 14 15  1  0  0  0  0
 14 16  1  0  0  0  0
 14 17  1  0  0  0  0
 17 18  1  0  0  0  0
 18 19  1  0  0  0  0
 18 20  1  0  0  0  0
 18 21  1  0  0  0  0
 22 23  2  0  0  0  0
 22 24  1  0  0  0  0
 24 25  1  0  0  0  0
 24 26  1  0  0  0  0
 26 27  1  0  0  0  0
 26 28  1  0  0  0  0
 26 29  1  0  0  0  0
M  END
$$$$

  -OEChem-01062216093D

 29 28  0     1  0  0  0  0  0999 V2000
   -3.7781   -2.9944    1.0037 H   0  0  0  0  0  0  0  0  0  0  0  0
   -3.6420   -2.0280    0.5092 C   0  0  0  0  0  0  0  0  0  0  0  0
   -4.2456   -1.2806    1.0297 H   0  0  0  0  0  0  0  0  0  0  0  0
   -3.9855   -2.1108   -0.5246 H   0  0  0  0  0  0  0  0  0  0  0  0
   -2.1788   -1.6271    0.5395 C   0  0  0  0  0  0  0  0  0  0  0  0
   -1.3689   -2.4009    1.0098 O   0  0  0  0  0  0  0  0  0  0  0  0
   -1.8155   -0.4051    0.0023 N   0  0  0  0  0  0  0  0  0  0  0  0
   -2.5872    0.1527   -0.3499 H   0  0  0  0  0  0  0  0  0  0  0  0
   -0.4873    0.2489    0.0237 C   0  0  1  0  0  0  0  0  0  0  0  0
   -0.3952    0.8446   -0.8880 H   0  0  0  0  0  0  0  0  0  0  0  0
   -0.4558    1.1985    1.2427 C   0  0  0  0  0  0  0  0  0  0  0  0
   -0.6826    0.6250    2.1483 H   0  0  0  0  0  0  0  0  0  0  0  0
    0.5555    1.5990    1.3629 H   0  0  0  0  0  0  0  0  0  0  0  0
   -1.4369    2.3744    1.1313 C   0  0  0  0  0  0  0  0  0  0  0  0
   -2.4606    1.9962    1.0559 H   0  0  0  0  0  0  0  0  0  0  0  0
   -1.3791    2.9767    2.0436 H   0  0  0  0  0  0  0  0  0  0  0  0
   -1.0780    3.4485   -0.3206 S   0  0  0  0  0  0  0  0  0  0  0  0
    0.5119    4.2474    0.1394 C   0  0  0  0  0  0  0  0  0  0  0  0
    1.3089    3.5023    0.2163 H   0  0  0  0  0  0  0  0  0  0  0  0
    0.7958    4.9809   -0.6212 H   0  0  0  0  0  0  0  0  0  0  0  0
    0.4147    4.7609    1.1006 H   0  0  0  0  0  0  0  0  0  0  0  0
    0.7693   -0.6679    0.0441 C   0  0  0  0  0  0  0  0  0  0  0  0
    1.3243   -0.9723    1.0940 O   0  0  0  0  0  0  0  0  0  0  0  0
    1.5057   -0.8075   -1.1207 N   0  0  0  0  0  0  0  0  0  0  0  0
    1.0461   -0.5590   -1.9905 H   0  0  0  0  0  0  0  0  0  0  0  0
    2.7680   -1.5355   -1.1803 C   0  0  0  0  0  0  0  0  0  0  0  0
    2.6282   -2.5709   -0.8517 H   0  0  0  0  0  0  0  0  0  0  0  0
    3.1514   -1.5456   -2.2050 H   0  0  0  0  0  0  0  0  0  0  0  0
    3.5160   -1.0598   -0.5372 H   0  0  0  0  0  0  0  0  0  0  0  0
  1  2  1  0  0  0  0
  2  3  1  0  0  0  0
  2  4  1  0  0  0  0
  2  5  1  0  0  0  0
  5  6  2  0  0  0  0
  5  7  1  0  0  0  0
  7  8  1  0  0  0  0
  7  9  1  0  0  0  0
  9 10  1  0  0  0  0
  9 11  1  0  0  0  0
  9 22  1  0  0  0  0
 11 12  1  0  0  0  0
 11 13  1  0  0  0  0
 11 14  1  0  0  0  0
 14 15  1  0  0  0  0
 14 16  1  0  0  0  0
 14 17  1  0  0  0  0
 17 18  1  0  0  0  0
 18 19  1  0  0  0  0
 18 20  1  0  0  0  0
 18 21  1  0  0  0  0
 22 23  2  0  0  0  0
 22 24  1  0  0  0  0
 24 25  1  0  0  0  0
 24 26  1  0  0  0  0
 26 27  1  0  0  0  0
 26 28  1  0  0  0  0
 26 29  1  0  0  0  0
M  END
$$$$

  -OEChem-01062216093D

 29 28  0     1  0  0  0  0  0999 V2000
   -3.8434   -2.9660    1.0147 H   0  0  0  0  0  0  0  0  0  0  0  0
   -3.6844   -2.0075    0.5121 C   0  0  0  0  0  0  0  0  0  0  0  0
   -4.2708   -1.2419    1.0253 H   0  0  0  0  0  0  0  0  0  0  0  0
   -4.0283   -2.0913   -0.5216 H   0  0  0  0  0  0  0  0  0  0  0  0
   -2.2121   -1.6409    0.5403 C   0  0  0  0  0  0  0  0  0  0  0  0
   -1.4224   -2.4376    1.0044 O   0  0  0  0  0  0  0  0  0  0  0  0
   -1.8262   -0.4268    0.0010 N   0  0  0  0  0  0  0  0  0  0  0  0
   -2.5909    0.1385   -0.3541 H   0  0  0  0  0  0  0  0  0  0  0  0
   -0.4919    0.2161    0.0136 C   0  0  1  0  0  0  0  0  0  0  0  0
   -0.4097    0.8113   -0.8992 H   0  0  0  0  0  0  0  0  0  0  0  0
   -0.4458    1.1618    1.2341 C   0  0  0  0  0  0  0  0  0  0  0  0
   -0.6725    0.5870    2.1391 H   0  0  0  0  0  0  0  0  0  0  0  0
    0.5695    1.5531    1.3513 H   0  0  0  0  0  0  0  0  0  0  0  0
   -1.4196    2.3446    1.1297 C   0  0  0  0  0  0  0  0  0  0  0  0
   -2.4464    1.9735    1.0597 H   0  0  0  0  0  0  0  0  0  0  0  0
   -1.3530    2.9453    2.0425 H   0  0  0  0  0  0  0  0  0  0  0  0
   -1.0604    3.4182   -0.3227 S   0  0  0  0  0  0  0  0  0  0  0  0
    0.5371    4.2058    0.1299 C   0  0  0  0  0  0  0  0  0  0  0  0
    1.3287    3.4550    0.2062 H   0  0  0  0  0  0  0  0  0  0  0  0
    0.8236    4.9351   -0.6337 H   0  0  0  0  0  0  0  0  0  0  0  0
    0.4469    4.7224    1.0901 H   0  0  0  0  0  0  0  0  0  0  0  0
    0.7758   -0.6851    0.0331 C   0  0  0  0  0  0  0  0  0  0  0  0
    1.2186   -1.1485    1.0771 O   0  0  0  0  0  0  0  0  0  0  0  0
    1.6725   -0.5754   -1.0177 N   0  0  0  0  0  0  0  0  0  0  0  0
    1.3365   -0.1482   -1.8746 H   0  0  0  0  0  0  0  0  0  0  0  0
    2.9883   -1.2056   -1.0178 C   0  0  0  0  0  0  0  0  0  0  0  0
    2.8950   -2.2865   -0.8669 H   0  0  0  0  0  0  0  0  0  0  0  0
    3.4919   -1.0317   -1.9735 H   0  0  0  0  0  0  0  0  0  0  0  0
    3.6116   -0.7911   -0.2184 H   0  0  0  0  0  0  0  0  0  0  0  0
  1  2  1  0  0  0  0
  2  3  1  0  0  0  0
  2  4  1  0  0  0  0
  2  5  1  0  0  0  0
  5  6  2  0  0  0  0
  5  7  1  0  0  0  0
  7  8  1  0  0  0  0
  7  9  1  0  0  0  0
  9 10  1  0  0  0  0
  9 11  1  0  0  0  0
  9 22  1  0  0  0  0
 11 12  1  0  0  0  0
 11 13  1  0  0  0  0
 11 14  1  0  0  0  0
 14 15  1  0  0  0  0
 14 16  1  0  0  0  0
 14 17  1  0  0  0  0
 17 18  1  0  0  0  0
 18 19  1  0  0  0  0
 18 20  1  0  0  0  0
 18 21  1  0  0  0  0
 22 23  2  0  0  0  0
 22 24  1  0  0  0  0
 24 25  1  0  0  0  0
 24 26  1  0  0  0  0
 26 27  1  0  0  0  0
 26 28  1  0  0  0  0
 26 29  1  0  0  0  0
M  END
$$$$

  -OEChem-01062216093D

 29 28  0     1  0  0  0  0  0999 V2000
   -3.8229   -3.0582    0.8880 H   0  0  0  0  0  0  0  0  0  0  0  0
   -3.6525   -2.1067    0.3758 C   0  0  0  0  0  0  0  0  0  0  0  0
   -4.4087   -1.3901    0.7050 H   0  0  0  0  0  0  0  0  0  0  0  0
   -3.7523   -2.2662   -0.7004 H   0  0  0  0  0  0  0  0  0  0  0  0
   -2.2650   -1.5823    0.6977 C   0  0  0  0  0  0  0  0  0  0  0  0
   -1.6000   -2.1736    1.5227 O   0  0  0  0  0  0  0  0  0  0  0  0
   -1.8629   -0.3939    0.1148 N   0  0  0  0  0  0  0  0  0  0  0  0
   -2.5593    0.0198   -0.4970 H   0  0  0  0  0  0  0  0  0  0  0  0
   -0.5146    0.2210    0.0616 C   0  0  1  0  0  0  0  0  0  0  0  0
   -0.4662    0.8026   -0.8620 H   0  0  0  0  0  0  0  0  0  0  0  0
   -0.4044    1.1736    1.2706 C   0  0  0  0  0  0  0  0  0  0  0  0
   -0.6079    0.6093    2.1879 H   0  0  0  0  0  0  0  0  0  0  0  0
    0.6206    1.5488    1.3482 H   0  0  0  0  0  0  0  0  0  0  0  0
   -1.3622    2.3710    1.1904 C   0  0  0  0  0  0  0  0  0  0  0  0
   -2.3963    2.0146    1.1598 H   0  0  0  0  0  0  0  0  0  0  0  0
   -1.2549    2.9786    2.0946 H   0  0  0  0  0  0  0  0  0  0  0  0
   -1.0384    3.4239   -0.2858 S   0  0  0  0  0  0  0  0  0  0  0  0
    0.5871    4.1876    0.1021 C   0  0  0  0  0  0  0  0  0  0  0  0
    1.3686    3.4246    0.1555 H   0  0  0  0  0  0  0  0  0  0  0  0
    0.8572    4.9074   -0.6762 H   0  0  0  0  0  0  0  0  0  0  0  0
    0.5400    4.7119    1.0611 H   0  0  0  0  0  0  0  0  0  0  0  0
    0.7613   -0.6705    0.0540 C   0  0  0  0  0  0  0  0  0  0  0  0
    1.0819   -1.4090    0.9724 O   0  0  0  0  0  0  0  0  0  0  0  0
    1.7602   -0.3539   -0.8537 N   0  0  0  0  0  0  0  0  0  0  0  0
    1.5462    0.3345   -1.5680 H   0  0  0  0  0  0  0  0  0  0  0  0
    3.0846   -0.9665   -0.8431 C   0  0  0  0  0  0  0  0  0  0  0  0
    3.0040   -2.0548   -0.9352 H   0  0  0  0  0  0  0  0  0  0  0  0
    3.6818   -0.5929   -1.6803 H   0  0  0  0  0  0  0  0  0  0  0  0
    3.6091   -0.7299    0.0887 H   0  0  0  0  0  0  0  0  0  0  0  0
  1  2  1  0  0  0  0
  2  3  1  0  0  0  0
  2  4  1  0  0  0  0
  2  5  1  0  0  0  0
  5  6  2  0  0  0  0
  5  7  1  0  0  0  0
  7  8  1  0  0  0  0
  7  9  1  0  0  0  0
  9 10  1  0  0  0  0
  9 11  1  0  0  0  0
  9 22  1  0  0  0  0
 11 12  1  0  0  0  0
 11 13  1  0  0  0  0
 11 14  1  0  0  0  0
 14 15  1  0  0  0  0
 14 16  1  0  0  0  0
 14 17  1  0  0  0  0
 17 18  1  0  0  0  0
 18 19  1  0  0  0  0
 18 20  1  0  0  0  0
 18 21  1  0  0  0  0
 22 23  2  0  0  0  0
 22 24  1  0  0  0  0
 24 25  1  0  0  0  0
 24 26  1  0  0  0  0
 26 27  1  0  0  0  0
 26 28  1  0  0  0  0
 26 29  1  0  0  0  0
M  END
$$$$

  -OEChem-01062216093D

 29 28  0     1  0  0  0  0  0999 V2000
   -3.4551   -3.2244    0.9012 H   0  0  0  0  0  0  0  0  0  0  0  0
   -3.3191   -2.3457    0.2643 C   0  0  0  0  0  0  0  0  0  0  0  0
   -4.2667   -1.8062    0.1991 H   0  0  0  0  0  0  0  0  0  0  0  0
   -3.0244   -2.6797   -0.7333 H   0  0  0  0  0  0  0  0  0  0  0  0
   -2.2453   -1.4456    0.8454 C   0  0  0  0  0  0  0  0  0  0  0  0
   -1.8346   -1.6497    1.9757 O   0  0  0  0  0  0  0  0  0  0  0  0
   -1.9287   -0.2590    0.2108 N   0  0  0  0  0  0  0  0  0  0  0  0
   -2.4752   -0.1129   -0.6316 H   0  0  0  0  0  0  0  0  0  0  0  0
   -0.5676    0.3246    0.1634 C   0  0  1  0  0  0  0  0  0  0  0  0
   -0.4945    0.8800   -0.7749 H   0  0  0  0  0  0  0  0  0  0  0  0
   -0.4396    1.3053    1.3487 C   0  0  0  0  0  0  0  0  0  0  0  0
   -0.6671    0.7751    2.2800 H   0  0  0  0  0  0  0  0  0  0  0  0
    0.5930    1.6575    1.4266 H   0  0  0  0  0  0  0  0  0  0  0  0
   -1.3654    2.5239    1.2247 C   0  0  0  0  0  0  0  0  0  0  0  0
   -2.4072    2.1896    1.1891 H   0  0  0  0  0  0  0  0  0  0  0  0
   -1.2561    3.1536    2.1132 H   0  0  0  0  0  0  0  0  0  0  0  0
   -0.9995    3.5257   -0.2776 S   0  0  0  0  0  0  0  0  0  0  0  0
    0.6410    4.2599    0.1045 C   0  0  0  0  0  0  0  0  0  0  0  0
    1.4037    3.4809    0.1857 H   0  0  0  0  0  0  0  0  0  0  0  0
    0.9345    4.9514   -0.6910 H   0  0  0  0  0  0  0  0  0  0  0  0
    0.5981    4.8114    1.0486 H   0  0  0  0  0  0  0  0  0  0  0  0
    0.6774   -0.6109    0.1795 C   0  0  0  0  0  0  0  0  0  0  0  0
    0.6378   -1.8033    0.4447 O   0  0  0  0  0  0  0  0  0  0  0  0
    1.8178   -0.1654   -0.4699 N   0  0  0  0  0  0  0  0  0  0  0  0
    1.8332    0.8009   -0.7807 H   0  0  0  0  0  0  0  0  0  0  0  0
    2.9945   -0.9973   -0.7011 C   0  0  0  0  0  0  0  0  0  0  0  0
    2.7463   -1.8388   -1.3563 H   0  0  0  0  0  0  0  0  0  0  0  0
    3.7859   -0.4104   -1.1771 H   0  0  0  0  0  0  0  0  0  0  0  0
    3.3788   -1.3903    0.2463 H   0  0  0  0  0  0  0  0  0  0  0  0
  1  2  1  0  0  0  0
  2  3  1  0  0  0  0
  2  4  1  0  0  0  0
  2  5  1  0  0  0  0
  5  6  2  0  0  0  0
  5  7  1  0  0  0  0
  7  8  1  0  0  0  0
  7  9  1  0  0  0  0
  9 10  1  0  0  0  0
  9 11  1  0  0  0  0
  9 22  1  0  0  0  0
 11 12  1  0  0  0  0
 11 13  1  0  0  0  0
 11 14  1  0  0  0  0
 14 15  1  0  0  0  0
 14 16  1  0  0  0  0
 14 17  1  0  0  0  0
 17 18  1  0  0  0  0
 18 19  1  0  0  0  0
 18 20  1  0  0  0  0
 18 21  1  0  0  0  0
 22 23  2  0  0  0  0
 22 24  1  0  0  0  0
 24 25  1  0  0  0  0
 24 26  1  0  0  0  0
 26 27  1  0  0  0  0
 26 28  1  0  0  0  0
 26 29  1  0  0  0  0
M  END
$$$$

  -OEChem-01062216093D

 29 28  0     1  0  0  0  0  0999 V2000
   -3.4462   -3.2179    0.9114 H   0  0  0  0  0  0  0  0  0  0  0  0
   -3.3330   -2.3285    0.2853 C   0  0  0  0  0  0  0  0  0  0  0  0
   -4.2782   -1.7812    0.2733 H   0  0  0  0  0  0  0  0  0  0  0  0
   -3.0862   -2.6454   -0.7308 H   0  0  0  0  0  0  0  0  0  0  0  0
   -2.2279   -1.4458    0.8326 C   0  0  0  0  0  0  0  0  0  0  0  0
   -1.7546   -1.6785    1.9337 O   0  0  0  0  0  0  0  0  0  0  0  0
   -1.9181   -0.2584    0.1951 N   0  0  0  0  0  0  0  0  0  0  0  0
   -2.4612   -0.1135   -0.6499 H   0  0  0  0  0  0  0  0  0  0  0  0
   -0.5575    0.3267    0.1634 C   0  0  1  0  0  0  0  0  0  0  0  0
   -0.4604    0.8783   -0.7752 H   0  0  0  0  0  0  0  0  0  0  0  0
   -0.4549    1.3111    1.3504 C   0  0  0  0  0  0  0  0  0  0  0  0
   -0.6978    0.7819    2.2784 H   0  0  0  0  0  0  0  0  0  0  0  0
    0.5723    1.6716    1.4492 H   0  0  0  0  0  0  0  0  0  0  0  0
   -1.3849    2.5246    1.2074 C   0  0  0  0  0  0  0  0  0  0  0  0
   -2.4241    2.1848    1.1548 H   0  0  0  0  0  0  0  0  0  0  0  0
   -1.2941    3.1566    2.0966 H   0  0  0  0  0  0  0  0  0  0  0  0
   -1.0006    3.5273   -0.2893 S   0  0  0  0  0  0  0  0  0  0  0  0
    0.6285    4.2736    0.1161 C   0  0  0  0  0  0  0  0  0  0  0  0
    1.3962    3.5004    0.2041 H   0  0  0  0  0  0  0  0  0  0  0  0
    0.9261    4.9705   -0.6730 H   0  0  0  0  0  0  0  0  0  0  0  0
    0.5684    4.8216    1.0612 H   0  0  0  0  0  0  0  0  0  0  0  0
    0.6712   -0.6291    0.1985 C   0  0  0  0  0  0  0  0  0  0  0  0
    0.5655   -1.8458    0.1130 O   0  0  0  0  0  0  0  0  0  0  0  0
    1.9077   -0.1042   -0.1424 N   0  0  0  0  0  0  0  0  0  0  0  0
    1.9863    0.9056   -0.2047 H   0  0  0  0  0  0  0  0  0  0  0  0
    3.0938   -0.9184   -0.3868 C   0  0  0  0  0  0  0  0  0  0  0  0
    2.9487   -1.5522   -1.2681 H   0  0  0  0  0  0  0  0  0  0  0  0
    3.9639   -0.2781   -0.5603 H   0  0  0  0  0  0  0  0  0  0  0  0
    3.3036   -1.5585    0.4768 H   0  0  0  0  0  0  0  0  0  0  0  0
  1  2  1  0  0  0  0
  2  3  1  0  0  0  0
  2  4  1  0  0  0  0
  2  5  1  0  0  0  0
  5  6  2  0  0  0  0
  5  7  1  0  0  0  0
  7  8  1  0  0  0  0
  7  9  1  0  0  0  0
  9 10  1  0  0  0  0
  9 11  1  0  0  0  0
  9 22  1  0  0  0  0
 11 12  1  0  0  0  0
 11 13  1  0  0  0  0
 11 14  1  0  0  0  0
 14 15  1  0  0  0  0
 14 16  1  0  0  0  0
 14 17  1  0  0  0  0
 17 18  1  0  0  0  0
 18 19  1  0  0  0  0
 18 20  1  0  0  0  0
 18 21  1  0  0  0  0
 22 23  2  0  0  0  0
 22 24  1  0  0  0  0
 24 25  1  0  0  0  0
 24 26  1  0  0  0  0
 26 27  1  0  0  0  0
 26 28  1  0  0  0  0
 26 29  1  0  0  0  0
M  END
$$$$

  -OEChem-01062216093D

 29 28  0     1  0  0  0  0  0999 V2000
   -3.4182   -3.2367    0.8661 H   0  0  0  0  0  0  0  0  0  0  0  0
   -3.3368   -2.3129    0.2865 C   0  0  0  0  0  0  0  0  0  0  0  0
   -4.2528   -1.7321    0.4168 H   0  0  0  0  0  0  0  0  0  0  0  0
   -3.2204   -2.5707   -0.7690 H   0  0  0  0  0  0  0  0  0  0  0  0
   -2.1392   -1.5078    0.7534 C   0  0  0  0  0  0  0  0  0  0  0  0
   -1.4743   -1.9062    1.6971 O   0  0  0  0  0  0  0  0  0  0  0  0
   -1.8763   -0.2804    0.1697 N   0  0  0  0  0  0  0  0  0  0  0  0
   -2.4654   -0.0749   -0.6310 H   0  0  0  0  0  0  0  0  0  0  0  0
   -0.5377    0.3502    0.1619 C   0  0  1  0  0  0  0  0  0  0  0  0
   -0.5359    1.1162   -0.6177 H   0  0  0  0  0  0  0  0  0  0  0  0
   -0.2864    1.0340    1.5288 C   0  0  0  0  0  0  0  0  0  0  0  0
   -0.4021    0.3057    2.3373 H   0  0  0  0  0  0  0  0  0  0  0  0
    0.7418    1.4001    1.5787 H   0  0  0  0  0  0  0  0  0  0  0  0
   -1.2292    2.2190    1.7821 C   0  0  0  0  0  0  0  0  0  0  0  0
   -2.2656    1.8663    1.7738 H   0  0  0  0  0  0  0  0  0  0  0  0
   -1.0334    2.6309    2.7771 H   0  0  0  0  0  0  0  0  0  0  0  0
   -1.0377    3.5538    0.5273 S   0  0  0  0  0  0  0  0  0  0  0  0
    0.6253    4.2428    0.8925 C   0  0  0  0  0  0  0  0  0  0  0  0
    1.4017    3.4975    0.7005 H   0  0  0  0  0  0  0  0  0  0  0  0
    0.8152    5.1133    0.2573 H   0  0  0  0  0  0  0  0  0  0  0  0
    0.6848    4.5550    1.9396 H   0  0  0  0  0  0  0  0  0  0  0  0
    0.6341   -0.6020   -0.2100 C   0  0  0  0  0  0  0  0  0  0  0  0
    0.4247   -1.6649   -0.7840 O   0  0  0  0  0  0  0  0  0  0  0  0
    1.9306   -0.1152   -0.2442 N   0  0  0  0  0  0  0  0  0  0  0  0
    2.0995    0.7957    0.1694 H   0  0  0  0  0  0  0  0  0  0  0  0
    3.0670   -0.8891   -0.7317 C   0  0  0  0  0  0  0  0  0  0  0  0
    2.9466   -1.1188   -1.7956 H   0  0  0  0  0  0  0  0  0  0  0  0
    3.9943   -0.3229   -0.6035 H   0  0  0  0  0  0  0  0  0  0  0  0
    3.1567   -1.8288   -0.1762 H   0  0  0  0  0  0  0  0  0  0  0  0
  1  2  1  0  0  0  0
  2  3  1  0  0  0  0
  2  4  1  0  0  0  0
  2  5  1  0  0  0  0
  5  6  2  0  0  0  0
  5  7  1  0  0  0  0
  7  8  1  0  0  0  0
  7  9  1  0  0  0  0
  9 10  1  0  0  0  0
  9 11  1  0  0  0  0
  9 22  1  0  0  0  0
 11 12  1  0  0  0  0
 11 13  1  0  0  0  0
 11 14  1  0  0  0  0
 14 15  1  0  0  0  0
 14 16  1  0  0  0  0
 14 17  1  0  0  0  0
 17 18  1  0  0  0  0
 18 19  1  0  0  0  0
 18 20  1  0  0  0  0
 18 21  1  0  0  0  0
 22 23  2  0  0  0  0
 22 24  1  0  0  0  0
 24 25  1  0  0  0  0
 24 26  1  0  0  0  0
 26 27  1  0  0  0  0
 26 28  1  0  0  0  0
 26 29  1  0  0  0  0
M  END
$$$$

  -OEChem-01062216093D

 29 28  0     1  0  0  0  0  0999 V2000
   -3.3518   -3.2542    0.8327 H   0  0  0  0  0  0  0  0  0  0  0  0
   -3.3082   -2.3066    0.2887 C   0  0  0  0  0  0  0  0  0  0  0  0
   -4.2249   -1.7449    0.4827 H   0  0  0  0  0  0  0  0  0  0  0  0
   -3.2355   -2.5196   -0.7807 H   0  0  0  0  0  0  0  0  0  0  0  0
   -2.1020   -1.5031    0.7358 C   0  0  0  0  0  0  0  0  0  0  0  0
   -1.3996   -1.9205    1.6440 O   0  0  0  0  0  0  0  0  0  0  0  0
   -1.8586   -0.2668    0.1631 N   0  0  0  0  0  0  0  0  0  0  0  0
   -2.4580   -0.0525   -0.6278 H   0  0  0  0  0  0  0  0  0  0  0  0
   -0.5275    0.3778    0.1593 C   0  0  1  0  0  0  0  0  0  0  0  0
   -0.5245    1.1476   -0.6168 H   0  0  0  0  0  0  0  0  0  0  0  0
   -0.2906    1.0590    1.5304 C   0  0  0  0  0  0  0  0  0  0  0  0
   -0.3994    0.3256    2.3353 H   0  0  0  0  0  0  0  0  0  0  0  0
    0.7301    1.4434    1.5855 H   0  0  0  0  0  0  0  0  0  0  0  0
   -1.2499    2.2312    1.7830 C   0  0  0  0  0  0  0  0  0  0  0  0
   -2.2813    1.8649    1.7676 H   0  0  0  0  0  0  0  0  0  0  0  0
   -1.0652    2.6417    2.7807 H   0  0  0  0  0  0  0  0  0  0  0  0
   -1.0715    3.5746    0.5353 S   0  0  0  0  0  0  0  0  0  0  0  0
    0.5803    4.2858    0.9095 C   0  0  0  0  0  0  0  0  0  0  0  0
    1.3672    3.5512    0.7183 H   0  0  0  0  0  0  0  0  0  0  0  0
    0.7615    5.1606    0.2777 H   0  0  0  0  0  0  0  0  0  0  0  0
    0.6312    4.5960    1.9575 H   0  0  0  0  0  0  0  0  0  0  0  0
    0.6302   -0.5858   -0.2278 C   0  0  0  0  0  0  0  0  0  0  0  0
    0.4150   -1.5204   -0.9925 O   0  0  0  0  0  0  0  0  0  0  0  0
    1.9525   -0.2505    0.0127 N   0  0  0  0  0  0  0  0  0  0  0  0
    2.1279    0.5185    0.6502 H   0  0  0  0  0  0  0  0  0  0  0  0
    3.0745   -1.0826   -0.4068 C   0  0  0  0  0  0  0  0  0  0  0  0
    3.0948   -1.1780   -1.4976 H   0  0  0  0  0  0  0  0  0  0  0  0
    4.0193   -0.6364   -0.0823 H   0  0  0  0  0  0  0  0  0  0  0  0
    2.9943   -2.0826    0.0326 H   0  0  0  0  0  0  0  0  0  0  0  0
  1  2  1  0  0  0  0
  2  3  1  0  0  0  0
  2  4  1  0  0  0  0
  2  5  1  0  0  0  0
  5  6  2  0  0  0  0
  5  7  1  0  0  0  0
  7  8  1  0  0  0  0
  7  9  1  0  0  0  0
  9 10  1  0  0  0  0
  9 11  1  0  0  0  0
  9 22  1  0  0  0  0
 11 12  1  0  0  0  0
 11 13  1  0  0  0  0
 11 14  1  0  0  0  0
 14 15  1  0  0  0  0
 14 16  1  0  0  0  0
 14 17  1  0  0  0  0
 17 18  1  0  0  0  0
 18 19  1  0  0  0  0
 18 20  1  0  0  0  0
 18 21  1  0  0  0  0
 22 23  2  0  0  0  0
 22 24  1  0  0  0  0
 24 25  1  0  0  0  0
 24 26  1  0  0  0  0
 26 27  1  0  0  0  0
 26 28  1  0  0  0  0
 26 29  1  0  0  0  0
M  END
$$$$

  -OEChem-01062216093D

 29 28  0     1  0  0  0  0  0999 V2000
   -3.3166   -3.2589    0.8221 H   0  0  0  0  0  0  0  0  0  0  0  0
   -3.2885   -2.3035    0.2905 C   0  0  0  0  0  0  0  0  0  0  0  0
   -4.2015   -1.7471    0.5149 H   0  0  0  0  0  0  0  0  0  0  0  0
   -3.2430   -2.5011   -0.7834 H   0  0  0  0  0  0  0  0  0  0  0  0
   -2.0732   -1.5034    0.7191 C   0  0  0  0  0  0  0  0  0  0  0  0
   -1.3439   -1.9341    1.5995 O   0  0  0  0  0  0  0  0  0  0  0  0
   -1.8425   -0.2609    0.1559 N   0  0  0  0  0  0  0  0  0  0  0  0
   -2.4486   -0.0396   -0.6283 H   0  0  0  0  0  0  0  0  0  0  0  0
   -0.5194    0.3979    0.1589 C   0  0  1  0  0  0  0  0  0  0  0  0
   -0.5172    1.1693   -0.6158 H   0  0  0  0  0  0  0  0  0  0  0  0
   -0.2912    1.0797    1.5309 C   0  0  0  0  0  0  0  0  0  0  0  0
   -0.3916    0.3438    2.3345 H   0  0  0  0  0  0  0  0  0  0  0  0
    0.7246    1.4782    1.5833 H   0  0  0  0  0  0  0  0  0  0  0  0
   -1.2620    2.2418    1.7846 C   0  0  0  0  0  0  0  0  0  0  0  0
   -2.2901    1.8658    1.7685 H   0  0  0  0  0  0  0  0  0  0  0  0
   -1.0814    2.6534    2.7825 H   0  0  0  0  0  0  0  0  0  0  0  0
   -1.0940    3.5869    0.5378 S   0  0  0  0  0  0  0  0  0  0  0  0
    0.5511    4.3124    0.9144 C   0  0  0  0  0  0  0  0  0  0  0  0
    1.3453    3.5862    0.7208 H   0  0  0  0  0  0  0  0  0  0  0  0
    0.7240    5.1907    0.2853 H   0  0  0  0  0  0  0  0  0  0  0  0
    0.5994    4.6192    1.9634 H   0  0  0  0  0  0  0  0  0  0  0  0
    0.6333   -0.5678   -0.2346 C   0  0  0  0  0  0  0  0  0  0  0  0
    0.4561   -1.3629   -1.1514 O   0  0  0  0  0  0  0  0  0  0  0  0
    1.9197   -0.4150    0.2550 N   0  0  0  0  0  0  0  0  0  0  0  0
    2.0305    0.1783    1.0703 H   0  0  0  0  0  0  0  0  0  0  0  0
    3.0144   -1.3069   -0.1086 C   0  0  0  0  0  0  0  0  0  0  0  0
    3.1934   -1.2741   -1.1884 H   0  0  0  0  0  0  0  0  0  0  0  0
    3.9338   -1.0047    0.4015 H   0  0  0  0  0  0  0  0  0  0  0  0
    2.7801   -2.3373    0.1791 H   0  0  0  0  0  0  0  0  0  0  0  0
  1  2  1  0  0  0  0
  2  3  1  0  0  0  0
  2  4  1  0  0  0  0
  2  5  1  0  0  0  0
  5  6  2  0  0  0  0
  5  7  1  0  0  0  0
  7  8  1  0  0  0  0
  7  9  1  0  0  0  0
  9 10  1  0  0  0  0
  9 11  1  0  0  0  0
  9 22  1  0  0  0  0
 11 12  1  0  0  0  0
 11 13  1  0  0  0  0
 11 14  1  0  0  0  0
 14 15  1  0  0  0  0
 14 16  1  0  0  0  0
 14 17  1  0  0  0  0
 17 18  1  0  0  0  0
 18 19  1  0  0  0  0
 18 20  1  0  0  0  0
 18 21  1  0  0  0  0
 22 23  2  0  0  0  0
 22 24  1  0  0  0  0
 24 25  1  0  0  0  0
 24 26  1  0  0  0  0
 26 27  1  0  0  0  0
 26 28  1  0  0  0  0
 26 29  1  0  0  0  0
M  END
$$$$

  -OEChem-01062216093D

 29 28  0     1  0  0  0  0  0999 V2000
   -3.2905   -3.2639    0.8109 H   0  0  0  0  0  0  0  0  0  0  0  0
   -3.2751   -2.3001    0.2943 C   0  0  0  0  0  0  0  0  0  0  0  0
   -4.1826   -1.7479    0.5492 H   0  0  0  0  0  0  0  0  0  0  0  0
   -3.2547   -2.4803   -0.7834 H   0  0  0  0  0  0  0  0  0  0  0  0
   -2.0510   -1.5058    0.7072 C   0  0  0  0  0  0  0  0  0  0  0  0
   -1.3016   -1.9484    1.5649 O   0  0  0  0  0  0  0  0  0  0  0  0
   -1.8263   -0.2603    0.1491 N   0  0  0  0  0  0  0  0  0  0  0  0
   -2.4436   -0.0239   -0.6221 H   0  0  0  0  0  0  0  0  0  0  0  0
   -0.5096    0.4084    0.1600 C   0  0  1  0  0  0  0  0  0  0  0  0
   -0.5079    1.1790   -0.6157 H   0  0  0  0  0  0  0  0  0  0  0  0
   -0.2897    1.0943    1.5302 C   0  0  0  0  0  0  0  0  0  0  0  0
   -0.3897    0.3593    2.3350 H   0  0  0  0  0  0  0  0  0  0  0  0
    0.7257    1.4961    1.5798 H   0  0  0  0  0  0  0  0  0  0  0  0
   -1.2681    2.2514    1.7802 C   0  0  0  0  0  0  0  0  0  0  0  0
   -2.2939    1.8696    1.7621 H   0  0  0  0  0  0  0  0  0  0  0  0
   -1.0919    2.6656    2.7778 H   0  0  0  0  0  0  0  0  0  0  0  0
   -1.1066    3.5964    0.5327 S   0  0  0  0  0  0  0  0  0  0  0  0
    0.5336    4.3297    0.9152 C   0  0  0  0  0  0  0  0  0  0  0  0
    1.3318    3.6061    0.7275 H   0  0  0  0  0  0  0  0  0  0  0  0
    0.7062    5.2069    0.2845 H   0  0  0  0  0  0  0  0  0  0  0  0
    0.5753    4.6394    1.9636 H   0  0  0  0  0  0  0  0  0  0  0  0
    0.6434   -0.5553   -0.2314 C   0  0  0  0  0  0  0  0  0  0  0  0
    0.5424   -1.1974   -1.2710 O   0  0  0  0  0  0  0  0  0  0  0  0
    1.8371   -0.6095    0.4681 N   0  0  0  0  0  0  0  0  0  0  0  0
    1.8268   -0.2078    1.4001 H   0  0  0  0  0  0  0  0  0  0  0  0
    2.8933   -1.5592    0.1394 C   0  0  0  0  0  0  0  0  0  0  0  0
    3.2423   -1.4051   -0.8872 H   0  0  0  0  0  0  0  0  0  0  0  0
    3.7441   -1.4279    0.8145 H   0  0  0  0  0  0  0  0  0  0  0  0
    2.5272   -2.5868    0.2368 H   0  0  0  0  0  0  0  0  0  0  0  0
  1  2  1  0  0  0  0
  2  3  1  0  0  0  0
  2  4  1  0  0  0  0
  2  5  1  0  0  0  0
  5  6  2  0  0  0  0
  5  7  1  0  0  0  0
  7  8  1  0  0  0  0
  7  9  1  0  0  0  0
  9 10  1  0  0  0  0
  9 11  1  0  0  0  0
  9 22  1  0  0  0  0
 11 12  1  0  0  0  0
 11 13  1  0  0  0  0
 11 14  1  0  0  0  0
 14 15  1  0  0  0  0
 14 16  1  0  0  0  0
 14 17  1  0  0  0  0
 17 18  1  0  0  0  0
 18 19  1  0  0  0  0
 18 20  1  0  0  0  0
 18 21  1  0  0  0  0
 22 23  2  0  0  0  0
 22 24  1  0  0  0  0
 24 25  1  0  0  0  0
 24 26  1  0  0  0  0
 26 27  1  0  0  0  0
 26 28  1  0  0  0  0
 26 29  1  0  0  0  0
M  END
$$$$

  -OEChem-01062216093D

 29 28  0     1  0  0  0  0  0999 V2000
   -3.3016   -3.2575    0.8127 H   0  0  0  0  0  0  0  0  0  0  0  0
   -3.2890   -2.2886    0.3057 C   0  0  0  0  0  0  0  0  0  0  0  0
   -4.1835   -1.7296    0.5901 H   0  0  0  0  0  0  0  0  0  0  0  0
   -3.2992   -2.4574   -0.7739 H   0  0  0  0  0  0  0  0  0  0  0  0
   -2.0459   -1.5119    0.6956 C   0  0  0  0  0  0  0  0  0  0  0  0
   -1.2849   -1.9668    1.5365 O   0  0  0  0  0  0  0  0  0  0  0  0
   -1.8154   -0.2676    0.1386 N   0  0  0  0  0  0  0  0  0  0  0  0
   -2.4430   -0.0134   -0.6188 H   0  0  0  0  0  0  0  0  0  0  0  0
   -0.5015    0.4051    0.1578 C   0  0  1  0  0  0  0  0  0  0  0  0
   -0.4982    1.1750   -0.6190 H   0  0  0  0  0  0  0  0  0  0  0  0
   -0.2885    1.0934    1.5269 C   0  0  0  0  0  0  0  0  0  0  0  0
   -0.3946    0.3602    2.3325 H   0  0  0  0  0  0  0  0  0  0  0  0
    0.7291    1.4908    1.5789 H   0  0  0  0  0  0  0  0  0  0  0  0
   -1.2694    2.2494    1.7720 C   0  0  0  0  0  0  0  0  0  0  0  0
   -2.2947    1.8662    1.7505 H   0  0  0  0  0  0  0  0  0  0  0  0
   -1.0970    2.6651    2.7698 H   0  0  0  0  0  0  0  0  0  0  0  0
   -1.1051    3.5931    0.5232 S   0  0  0  0  0  0  0  0  0  0  0  0
    0.5335    4.3271    0.9128 C   0  0  0  0  0  0  0  0  0  0  0  0
    1.3322    3.6031    0.7287 H   0  0  0  0  0  0  0  0  0  0  0  0
    0.7092    5.2042    0.2827 H   0  0  0  0  0  0  0  0  0  0  0  0
    0.5709    4.6371    1.9613 H   0  0  0  0  0  0  0  0  0  0  0  0
    0.6585   -0.5523   -0.2224 C   0  0  0  0  0  0  0  0  0  0  0  0
    0.6787   -1.0230   -1.3536 O   0  0  0  0  0  0  0  0  0  0  0  0
    1.7081   -0.8245    0.6381 N   0  0  0  0  0  0  0  0  0  0  0  0
    1.5317   -0.6204    1.6173 H   0  0  0  0  0  0  0  0  0  0  0  0
    2.7390   -1.8053    0.3211 C   0  0  0  0  0  0  0  0  0  0  0  0
    3.2584   -1.5314   -0.6033 H   0  0  0  0  0  0  0  0  0  0  0  0
    3.4767   -1.8528    1.1278 H   0  0  0  0  0  0  0  0  0  0  0  0
    2.2958   -2.7988    0.1953 H   0  0  0  0  0  0  0  0  0  0  0  0
  1  2  1  0  0  0  0
  2  3  1  0  0  0  0
  2  4  1  0  0  0  0
  2  5  1  0  0  0  0
  5  6  2  0  0  0  0
  5  7  1  0  0  0  0
  7  8  1  0  0  0  0
  7  9  1  0  0  0  0
  9 10  1  0  0  0  0
  9 11  1  0  0  0  0
  9 22  1  0  0  0  0
 11 12  1  0  0  0  0
 11 13  1  0  0  0  0
 11 14  1  0  0  0  0
 14 15  1  0  0  0  0
 14 16  1  0  0  0  0
 14 17  1  0  0  0  0
 17 18  1  0  0  0  0
 18 19  1  0  0  0  0
 18 20  1  0  0  0  0
 18 21  1  0  0  0  0
 22 23  2  0  0  0  0
 22 24  1  0  0  0  0
 24 25  1  0  0  0  0
 24 26  1  0  0  0  0
 26 27  1  0  0  0  0
 26 28  1  0  0  0  0
 26 29  1  0  0  0  0
M  END
$$$$

  -OEChem-01062216093D

 29 28  0     1  0  0  0  0  0999 V2000
   -3.3534   -3.2353    0.8337 H   0  0  0  0  0  0  0  0  0  0  0  0
   -3.3215   -2.2724    0.3162 C   0  0  0  0  0  0  0  0  0  0  0  0
   -4.2006   -1.6894    0.6012 H   0  0  0  0  0  0  0  0  0  0  0  0
   -3.3447   -2.4527   -0.7613 H   0  0  0  0  0  0  0  0  0  0  0  0
   -2.0580   -1.5206    0.6888 C   0  0  0  0  0  0  0  0  0  0  0  0
   -1.2947   -1.9897    1.5200 O   0  0  0  0  0  0  0  0  0  0  0  0
   -1.8115   -0.2806    0.1296 N   0  0  0  0  0  0  0  0  0  0  0  0
   -2.4512   -0.0023   -0.6092 H   0  0  0  0  0  0  0  0  0  0  0  0
   -0.4980    0.3923    0.1538 C   0  0  1  0  0  0  0  0  0  0  0  0
   -0.4929    1.1618   -0.6238 H   0  0  0  0  0  0  0  0  0  0  0  0
   -0.2846    1.0807    1.5217 C   0  0  0  0  0  0  0  0  0  0  0  0
   -0.3947    0.3486    2.3277 H   0  0  0  0  0  0  0  0  0  0  0  0
    0.7366    1.4700    1.5730 H   0  0  0  0  0  0  0  0  0  0  0  0
   -1.2627    2.2382    1.7684 C   0  0  0  0  0  0  0  0  0  0  0  0
   -2.2886    1.8570    1.7490 H   0  0  0  0  0  0  0  0  0  0  0  0
   -1.0871    2.6530    2.7658 H   0  0  0  0  0  0  0  0  0  0  0  0
   -1.0984    3.5828    0.5210 S   0  0  0  0  0  0  0  0  0  0  0  0
    0.5416    4.3143    0.9078 C   0  0  0  0  0  0  0  0  0  0  0  0
    1.3388    3.5887    0.7230 H   0  0  0  0  0  0  0  0  0  0  0  0
    0.7180    5.1907    0.2769 H   0  0  0  0  0  0  0  0  0  0  0  0
    0.5810    4.6248    1.9560 H   0  0  0  0  0  0  0  0  0  0  0  0
    0.6709   -0.5581   -0.2112 C   0  0  0  0  0  0  0  0  0  0  0  0
    0.8582   -0.8313   -1.3905 O   0  0  0  0  0  0  0  0  0  0  0  0
    1.5384   -1.0535    0.7459 N   0  0  0  0  0  0  0  0  0  0  0  0
    1.1605   -1.0586    1.6905 H   0  0  0  0  0  0  0  0  0  0  0  0
    2.5619   -2.0402    0.4251 C   0  0  0  0  0  0  0  0  0  0  0  0
    3.2414   -1.6539   -0.3419 H   0  0  0  0  0  0  0  0  0  0  0  0
    3.1501   -2.2774    1.3167 H   0  0  0  0  0  0  0  0  0  0  0  0
    2.1014   -2.9627    0.0561 H   0  0  0  0  0  0  0  0  0  0  0  0
  1  2  1  0  0  0  0
  2  3  1  0  0  0  0
  2  4  1  0  0  0  0
  2  5  1  0  0  0  0
  5  6  2  0  0  0  0
  5  7  1  0  0  0  0
  7  8  1  0  0  0  0
  7  9  1  0  0  0  0
  9 10  1  0  0  0  0
  9 11  1  0  0  0  0
  9 22  1  0  0  0  0
 11 12  1  0  0  0  0
 11 13  1  0  0  0  0
 11 14  1  0  0  0  0
 14 15  1  0  0  0  0
 14 16  1  0  0  0  0
 14 17  1  0  0  0  0
 17 18  1  0  0  0  0
 18 19  1  0  0  0  0
 18 20  1  0  0  0  0
 18 21  1  0  0  0  0
 22 23  2  0  0  0  0
 22 24  1  0  0  0  0
 24 25  1  0  0  0  0
 24 26  1  0  0  0  0
 26 27  1  0  0  0  0
 26 28  1  0  0  0  0
 26 29  1  0  0  0  0
M  END
$$$$

  -OEChem-01062216093D

 29 28  0     1  0  0  0  0  0999 V2000
   -3.4346   -3.2151    0.8371 H   0  0  0  0  0  0  0  0  0  0  0  0
   -3.3847   -2.2499    0.3254 C   0  0  0  0  0  0  0  0  0  0  0  0
   -4.2478   -1.6488    0.6215 H   0  0  0  0  0  0  0  0  0  0  0  0
   -3.4215   -2.4226   -0.7530 H   0  0  0  0  0  0  0  0  0  0  0  0
   -2.1006   -1.5298    0.6908 C   0  0  0  0  0  0  0  0  0  0  0  0
   -1.3468   -2.0179    1.5194 O   0  0  0  0  0  0  0  0  0  0  0  0
   -1.8253   -0.2978    0.1273 N   0  0  0  0  0  0  0  0  0  0  0  0
   -2.4783    0.0107   -0.5877 H   0  0  0  0  0  0  0  0  0  0  0  0
   -0.5067    0.3678    0.1487 C   0  0  1  0  0  0  0  0  0  0  0  0
   -0.5034    1.1367   -0.6296 H   0  0  0  0  0  0  0  0  0  0  0  0
   -0.2866    1.0558    1.5146 C   0  0  0  0  0  0  0  0  0  0  0  0
   -0.3993    0.3245    2.3209 H   0  0  0  0  0  0  0  0  0  0  0  0
    0.7384    1.4352    1.5632 H   0  0  0  0  0  0  0  0  0  0  0  0
   -1.2552    2.2204    1.7656 C   0  0  0  0  0  0  0  0  0  0  0  0
   -2.2842    1.8479    1.7497 H   0  0  0  0  0  0  0  0  0  0  0  0
   -1.0728    2.6344    2.7623 H   0  0  0  0  0  0  0  0  0  0  0  0
   -1.0829    3.5624    0.5171 S   0  0  0  0  0  0  0  0  0  0  0  0
    0.5649    4.2786    0.9004 C   0  0  0  0  0  0  0  0  0  0  0  0
    1.3545    3.5457    0.7121 H   0  0  0  0  0  0  0  0  0  0  0  0
    0.7474    5.1537    0.2695 H   0  0  0  0  0  0  0  0  0  0  0  0
    0.6108    4.5872    1.9490 H   0  0  0  0  0  0  0  0  0  0  0  0
    0.6763   -0.5700   -0.2017 C   0  0  0  0  0  0  0  0  0  0  0  0
    1.0588   -0.6299   -1.3633 O   0  0  0  0  0  0  0  0  0  0  0  0
    1.3488   -1.2851    0.7720 N   0  0  0  0  0  0  0  0  0  0  0  0
    0.7876   -1.4658    1.6052 H   0  0  0  0  0  0  0  0  0  0  0  0
    2.3956   -2.2451    0.4457 C   0  0  0  0  0  0  0  0  0  0  0  0
    3.2097   -1.7560   -0.0994 H   0  0  0  0  0  0  0  0  0  0  0  0
    2.8081   -2.6786    1.3617 H   0  0  0  0  0  0  0  0  0  0  0  0
    1.9937   -3.0546   -0.1727 H   0  0  0  0  0  0  0  0  0  0  0  0
  1  2  1  0  0  0  0
  2  3  1  0  0  0  0
  2  4  1  0  0  0  0
  2  5  1  0  0  0  0
  5  6  2  0  0  0  0
  5  7  1  0  0  0  0
  7  8  1  0  0  0  0
  7  9  1  0  0  0  0
  9 10  1  0  0  0  0
  9 11  1  0  0  0  0
  9 22  1  0  0  0  0
 11 12  1  0  0  0  0
 11 13  1  0  0  0  0
 11 14  1  0  0  0  0
 14 15  1  0  0  0  0
 14 16  1  0  0  0  0
 14 17  1  0  0  0  0
 17 18  1  0  0  0  0
 18 19  1  0  0  0  0
 18 20  1  0  0  0  0
 18 21  1  0  0  0  0
 22 23  2  0  0  0  0
 22 24  1  0  0  0  0
 24 25  1  0  0  0  0
 24 26  1  0  0  0  0
 26 27  1  0  0  0  0
 26 28  1  0  0  0  0
 26 29  1  0  0  0  0
M  END
$$$$

  -OEChem-01062216093D

 29 28  0     1  0  0  0  0  0999 V2000
   -3.5658   -3.1719    0.8232 H   0  0  0  0  0  0  0  0  0  0  0  0
   -3.4908   -2.1923    0.3427 C   0  0  0  0  0  0  0  0  0  0  0  0
   -4.3140   -1.5647    0.6925 H   0  0  0  0  0  0  0  0  0  0  0  0
   -3.5764   -2.3254   -0.7385 H   0  0  0  0  0  0  0  0  0  0  0  0
   -2.1628   -1.5428    0.6829 C   0  0  0  0  0  0  0  0  0  0  0  0
   -1.4292   -2.0682    1.5056 O   0  0  0  0  0  0  0  0  0  0  0  0
   -1.8392   -0.3250    0.1153 N   0  0  0  0  0  0  0  0  0  0  0  0
   -2.5075    0.0272   -0.5646 H   0  0  0  0  0  0  0  0  0  0  0  0
   -0.5135    0.3314    0.1299 C   0  0  1  0  0  0  0  0  0  0  0  0
   -0.5131    1.1012   -0.6480 H   0  0  0  0  0  0  0  0  0  0  0  0
   -0.2911    1.0130    1.4974 C   0  0  0  0  0  0  0  0  0  0  0  0
   -0.4065    0.2775    2.2998 H   0  0  0  0  0  0  0  0  0  0  0  0
    0.7363    1.3863    1.5482 H   0  0  0  0  0  0  0  0  0  0  0  0
   -1.2536    2.1817    1.7532 C   0  0  0  0  0  0  0  0  0  0  0  0
   -2.2842    1.8143    1.7357 H   0  0  0  0  0  0  0  0  0  0  0  0
   -1.0687    2.5896    2.7519 H   0  0  0  0  0  0  0  0  0  0  0  0
   -1.0761    3.5292    0.5113 S   0  0  0  0  0  0  0  0  0  0  0  0
    0.5751    4.2358    0.8972 C   0  0  0  0  0  0  0  0  0  0  0  0
    1.3614    3.5001    0.7053 H   0  0  0  0  0  0  0  0  0  0  0  0
    0.7617    5.1130    0.2705 H   0  0  0  0  0  0  0  0  0  0  0  0
    0.6229    4.5394    1.9471 H   0  0  0  0  0  0  0  0  0  0  0  0
    0.6938   -0.5840   -0.2000 C   0  0  0  0  0  0  0  0  0  0  0  0
    1.2610   -0.4481   -1.2764 O   0  0  0  0  0  0  0  0  0  0  0  0
    1.1879   -1.5023    0.7067 N   0  0  0  0  0  0  0  0  0  0  0  0
    0.5204   -1.7738    1.4329 H   0  0  0  0  0  0  0  0  0  0  0  0
    2.2620   -2.4320    0.3825 C   0  0  0  0  0  0  0  0  0  0  0  0
    3.1617   -1.8880    0.0761 H   0  0  0  0  0  0  0  0  0  0  0  0
    2.5101   -3.0401    1.2576 H   0  0  0  0  0  0  0  0  0  0  0  0
    1.9588   -3.0988   -0.4314 H   0  0  0  0  0  0  0  0  0  0  0  0
  1  2  1  0  0  0  0
  2  3  1  0  0  0  0
  2  4  1  0  0  0  0
  2  5  1  0  0  0  0
  5  6  2  0  0  0  0
  5  7  1  0  0  0  0
  7  8  1  0  0  0  0
  7  9  1  0  0  0  0
  9 10  1  0  0  0  0
  9 11  1  0  0  0  0
  9 22  1  0  0  0  0
 11 12  1  0  0  0  0
 11 13  1  0  0  0  0
 11 14  1  0  0  0  0
 14 15  1  0  0  0  0
 14 16  1  0  0  0  0
 14 17  1  0  0  0  0
 17 18  1  0  0  0  0
 18 19  1  0  0  0  0
 18 20  1  0  0  0  0
 18 21  1  0  0  0  0
 22 23  2  0  0  0  0
 22 24  1  0  0  0  0
 24 25  1  0  0  0  0
 24 26  1  0  0  0  0
 26 27  1  0  0  0  0
 26 28  1  0  0  0  0
 26 29  1  0  0  0  0
M  END
$$$$

  -OEChem-01062216093D

 29 28  0     1  0  0  0  0  0999 V2000
   -3.6799   -3.1310    0.8250 H   0  0  0  0  0  0  0  0  0  0  0  0
   -3.5740   -2.1537    0.3451 C   0  0  0  0  0  0  0  0  0  0  0  0
   -4.3796   -1.5020    0.6919 H   0  0  0  0  0  0  0  0  0  0  0  0
   -3.6590   -2.2842   -0.7366 H   0  0  0  0  0  0  0  0  0  0  0  0
   -2.2287   -1.5441    0.6908 C   0  0  0  0  0  0  0  0  0  0  0  0
   -1.5224   -2.0886    1.5236 O   0  0  0  0  0  0  0  0  0  0  0  0
   -1.8670   -0.3393    0.1182 N   0  0  0  0  0  0  0  0  0  0  0  0
   -2.5369    0.0327   -0.5495 H   0  0  0  0  0  0  0  0  0  0  0  0
   -0.5328    0.3052    0.1197 C   0  0  1  0  0  0  0  0  0  0  0  0
   -0.5377    1.0749   -0.6584 H   0  0  0  0  0  0  0  0  0  0  0  0
   -0.2994    0.9825    1.4866 C   0  0  0  0  0  0  0  0  0  0  0  0
   -0.4143    0.2443    2.2869 H   0  0  0  0  0  0  0  0  0  0  0  0
    0.7306    1.3491    1.5336 H   0  0  0  0  0  0  0  0  0  0  0  0
   -1.2511    2.1583    1.7512 C   0  0  0  0  0  0  0  0  0  0  0  0
   -2.2852    1.8005    1.7411 H   0  0  0  0  0  0  0  0  0  0  0  0
   -1.0551    2.5627    2.7493 H   0  0  0  0  0  0  0  0  0  0  0  0
   -1.0689    3.5070    0.5114 S   0  0  0  0  0  0  0  0  0  0  0  0
    0.5905    4.1978    0.8911 C   0  0  0  0  0  0  0  0  0  0  0  0
    1.3690    3.4539    0.6978 H   0  0  0  0  0  0  0  0  0  0  0  0
    0.7840    5.0722    0.2626 H   0  0  0  0  0  0  0  0  0  0  0  0
    0.6444    4.5025    1.9404 H   0  0  0  0  0  0  0  0  0  0  0  0
    0.6911   -0.5930   -0.2019 C   0  0  0  0  0  0  0  0  0  0  0  0
    1.4063   -0.2913   -1.1485 O   0  0  0  0  0  0  0  0  0  0  0  0
    1.0330   -1.6956    0.5561 N   0  0  0  0  0  0  0  0  0  0  0  0
    0.3250   -2.0052    1.2273 H   0  0  0  0  0  0  0  0  0  0  0  0
    2.1208   -2.6033    0.2170 C   0  0  0  0  0  0  0  0  0  0  0  0
    3.0707   -2.0613    0.1624 H   0  0  0  0  0  0  0  0  0  0  0  0
    2.2125   -3.3819    0.9803 H   0  0  0  0  0  0  0  0  0  0  0  0
    1.9321   -3.0836   -0.7488 H   0  0  0  0  0  0  0  0  0  0  0  0
  1  2  1  0  0  0  0
  2  3  1  0  0  0  0
  2  4  1  0  0  0  0
  2  5  1  0  0  0  0
  5  6  2  0  0  0  0
  5  7  1  0  0  0  0
  7  8  1  0  0  0  0
  7  9  1  0  0  0  0
  9 10  1  0  0  0  0
  9 11  1  0  0  0  0
  9 22  1  0  0  0  0
 11 12  1  0  0  0  0
 11 13  1  0  0  0  0
 11 14  1  0  0  0  0
 14 15  1  0  0  0  0
 14 16  1  0  0  0  0
 14 17  1  0  0  0  0
 17 18  1  0  0  0  0
 18 19  1  0  0  0  0
 18 20  1  0  0  0  0
 18 21  1  0  0  0  0
 22 23  2  0  0  0  0
 22 24  1  0  0  0  0
 24 25  1  0  0  0  0
 24 26  1  0  0  0  0
 26 27  1  0  0  0  0
 26 28  1  0  0  0  0
 26 29  1  0  0  0  0
M  END
$$$$

  -OEChem-01062216093D

 29 28  0     1  0  0  0  0  0999 V2000
   -3.8268   -3.0526    0.8929 H   0  0  0  0  0  0  0  0  0  0  0  0
   -3.6760   -2.1017    0.3739 C   0  0  0  0  0  0  0  0  0  0  0  0
   -4.4462   -1.3978    0.6988 H   0  0  0  0  0  0  0  0  0  0  0  0
   -3.7756   -2.2699   -0.7013 H   0  0  0  0  0  0  0  0  0  0  0  0
   -2.2997   -1.5458    0.6882 C   0  0  0  0  0  0  0  0  0  0  0  0
   -1.5924   -2.1244    1.4962 O   0  0  0  0  0  0  0  0  0  0  0  0
   -1.9125   -0.3489    0.1162 N   0  0  0  0  0  0  0  0  0  0  0  0
   -2.5966    0.0577   -0.5160 H   0  0  0  0  0  0  0  0  0  0  0  0
   -0.5679    0.2770    0.0950 C   0  0  1  0  0  0  0  0  0  0  0  0
   -0.5811    1.0517   -0.6779 H   0  0  0  0  0  0  0  0  0  0  0  0
   -0.3063    0.9398    1.4633 C   0  0  0  0  0  0  0  0  0  0  0  0
   -0.4165    0.1947    2.2578 H   0  0  0  0  0  0  0  0  0  0  0  0
    0.7284    1.2950    1.4986 H   0  0  0  0  0  0  0  0  0  0  0  0
   -1.2387    2.1250    1.7527 C   0  0  0  0  0  0  0  0  0  0  0  0
   -2.2773    1.7807    1.7550 H   0  0  0  0  0  0  0  0  0  0  0  0
   -1.0226    2.5178    2.7512 H   0  0  0  0  0  0  0  0  0  0  0  0
   -1.0575    3.4813    0.5212 S   0  0  0  0  0  0  0  0  0  0  0  0
    0.6164    4.1481    0.8798 C   0  0  0  0  0  0  0  0  0  0  0  0
    1.3827    3.4010    0.6531 H   0  0  0  0  0  0  0  0  0  0  0  0
    0.8050    5.0340    0.2660 H   0  0  0  0  0  0  0  0  0  0  0  0
    0.6966    4.4291    1.9340 H   0  0  0  0  0  0  0  0  0  0  0  0
    0.6599   -0.6109   -0.2455 C   0  0  0  0  0  0  0  0  0  0  0  0
    1.5047   -0.1618   -1.0094 O   0  0  0  0  0  0  0  0  0  0  0  0
    0.8717   -1.8653    0.2903 N   0  0  0  0  0  0  0  0  0  0  0  0
    0.1539   -2.2145    0.9301 H   0  0  0  0  0  0  0  0  0  0  0  0
    2.0287   -2.6987   -0.0059 C   0  0  0  0  0  0  0  0  0  0  0  0
    2.9537   -2.1822    0.2707 H   0  0  0  0  0  0  0  0  0  0  0  0
    1.9730   -3.6344    0.5586 H   0  0  0  0  0  0  0  0  0  0  0  0
    2.0635   -2.9394   -1.0735 H   0  0  0  0  0  0  0  0  0  0  0  0
  1  2  1  0  0  0  0
  2  3  1  0  0  0  0
  2  4  1  0  0  0  0
  2  5  1  0  0  0  0
  5  6  2  0  0  0  0
  5  7  1  0  0  0  0
  7  8  1  0  0  0  0
  7  9  1  0  0  0  0
  9 10  1  0  0  0  0
  9 11  1  0  0  0  0
  9 22  1  0  0  0  0
 11 12  1  0  0  0  0
 11 13  1  0  0  0  0
 11 14  1  0  0  0  0
 14 15  1  0  0  0  0
 14 16  1  0  0  0  0
 14 17  1  0  0  0  0
 17 18  1  0  0  0  0
 18 19  1  0  0  0  0
 18 20  1  0  0  0  0
 18 21  1  0  0  0  0
 22 23  2  0  0  0  0
 22 24  1  0  0  0  0
 24 25  1  0  0  0  0
 24 26  1  0  0  0  0
 26 27  1  0  0  0  0
 26 28  1  0  0  0  0
 26 29  1  0  0  0  0
M  END
$$$$

  -OEChem-01062216093D

 29 28  0     1  0  0  0  0  0999 V2000
   -3.8806   -3.0357    0.7916 H   0  0  0  0  0  0  0  0  0  0  0  0
   -3.7259   -2.0620    0.3179 C   0  0  0  0  0  0  0  0  0  0  0  0
   -4.4738   -1.3628    0.6995 H   0  0  0  0  0  0  0  0  0  0  0  0
   -3.8571   -2.1730   -0.7612 H   0  0  0  0  0  0  0  0  0  0  0  0
   -2.3316   -1.5467    0.6217 C   0  0  0  0  0  0  0  0  0  0  0  0
   -1.6227   -2.1656    1.3975 O   0  0  0  0  0  0  0  0  0  0  0  0
   -1.9234   -0.3468    0.0713 N   0  0  0  0  0  0  0  0  0  0  0  0
   -2.6103    0.0987   -0.5311 H   0  0  0  0  0  0  0  0  0  0  0  0
   -0.5730    0.2683    0.0709 C   0  0  1  0  0  0  0  0  0  0  0  0
   -0.5736    1.0527   -0.6922 H   0  0  0  0  0  0  0  0  0  0  0  0
   -0.3308    0.9106    1.4532 C   0  0  0  0  0  0  0  0  0  0  0  0
   -0.4572    0.1549    2.2353 H   0  0  0  0  0  0  0  0  0  0  0  0
    0.7045    1.2614    1.5118 H   0  0  0  0  0  0  0  0  0  0  0  0
   -1.2625    2.0969    1.7421 C   0  0  0  0  0  0  0  0  0  0  0  0
   -2.3028    1.7582    1.7232 H   0  0  0  0  0  0  0  0  0  0  0  0
   -1.0610    2.4754    2.7490 H   0  0  0  0  0  0  0  0  0  0  0  0
   -1.0539    3.4691    0.5327 S   0  0  0  0  0  0  0  0  0  0  0  0
    0.6166    4.1214    0.9307 C   0  0  0  0  0  0  0  0  0  0  0  0
    1.3830    3.3724    0.7101 H   0  0  0  0  0  0  0  0  0  0  0  0
    0.8217    5.0133    0.3312 H   0  0  0  0  0  0  0  0  0  0  0  0
    0.6777    4.3897    1.9894 H   0  0  0  0  0  0  0  0  0  0  0  0
    0.6623   -0.6121   -0.2684 C   0  0  0  0  0  0  0  0  0  0  0  0
    1.6228   -0.0720   -0.8027 O   0  0  0  0  0  0  0  0  0  0  0  0
    0.7461   -1.9649   -0.0047 N   0  0  0  0  0  0  0  0  0  0  0  0
   -0.0002   -2.3526    0.5764 H   0  0  0  0  0  0  0  0  0  0  0  0
    1.9390   -2.7672   -0.2417 C   0  0  0  0  0  0  0  0  0  0  0  0
    2.7805   -2.3869    0.3467 H   0  0  0  0  0  0  0  0  0  0  0  0
    1.7561   -3.8071    0.0459 H   0  0  0  0  0  0  0  0  0  0  0  0
    2.2108   -2.7457   -1.3023 H   0  0  0  0  0  0  0  0  0  0  0  0
  1  2  1  0  0  0  0
  2  3  1  0  0  0  0
  2  4  1  0  0  0  0
  2  5  1  0  0  0  0
  5  6  2  0  0  0  0
  5  7  1  0  0  0  0
  7  8  1  0  0  0  0
  7  9  1  0  0  0  0
  9 10  1  0  0  0  0
  9 11  1  0  0  0  0
  9 22  1  0  0  0  0
 11 12  1  0  0  0  0
 11 13  1  0  0  0  0
 11 14  1  0  0  0  0
 14 15  1  0  0  0  0
 14 16  1  0  0  0  0
 14 17  1  0  0  0  0
 17 18  1  0  0  0  0
 18 19  1  0  0  0  0
 18 20  1  0  0  0  0
 18 21  1  0  0  0  0
 22 23  2  0  0  0  0
 22 24  1  0  0  0  0
 24 25  1  0  0  0  0
 24 26  1  0  0  0  0
 26 27  1  0  0  0  0
 26 28  1  0  0  0  0
 26 29  1  0  0  0  0
M  END
$$$$

  -OEChem-01062216093D

 29 28  0     1  0  0  0  0  0999 V2000
   -3.8973   -2.9910    0.9627 H   0  0  0  0  0  0  0  0  0  0  0  0
   -3.7492   -2.0345    0.4530 C   0  0  0  0  0  0  0  0  0  0  0  0
   -4.4531   -1.3060    0.8630 H   0  0  0  0  0  0  0  0  0  0  0  0
   -3.9531   -2.1694   -0.6121 H   0  0  0  0  0  0  0  0  0  0  0  0
   -2.3253   -1.5500    0.6514 C   0  0  0  0  0  0  0  0  0  0  0  0
   -1.5604   -2.2063    1.3376 O   0  0  0  0  0  0  0  0  0  0  0  0
   -1.9370   -0.3498    0.0876 N   0  0  0  0  0  0  0  0  0  0  0  0
   -2.6605    0.1279   -0.4429 H   0  0  0  0  0  0  0  0  0  0  0  0
   -0.5875    0.2661    0.0438 C   0  0  1  0  0  0  0  0  0  0  0  0
   -0.6105    1.0503   -0.7189 H   0  0  0  0  0  0  0  0  0  0  0  0
   -0.3118    0.9056    1.4221 C   0  0  0  0  0  0  0  0  0  0  0  0
   -0.4168    0.1456    2.2030 H   0  0  0  0  0  0  0  0  0  0  0  0
    0.7232    1.2595    1.4592 H   0  0  0  0  0  0  0  0  0  0  0  0
   -1.2376    2.0886    1.7404 C   0  0  0  0  0  0  0  0  0  0  0  0
   -2.2777    1.7493    1.7477 H   0  0  0  0  0  0  0  0  0  0  0  0
   -1.0097    2.4648    2.7427 H   0  0  0  0  0  0  0  0  0  0  0  0
   -1.0596    3.4623    0.5281 S   0  0  0  0  0  0  0  0  0  0  0  0
    0.6213    4.1116    0.8868 C   0  0  0  0  0  0  0  0  0  0  0  0
    1.3805    3.3606    0.6492 H   0  0  0  0  0  0  0  0  0  0  0  0
    0.8152    5.0023    0.2820 H   0  0  0  0  0  0  0  0  0  0  0  0
    0.7077    4.3802    1.9436 H   0  0  0  0  0  0  0  0  0  0  0  0
    0.6412   -0.6091   -0.3336 C   0  0  0  0  0  0  0  0  0  0  0  0
    1.6643   -0.0394   -0.6939 O   0  0  0  0  0  0  0  0  0  0  0  0
    0.6297   -1.9904   -0.3483 N   0  0  0  0  0  0  0  0  0  0  0  0
   -0.1332   -2.4188    0.1792 H   0  0  0  0  0  0  0  0  0  0  0  0
    1.8160   -2.7943   -0.6140 C   0  0  0  0  0  0  0  0  0  0  0  0
    2.5923   -2.5904    0.1309 H   0  0  0  0  0  0  0  0  0  0  0  0
    1.5660   -3.8589   -0.5730 H   0  0  0  0  0  0  0  0  0  0  0  0
    2.2149   -2.5724   -1.6093 H   0  0  0  0  0  0  0  0  0  0  0  0
  1  2  1  0  0  0  0
  2  3  1  0  0  0  0
  2  4  1  0  0  0  0
  2  5  1  0  0  0  0
  5  6  2  0  0  0  0
  5  7  1  0  0  0  0
  7  8  1  0  0  0  0
  7  9  1  0  0  0  0
  9 10  1  0  0  0  0
  9 11  1  0  0  0  0
  9 22  1  0  0  0  0
 11 12  1  0  0  0  0
 11 13  1  0  0  0  0
 11 14  1  0  0  0  0
 14 15  1  0  0  0  0
 14 16  1  0  0  0  0
 14 17  1  0  0  0  0
 17 18  1  0  0  0  0
 18 19  1  0  0  0  0
 18 20  1  0  0  0  0
 18 21  1  0  0  0  0
 22 23  2  0  0  0  0
 22 24  1  0  0  0  0
 24 25  1  0  0  0  0
 24 26  1  0  0  0  0
 26 27  1  0  0  0  0
 26 28  1  0  0  0  0
 26 29  1  0  0  0  0
M  END
$$$$

  -OEChem-01062216093D

 29 28  0     1  0  0  0  0  0999 V2000
   -3.8671   -2.9749    0.9956 H   0  0  0  0  0  0  0  0  0  0  0  0
   -3.7291   -2.0144    0.4908 C   0  0  0  0  0  0  0  0  0  0  0  0
   -4.3955   -1.2787    0.9477 H   0  0  0  0  0  0  0  0  0  0  0  0
   -3.9925   -2.1302   -0.5633 H   0  0  0  0  0  0  0  0  0  0  0  0
   -2.2882   -1.5583    0.6177 C   0  0  0  0  0  0  0  0  0  0  0  0
   -1.4882   -2.2560    1.2165 O   0  0  0  0  0  0  0  0  0  0  0  0
   -1.9107   -0.3521    0.0602 N   0  0  0  0  0  0  0  0  0  0  0  0
   -2.6547    0.1624   -0.4031 H   0  0  0  0  0  0  0  0  0  0  0  0
   -0.5652    0.2719    0.0279 C   0  0  1  0  0  0  0  0  0  0  0  0
   -0.5820    1.0568   -0.7336 H   0  0  0  0  0  0  0  0  0  0  0  0
   -0.3138    0.9089    1.4138 C   0  0  0  0  0  0  0  0  0  0  0  0
   -0.4234    0.1442    2.1897 H   0  0  0  0  0  0  0  0  0  0  0  0
    0.7165    1.2730    1.4699 H   0  0  0  0  0  0  0  0  0  0  0  0
   -1.2547    2.0828    1.7230 C   0  0  0  0  0  0  0  0  0  0  0  0
   -2.2919    1.7350    1.7162 H   0  0  0  0  0  0  0  0  0  0  0  0
   -1.0429    2.4578    2.7294 H   0  0  0  0  0  0  0  0  0  0  0  0
   -1.0728    3.4631    0.5189 S   0  0  0  0  0  0  0  0  0  0  0  0
    0.5968    4.1257    0.9047 C   0  0  0  0  0  0  0  0  0  0  0  0
    1.3662    3.3823    0.6758 H   0  0  0  0  0  0  0  0  0  0  0  0
    0.7915    5.0204    0.3060 H   0  0  0  0  0  0  0  0  0  0  0  0
    0.6653    4.3911    1.9636 H   0  0  0  0  0  0  0  0  0  0  0  0
    0.6634   -0.6059   -0.3465 C   0  0  0  0  0  0  0  0  0  0  0  0
    1.7465   -0.0552   -0.5066 O   0  0  0  0  0  0  0  0  0  0  0  0
    0.5664   -1.9503   -0.6523 N   0  0  0  0  0  0  0  0  0  0  0  0
   -0.2380   -2.4138   -0.2278 H   0  0  0  0  0  0  0  0  0  0  0  0
    1.7292   -2.7710   -0.9670 C   0  0  0  0  0  0  0  0  0  0  0  0
    2.4262   -2.7881   -0.1228 H   0  0  0  0  0  0  0  0  0  0  0  0
    1.4181   -3.7976   -1.1826 H   0  0  0  0  0  0  0  0  0  0  0  0
    2.2500   -2.3784   -1.8467 H   0  0  0  0  0  0  0  0  0  0  0  0
  1  2  1  0  0  0  0
  2  3  1  0  0  0  0
  2  4  1  0  0  0  0
  2  5  1  0  0  0  0
  5  6  2  0  0  0  0
  5  7  1  0  0  0  0
  7  8  1  0  0  0  0
  7  9  1  0  0  0  0
  9 10  1  0  0  0  0
  9 11  1  0  0  0  0
  9 22  1  0  0  0  0
 11 12  1  0  0  0  0
 11 13  1  0  0  0  0
 11 14  1  0  0  0  0
 14 15  1  0  0  0  0
 14 16  1  0  0  0  0
 14 17  1  0  0  0  0
 17 18  1  0  0  0  0
 18 19  1  0  0  0  0
 18 20  1  0  0  0  0
 18 21  1  0  0  0  0
 22 23  2  0  0  0  0
 22 24  1  0  0  0  0
 24 25  1  0  0  0  0
 24 26  1  0  0  0  0
 26 27  1  0  0  0  0
 26 28  1  0  0  0  0
 26 29  1  0  0  0  0
M  END
$$$$

  -OEChem-01062216093D

 29 28  0     1  0  0  0  0  0999 V2000
   -3.8049   -2.9720    1.0297 H   0  0  0  0  0  0  0  0  0  0  0  0
   -3.6846   -2.0081    0.5270 C   0  0  0  0  0  0  0  0  0  0  0  0
   -4.3155   -1.2703    1.0286 H   0  0  0  0  0  0  0  0  0  0  0  0
   -4.0091   -2.1101   -0.5115 H   0  0  0  0  0  0  0  0  0  0  0  0
   -2.2331   -1.5701    0.5760 C   0  0  0  0  0  0  0  0  0  0  0  0
   -1.4011   -2.2999    1.0844 O   0  0  0  0  0  0  0  0  0  0  0  0
   -1.8744   -0.3541    0.0278 N   0  0  0  0  0  0  0  0  0  0  0  0
   -2.6378    0.1920   -0.3618 H   0  0  0  0  0  0  0  0  0  0  0  0
   -0.5349    0.2824    0.0157 C   0  0  1  0  0  0  0  0  0  0  0  0
   -0.5435    1.0687   -0.7444 H   0  0  0  0  0  0  0  0  0  0  0  0
   -0.3147    0.9179    1.4089 C   0  0  0  0  0  0  0  0  0  0  0  0
   -0.4295    0.1481    2.1790 H   0  0  0  0  0  0  0  0  0  0  0  0
    0.7090    1.2953    1.4877 H   0  0  0  0  0  0  0  0  0  0  0  0
   -1.2737    2.0805    1.7050 C   0  0  0  0  0  0  0  0  0  0  0  0
   -2.3072    1.7227    1.6800 H   0  0  0  0  0  0  0  0  0  0  0  0
   -1.0830    2.4543    2.7159 H   0  0  0  0  0  0  0  0  0  0  0  0
   -1.0851    3.4662    0.5081 S   0  0  0  0  0  0  0  0  0  0  0  0
    0.5703    4.1460    0.9251 C   0  0  0  0  0  0  0  0  0  0  0  0
    1.3520    3.4113    0.7098 H   0  0  0  0  0  0  0  0  0  0  0  0
    0.7668    5.0436    0.3312 H   0  0  0  0  0  0  0  0  0  0  0  0
    0.6167    4.4109    1.9854 H   0  0  0  0  0  0  0  0  0  0  0  0
    0.6904   -0.6025   -0.3537 C   0  0  0  0  0  0  0  0  0  0  0  0
    1.8164   -0.1214   -0.2961 O   0  0  0  0  0  0  0  0  0  0  0  0
    0.5403   -1.8405   -0.9505 N   0  0  0  0  0  0  0  0  0  0  0  0
   -0.3256   -2.3113   -0.6926 H   0  0  0  0  0  0  0  0  0  0  0  0
    1.6785   -2.6802   -1.3035 C   0  0  0  0  0  0  0  0  0  0  0  0
    2.2585   -2.9354   -0.4104 H   0  0  0  0  0  0  0  0  0  0  0  0
    1.3320   -3.6072   -1.7701 H   0  0  0  0  0  0  0  0  0  0  0  0
    2.3326   -2.1624   -2.0130 H   0  0  0  0  0  0  0  0  0  0  0  0
  1  2  1  0  0  0  0
  2  3  1  0  0  0  0
  2  4  1  0  0  0  0
  2  5  1  0  0  0  0
  5  6  2  0  0  0  0
  5  7  1  0  0  0  0
  7  8  1  0  0  0  0
  7  9  1  0  0  0  0
  9 10  1  0  0  0  0
  9 11  1  0  0  0  0
  9 22  1  0  0  0  0
 11 12  1  0  0  0  0
 11 13  1  0  0  0  0
 11 14  1  0  0  0  0
 14 15  1  0  0  0  0
 14 16  1  0  0  0  0
 14 17  1  0  0  0  0
 17 18  1  0  0  0  0
 18 19  1  0  0  0  0
 18 20  1  0  0  0  0
 18 21  1  0  0  0  0
 22 23  2  0  0  0  0
 22 24  1  0  0  0  0
 24 25  1  0  0  0  0
 24 26  1  0  0  0  0
 26 27  1  0  0  0  0
 26 28  1  0  0  0  0
 26 29  1  0  0  0  0
M  END
$$$$

  -OEChem-01062216093D

 29 28  0     1  0  0  0  0  0999 V2000
   -3.7021   -3.0115    1.0215 H   0  0  0  0  0  0  0  0  0  0  0  0
   -3.6096   -2.0391    0.5289 C   0  0  0  0  0  0  0  0  0  0  0  0
   -4.2388   -1.3181    1.0564 H   0  0  0  0  0  0  0  0  0  0  0  0
   -3.9588   -2.1328   -0.5022 H   0  0  0  0  0  0  0  0  0  0  0  0
   -2.1642   -1.5792    0.5483 C   0  0  0  0  0  0  0  0  0  0  0  0
   -1.3098   -2.3024    1.0266 O   0  0  0  0  0  0  0  0  0  0  0  0
   -1.8365   -0.3497    0.0095 N   0  0  0  0  0  0  0  0  0  0  0  0
   -2.6167    0.2044   -0.3330 H   0  0  0  0  0  0  0  0  0  0  0  0
   -0.5062    0.3039    0.0141 C   0  0  1  0  0  0  0  0  0  0  0  0
   -0.5109    1.0925   -0.7433 H   0  0  0  0  0  0  0  0  0  0  0  0
   -0.3040    0.9386    1.4114 C   0  0  0  0  0  0  0  0  0  0  0  0
   -0.4129    0.1654    2.1789 H   0  0  0  0  0  0  0  0  0  0  0  0
    0.7130    1.3317    1.4985 H   0  0  0  0  0  0  0  0  0  0  0  0
   -1.2794    2.0885    1.7024 C   0  0  0  0  0  0  0  0  0  0  0  0
   -2.3080    1.7179    1.6696 H   0  0  0  0  0  0  0  0  0  0  0  0
   -1.1008    2.4627    2.7155 H   0  0  0  0  0  0  0  0  0  0  0  0
   -1.0983    3.4791    0.5099 S   0  0  0  0  0  0  0  0  0  0  0  0
    0.5452    4.1787    0.9409 C   0  0  0  0  0  0  0  0  0  0  0  0
    1.3378    3.4549    0.7295 H   0  0  0  0  0  0  0  0  0  0  0  0
    0.7344    5.0806    0.3512 H   0  0  0  0  0  0  0  0  0  0  0  0
    0.5803    4.4407    2.0025 H   0  0  0  0  0  0  0  0  0  0  0  0
    0.7081   -0.5936   -0.3604 C   0  0  0  0  0  0  0  0  0  0  0  0
    1.8480   -0.2542   -0.0632 O   0  0  0  0  0  0  0  0  0  0  0  0
    0.5495   -1.6586   -1.2291 N   0  0  0  0  0  0  0  0  0  0  0  0
   -0.3909   -2.0412   -1.2538 H   0  0  0  0  0  0  0  0  0  0  0  0
    1.6515   -2.5446   -1.5849 C   0  0  0  0  0  0  0  0  0  0  0  0
    2.0437   -3.0438   -0.6926 H   0  0  0  0  0  0  0  0  0  0  0  0
    1.3096   -3.3086   -2.2895 H   0  0  0  0  0  0  0  0  0  0  0  0
    2.4621   -1.9802   -2.0579 H   0  0  0  0  0  0  0  0  0  0  0  0
  1  2  1  0  0  0  0
  2  3  1  0  0  0  0
  2  4  1  0  0  0  0
  2  5  1  0  0  0  0
  5  6  2  0  0  0  0
  5  7  1  0  0  0  0
  7  8  1  0  0  0  0
  7  9  1  0  0  0  0
  9 10  1  0  0  0  0
  9 11  1  0  0  0  0
  9 22  1  0  0  0  0
 11 12  1  0  0  0  0
 11 13  1  0  0  0  0
 11 14  1  0  0  0  0
 14 15  1  0  0  0  0
 14 16  1  0  0  0  0
 14 17  1  0  0  0  0
 17 18  1  0  0  0  0
 18 19  1  0  0  0  0
 18 20  1  0  0  0  0
 18 21  1  0  0  0  0
 22 23  2  0  0  0  0
 22 24  1  0  0  0  0
 24 25  1  0  0  0  0
 24 26  1  0  0  0  0
 26 27  1  0  0  0  0
 26 28  1  0  0  0  0
 26 29  1  0  0  0  0
M  END
$$$$

  -OEChem-01062216093D

 29 28  0     1  0  0  0  0  0999 V2000
   -3.6230   -3.0488    0.9975 H   0  0  0  0  0  0  0  0  0  0  0  0
   -3.5449   -2.0734    0.5086 C   0  0  0  0  0  0  0  0  0  0  0  0
   -4.1902   -1.3652    1.0340 H   0  0  0  0  0  0  0  0  0  0  0  0
   -3.8857   -2.1700   -0.5251 H   0  0  0  0  0  0  0  0  0  0  0  0
   -2.1082   -1.5873    0.5389 C   0  0  0  0  0  0  0  0  0  0  0  0
   -1.2468   -2.2916    1.0318 O   0  0  0  0  0  0  0  0  0  0  0  0
   -1.8018   -0.3497    0.0042 N   0  0  0  0  0  0  0  0  0  0  0  0
   -2.5912    0.1978   -0.3268 H   0  0  0  0  0  0  0  0  0  0  0  0
   -0.4808    0.3192    0.0250 C   0  0  1  0  0  0  0  0  0  0  0  0
   -0.4805    1.1070   -0.7334 H   0  0  0  0  0  0  0  0  0  0  0  0
   -0.2941    0.9594    1.4214 C   0  0  0  0  0  0  0  0  0  0  0  0
   -0.3998    0.1872    2.1905 H   0  0  0  0  0  0  0  0  0  0  0  0
    0.7188    1.3623    1.5119 H   0  0  0  0  0  0  0  0  0  0  0  0
   -1.2830    2.0999    1.7014 C   0  0  0  0  0  0  0  0  0  0  0  0
   -2.3073    1.7180    1.6618 H   0  0  0  0  0  0  0  0  0  0  0  0
   -1.1157    2.4787    2.7147 H   0  0  0  0  0  0  0  0  0  0  0  0
   -1.1071    3.4882    0.5052 S   0  0  0  0  0  0  0  0  0  0  0  0
    0.5264    4.2027    0.9494 C   0  0  0  0  0  0  0  0  0  0  0  0
    1.3269    3.4851    0.7466 H   0  0  0  0  0  0  0  0  0  0  0  0
    0.7131    5.1051    0.3598 H   0  0  0  0  0  0  0  0  0  0  0  0
    0.5498    4.4670    2.0107 H   0  0  0  0  0  0  0  0  0  0  0  0
    0.7239   -0.5909   -0.3448 C   0  0  0  0  0  0  0  0  0  0  0  0
    1.8273   -0.4359    0.1665 O   0  0  0  0  0  0  0  0  0  0  0  0
    0.6191   -1.4365   -1.4347 N   0  0  0  0  0  0  0  0  0  0  0  0
   -0.3276   -1.6487   -1.7313 H   0  0  0  0  0  0  0  0  0  0  0  0
    1.6849   -2.3533   -1.8201 C   0  0  0  0  0  0  0  0  0  0  0  0
    1.8941   -3.0577   -1.0080 H   0  0  0  0  0  0  0  0  0  0  0  0
    1.3917   -2.9218   -2.7076 H   0  0  0  0  0  0  0  0  0  0  0  0
    2.6016   -1.8013   -2.0528 H   0  0  0  0  0  0  0  0  0  0  0  0
  1  2  1  0  0  0  0
  2  3  1  0  0  0  0
  2  4  1  0  0  0  0
  2  5  1  0  0  0  0
  5  6  2  0  0  0  0
  5  7  1  0  0  0  0
  7  8  1  0  0  0  0
  7  9  1  0  0  0  0
  9 10  1  0  0  0  0
  9 11  1  0  0  0  0
  9 22  1  0  0  0  0
 11 12  1  0  0  0  0
 11 13  1  0  0  0  0
 11 14  1  0  0  0  0
 14 15  1  0  0  0  0
 14 16  1  0  0  0  0
 14 17  1  0  0  0  0
 17 18  1  0  0  0  0
 18 19  1  0  0  0  0
 18 20  1  0  0  0  0
 18 21  1  0  0  0  0
 22 23  2  0  0  0  0
 22 24  1  0  0  0  0
 24 25  1  0  0  0  0
 24 26  1  0  0  0  0
 26 27  1  0  0  0  0
 26 28  1  0  0  0  0
 26 29  1  0  0  0  0
M  END
$$$$

  -OEChem-01062216093D

 29 28  0     1  0  0  0  0  0999 V2000
   -3.6089   -3.0586    0.9945 H   0  0  0  0  0  0  0  0  0  0  0  0
   -3.5309   -2.0843    0.5037 C   0  0  0  0  0  0  0  0  0  0  0  0
   -4.1825   -1.3774    1.0230 H   0  0  0  0  0  0  0  0  0  0  0  0
   -3.8638   -2.1852   -0.5320 H   0  0  0  0  0  0  0  0  0  0  0  0
   -2.0956   -1.5938    0.5422 C   0  0  0  0  0  0  0  0  0  0  0  0
   -1.2385   -2.2933    1.0488 O   0  0  0  0  0  0  0  0  0  0  0  0
   -1.7907   -0.3564    0.0056 N   0  0  0  0  0  0  0  0  0  0  0  0
   -2.5804    0.1874   -0.3301 H   0  0  0  0  0  0  0  0  0  0  0  0
   -0.4724    0.3149    0.0351 C   0  0  1  0  0  0  0  0  0  0  0  0
   -0.4653    1.1008   -0.7247 H   0  0  0  0  0  0  0  0  0  0  0  0
   -0.2949    0.9625    1.4288 C   0  0  0  0  0  0  0  0  0  0  0  0
   -0.4049    0.1939    2.2014 H   0  0  0  0  0  0  0  0  0  0  0  0
    0.7186    1.3645    1.5207 H   0  0  0  0  0  0  0  0  0  0  0  0
   -1.2863    2.1035    1.6969 C   0  0  0  0  0  0  0  0  0  0  0  0
   -2.3101    1.7205    1.6529 H   0  0  0  0  0  0  0  0  0  0  0  0
   -1.1256    2.4874    2.7093 H   0  0  0  0  0  0  0  0  0  0  0  0
   -1.1038    3.4856    0.4944 S   0  0  0  0  0  0  0  0  0  0  0  0
    0.5266    4.2040    0.9447 C   0  0  0  0  0  0  0  0  0  0  0  0
    1.3298    3.4883    0.7456 H   0  0  0  0  0  0  0  0  0  0  0  0
    0.7134    5.1066    0.3554 H   0  0  0  0  0  0  0  0  0  0  0  0
    0.5456    4.4690    2.0059 H   0  0  0  0  0  0  0  0  0  0  0  0
    0.7279   -0.6041   -0.3237 C   0  0  0  0  0  0  0  0  0  0  0  0
    1.7520   -0.6305    0.3497 O   0  0  0  0  0  0  0  0  0  0  0  0
    0.7482   -1.2090   -1.5680 N   0  0  0  0  0  0  0  0  0  0  0  0
   -0.1391   -1.2545   -2.0576 H   0  0  0  0  0  0  0  0  0  0  0  0
    1.8281   -2.0883   -1.9989 C   0  0  0  0  0  0  0  0  0  0  0  0
    1.9074   -2.9514   -1.3294 H   0  0  0  0  0  0  0  0  0  0  0  0
    1.6391   -2.4508   -3.0137 H   0  0  0  0  0  0  0  0  0  0  0  0
    2.7830   -1.5523   -1.9974 H   0  0  0  0  0  0  0  0  0  0  0  0
  1  2  1  0  0  0  0
  2  3  1  0  0  0  0
  2  4  1  0  0  0  0
  2  5  1  0  0  0  0
  5  6  2  0  0  0  0
  5  7  1  0  0  0  0
  7  8  1  0  0  0  0
  7  9  1  0  0  0  0
  9 10  1  0  0  0  0
  9 11  1  0  0  0  0
  9 22  1  0  0  0  0
 11 12  1  0  0  0  0
 11 13  1  0  0  0  0
 11 14  1  0  0  0  0
 14 15  1  0  0  0  0
 14 16  1  0  0  0  0
 14 17  1  0  0  0  0
 17 18  1  0  0  0  0
 18 19  1  0  0  0  0
 18 20  1  0  0  0  0
 18 21  1  0  0  0  0
 22 23  2  0  0  0  0
 22 24  1  0  0  0  0
 24 25  1  0  0  0  0
 24 26  1  0  0  0  0
 26 27  1  0  0  0  0
 26 28  1  0  0  0  0
 26 29  1  0  0  0  0
M  END
$$$$

  -OEChem-01062216093D

 29 28  0     1  0  0  0  0  0999 V2000
   -3.6250   -3.0657    0.9897 H   0  0  0  0  0  0  0  0  0  0  0  0
   -3.5405   -2.0936    0.4954 C   0  0  0  0  0  0  0  0  0  0  0  0
   -4.2033   -1.3857    0.9986 H   0  0  0  0  0  0  0  0  0  0  0  0
   -3.8532   -2.2008   -0.5459 H   0  0  0  0  0  0  0  0  0  0  0  0
   -2.1076   -1.5992    0.5583 C   0  0  0  0  0  0  0  0  0  0  0  0
   -1.2608   -2.2942    1.0868 O   0  0  0  0  0  0  0  0  0  0  0  0
   -1.7967   -0.3650    0.0178 N   0  0  0  0  0  0  0  0  0  0  0  0
   -2.5818    0.1705   -0.3403 H   0  0  0  0  0  0  0  0  0  0  0  0
   -0.4777    0.3036    0.0427 C   0  0  1  0  0  0  0  0  0  0  0  0
   -0.4728    1.0891   -0.7173 H   0  0  0  0  0  0  0  0  0  0  0  0
   -0.2926    0.9572    1.4321 C   0  0  0  0  0  0  0  0  0  0  0  0
   -0.4035    0.1930    2.2092 H   0  0  0  0  0  0  0  0  0  0  0  0
    0.7243    1.3520    1.5162 H   0  0  0  0  0  0  0  0  0  0  0  0
   -1.2793    2.1028    1.6991 C   0  0  0  0  0  0  0  0  0  0  0  0
   -2.3043    1.7222    1.6608 H   0  0  0  0  0  0  0  0  0  0  0  0
   -1.1135    2.4909    2.7090 H   0  0  0  0  0  0  0  0  0  0  0  0
   -1.0973    3.4791    0.4894 S   0  0  0  0  0  0  0  0  0  0  0  0
    0.5372    4.1930    0.9312 C   0  0  0  0  0  0  0  0  0  0  0  0
    1.3375    3.4745    0.7313 H   0  0  0  0  0  0  0  0  0  0  0  0
    0.7243    5.0937    0.3392 H   0  0  0  0  0  0  0  0  0  0  0  0
    0.5600    4.4602    1.9918 H   0  0  0  0  0  0  0  0  0  0  0  0
    0.7232   -0.6160   -0.3135 C   0  0  0  0  0  0  0  0  0  0  0  0
    1.6436   -0.8212    0.4698 O   0  0  0  0  0  0  0  0  0  0  0  0
    0.9109   -0.9700   -1.6385 N   0  0  0  0  0  0  0  0  0  0  0  0
    0.1197   -0.8435   -2.2610 H   0  0  0  0  0  0  0  0  0  0  0  0
    2.0325   -1.7860   -2.0888 C   0  0  0  0  0  0  0  0  0  0  0  0
    2.0159   -2.7631   -1.5946 H   0  0  0  0  0  0  0  0  0  0  0  0
    1.9779   -1.9424   -3.1703 H   0  0  0  0  0  0  0  0  0  0  0  0
    2.9830   -1.2921   -1.8607 H   0  0  0  0  0  0  0  0  0  0  0  0
  1  2  1  0  0  0  0
  2  3  1  0  0  0  0
  2  4  1  0  0  0  0
  2  5  1  0  0  0  0
  5  6  2  0  0  0  0
  5  7  1  0  0  0  0
  7  8  1  0  0  0  0
  7  9  1  0  0  0  0
  9 10  1  0  0  0  0
  9 11  1  0  0  0  0
  9 22  1  0  0  0  0
 11 12  1  0  0  0  0
 11 13  1  0  0  0  0
 11 14  1  0  0  0  0
 14 15  1  0  0  0  0
 14 16  1  0  0  0  0
 14 17  1  0  0  0  0
 17 18  1  0  0  0  0
 18 19  1  0  0  0  0
 18 20  1  0  0  0  0
 18 21  1  0  0  0  0
 22 23  2  0  0  0  0
 22 24  1  0  0  0  0
 24 25  1  0  0  0  0
 24 26  1  0  0  0  0
 26 27  1  0  0  0  0
 26 28  1  0  0  0  0
 26 29  1  0  0  0  0
M  END
$$$$

  -OEChem-01062216093D

 29 28  0     1  0  0  0  0  0999 V2000
   -3.6596   -3.0672    0.9863 H   0  0  0  0  0  0  0  0  0  0  0  0
   -3.5649   -2.0964    0.4911 C   0  0  0  0  0  0  0  0  0  0  0  0
   -4.2322   -1.3850    0.9833 H   0  0  0  0  0  0  0  0  0  0  0  0
   -3.8634   -2.2051   -0.5542 H   0  0  0  0  0  0  0  0  0  0  0  0
   -2.1314   -1.6063    0.5737 C   0  0  0  0  0  0  0  0  0  0  0  0
   -1.3000   -2.2975    1.1290 O   0  0  0  0  0  0  0  0  0  0  0  0
   -1.8101   -0.3773    0.0276 N   0  0  0  0  0  0  0  0  0  0  0  0
   -2.5881    0.1469   -0.3608 H   0  0  0  0  0  0  0  0  0  0  0  0
   -0.4884    0.2866    0.0419 C   0  0  1  0  0  0  0  0  0  0  0  0
   -0.4918    1.0734   -0.7168 H   0  0  0  0  0  0  0  0  0  0  0  0
   -0.2878    0.9416    1.4279 C   0  0  0  0  0  0  0  0  0  0  0  0
   -0.3979    0.1796    2.2073 H   0  0  0  0  0  0  0  0  0  0  0  0
    0.7334    1.3275    1.5016 H   0  0  0  0  0  0  0  0  0  0  0  0
   -1.2660    2.0924    1.7037 C   0  0  0  0  0  0  0  0  0  0  0  0
   -2.2929    1.7164    1.6749 H   0  0  0  0  0  0  0  0  0  0  0  0
   -1.0891    2.4792    2.7123 H   0  0  0  0  0  0  0  0  0  0  0  0
   -1.0897    3.4677    0.4916 S   0  0  0  0  0  0  0  0  0  0  0  0
    0.5520    4.1766    0.9140 C   0  0  0  0  0  0  0  0  0  0  0  0
    1.3462    3.4505    0.7181 H   0  0  0  0  0  0  0  0  0  0  0  0
    0.7413    5.0686    0.3096 H   0  0  0  0  0  0  0  0  0  0  0  0
    0.5837    4.4578    1.9709 H   0  0  0  0  0  0  0  0  0  0  0  0
    0.7178   -0.6272   -0.3137 C   0  0  0  0  0  0  0  0  0  0  0  0
    1.5193   -1.0098    0.5306 O   0  0  0  0  0  0  0  0  0  0  0  0
    1.0945   -0.7318   -1.6420 N   0  0  0  0  0  0  0  0  0  0  0  0
    0.4261   -0.4194   -2.3384 H   0  0  0  0  0  0  0  0  0  0  0  0
    2.2720   -1.4723   -2.0807 C   0  0  0  0  0  0  0  0  0  0  0  0
    2.1991   -2.5219   -1.7769 H   0  0  0  0  0  0  0  0  0  0  0  0
    2.3603   -1.4318   -3.1704 H   0  0  0  0  0  0  0  0  0  0  0  0
    3.1803   -1.0421   -1.6456 H   0  0  0  0  0  0  0  0  0  0  0  0
  1  2  1  0  0  0  0
  2  3  1  0  0  0  0
  2  4  1  0  0  0  0
  2  5  1  0  0  0  0
  5  6  2  0  0  0  0
  5  7  1  0  0  0  0
  7  8  1  0  0  0  0
  7  9  1  0  0  0  0
  9 10  1  0  0  0  0
  9 11  1  0  0  0  0
  9 22  1  0  0  0  0
 11 12  1  0  0  0  0
 11 13  1  0  0  0  0
 11 14  1  0  0  0  0
 14 15  1  0  0  0  0
 14 16  1  0  0  0  0
 14 17  1  0  0  0  0
 17 18  1  0  0  0  0
 18 19  1  0  0  0  0
 18 20  1  0  0  0  0
 18 21  1  0  0  0  0
 22 23  2  0  0  0  0
 22 24  1  0  0  0  0
 24 25  1  0  0  0  0
 24 26  1  0  0  0  0
 26 27  1  0  0  0  0
 26 28  1  0  0  0  0
 26 29  1  0  0  0  0
M  END
$$$$

  -OEChem-01062216093D

 29 28  0     1  0  0  0  0  0999 V2000
   -3.6983   -3.0800    0.9661 H   0  0  0  0  0  0  0  0  0  0  0  0
   -3.5891   -2.1145    0.4636 C   0  0  0  0  0  0  0  0  0  0  0  0
   -4.2869   -1.4040    0.9126 H   0  0  0  0  0  0  0  0  0  0  0  0
   -3.8342   -2.2399   -0.5937 H   0  0  0  0  0  0  0  0  0  0  0  0
   -2.1663   -1.6080    0.6107 C   0  0  0  0  0  0  0  0  0  0  0  0
   -1.3670   -2.2711    1.2411 O   0  0  0  0  0  0  0  0  0  0  0  0
   -1.8322   -0.3867    0.0549 N   0  0  0  0  0  0  0  0  0  0  0  0
   -2.5935    0.1065   -0.4010 H   0  0  0  0  0  0  0  0  0  0  0  0
   -0.5056    0.2688    0.0462 C   0  0  1  0  0  0  0  0  0  0  0  0
   -0.5249    1.0550   -0.7124 H   0  0  0  0  0  0  0  0  0  0  0  0
   -0.2741    0.9251    1.4255 C   0  0  0  0  0  0  0  0  0  0  0  0
   -0.3779    0.1661    2.2085 H   0  0  0  0  0  0  0  0  0  0  0  0
    0.7527    1.2995    1.4800 H   0  0  0  0  0  0  0  0  0  0  0  0
   -1.2382    2.0839    1.7160 C   0  0  0  0  0  0  0  0  0  0  0  0
   -2.2682    1.7149    1.7072 H   0  0  0  0  0  0  0  0  0  0  0  0
   -1.0397    2.4721    2.7202 H   0  0  0  0  0  0  0  0  0  0  0  0
   -1.0736    3.4547    0.4966 S   0  0  0  0  0  0  0  0  0  0  0  0
    0.5810    4.1531    0.8862 C   0  0  0  0  0  0  0  0  0  0  0  0
    1.3659    3.4195    0.6811 H   0  0  0  0  0  0  0  0  0  0  0  0
    0.7665    5.0399    0.2730 H   0  0  0  0  0  0  0  0  0  0  0  0
    0.6333    4.4401    1.9407 H   0  0  0  0  0  0  0  0  0  0  0  0
    0.7064   -0.6344   -0.3170 C   0  0  0  0  0  0  0  0  0  0  0  0
    1.3789   -1.2052    0.5319 O   0  0  0  0  0  0  0  0  0  0  0  0
    1.2688   -0.5028   -1.5760 N   0  0  0  0  0  0  0  0  0  0  0  0
    0.7398    0.0098   -2.2737 H   0  0  0  0  0  0  0  0  0  0  0  0
    2.5054   -1.1650   -1.9765 C   0  0  0  0  0  0  0  0  0  0  0  0
    2.4082   -2.2513   -1.8762 H   0  0  0  0  0  0  0  0  0  0  0  0
    2.7381   -0.9334   -3.0202 H   0  0  0  0  0  0  0  0  0  0  0  0
    3.3407   -0.8272   -1.3539 H   0  0  0  0  0  0  0  0  0  0  0  0
  1  2  1  0  0  0  0
  2  3  1  0  0  0  0
  2  4  1  0  0  0  0
  2  5  1  0  0  0  0
  5  6  2  0  0  0  0
  5  7  1  0  0  0  0
  7  8  1  0  0  0  0
  7  9  1  0  0  0  0
  9 10  1  0  0  0  0
  9 11  1  0  0  0  0
  9 22  1  0  0  0  0
 11 12  1  0  0  0  0
 11 13  1  0  0  0  0
 11 14  1  0  0  0  0
 14 15  1  0  0  0  0
 14 16  1  0  0  0  0
 14 17  1  0  0  0  0
 17 18  1  0  0  0  0
 18 19  1  0  0  0  0
 18 20  1  0  0  0  0
 18 21  1  0  0  0  0
 22 23  2  0  0  0  0
 22 24  1  0  0  0  0
 24 25  1  0  0  0  0
 24 26  1  0  0  0  0
 26 27  1  0  0  0  0
 26 28  1  0  0  0  0
 26 29  1  0  0  0  0
M  END
$$$$

  -OEChem-01062216093D

 29 28  0     1  0  0  0  0  0999 V2000
   -3.6465   -3.1584    0.8740 H   0  0  0  0  0  0  0  0  0  0  0  0
   -3.5419   -2.1958    0.3652 C   0  0  0  0  0  0  0  0  0  0  0  0
   -4.3477   -1.5351    0.6937 H   0  0  0  0  0  0  0  0  0  0  0  0
   -3.6266   -2.3587   -0.7117 H   0  0  0  0  0  0  0  0  0  0  0  0
   -2.1959   -1.5765    0.6933 C   0  0  0  0  0  0  0  0  0  0  0  0
   -1.4920   -2.1130    1.5261 O   0  0  0  0  0  0  0  0  0  0  0  0
   -1.8651   -0.3615    0.1199 N   0  0  0  0  0  0  0  0  0  0  0  0
   -2.5684    0.0134   -0.5087 H   0  0  0  0  0  0  0  0  0  0  0  0
   -0.5320    0.2821    0.0764 C   0  0  1  0  0  0  0  0  0  0  0  0
   -0.5730    1.0661   -0.6832 H   0  0  0  0  0  0  0  0  0  0  0  0
   -0.2502    0.9396    1.4446 C   0  0  0  0  0  0  0  0  0  0  0  0
   -0.3388    0.1868    2.2352 H   0  0  0  0  0  0  0  0  0  0  0  0
    0.7819    1.3017    1.4668 H   0  0  0  0  0  0  0  0  0  0  0  0
   -1.1930    2.1097    1.7566 C   0  0  0  0  0  0  0  0  0  0  0  0
   -2.2265    1.7504    1.7768 H   0  0  0  0  0  0  0  0  0  0  0  0
   -0.9643    2.5002    2.7532 H   0  0  0  0  0  0  0  0  0  0  0  0
   -1.0473    3.4718    0.5242 S   0  0  0  0  0  0  0  0  0  0  0  0
    0.6254    4.1529    0.8636 C   0  0  0  0  0  0  0  0  0  0  0  0
    1.3964    3.4087    0.6446 H   0  0  0  0  0  0  0  0  0  0  0  0
    0.8050    5.0326    0.2385 H   0  0  0  0  0  0  0  0  0  0  0  0
    0.7083    4.4480    1.9138 H   0  0  0  0  0  0  0  0  0  0  0  0
    0.6783   -0.6142   -0.3075 C   0  0  0  0  0  0  0  0  0  0  0  0
    1.1555   -1.4584    0.4357 O   0  0  0  0  0  0  0  0  0  0  0  0
    1.4140   -0.2789   -1.4326 N   0  0  0  0  0  0  0  0  0  0  0  0
    1.0682    0.4770   -2.0147 H   0  0  0  0  0  0  0  0  0  0  0  0
    2.6551   -0.9467   -1.8100 C   0  0  0  0  0  0  0  0  0  0  0  0
    2.4868   -2.0203   -1.9465 H   0  0  0  0  0  0  0  0  0  0  0  0
    3.0361   -0.5349   -2.7494 H   0  0  0  0  0  0  0  0  0  0  0  0
    3.4170   -0.8062   -1.0360 H   0  0  0  0  0  0  0  0  0  0  0  0
  1  2  1  0  0  0  0
  2  3  1  0  0  0  0
  2  4  1  0  0  0  0
  2  5  1  0  0  0  0
  5  6  2  0  0  0  0
  5  7  1  0  0  0  0
  7  8  1  0  0  0  0
  7  9  1  0  0  0  0
  9 10  1  0  0  0  0
  9 11  1  0  0  0  0
  9 22  1  0  0  0  0
 11 12  1  0  0  0  0
 11 13  1  0  0  0  0
 11 14  1  0  0  0  0
 14 15  1  0  0  0  0
 14 16  1  0  0  0  0
 14 17  1  0  0  0  0
 17 18  1  0  0  0  0
 18 19  1  0  0  0  0
 18 20  1  0  0  0  0
 18 21  1  0  0  0  0
 22 23  2  0  0  0  0
 22 24  1  0  0  0  0
 24 25  1  0  0  0  0
 24 26  1  0  0  0  0
 26 27  1  0  0  0  0
 26 28  1  0  0  0  0
 26 29  1  0  0  0  0
M  END
$$$$

  -OEChem-01062216093D

 29 28  0     1  0  0  0  0  0999 V2000
   -3.4360   -3.2722    0.7938 H   0  0  0  0  0  0  0  0  0  0  0  0
   -3.3594   -2.3282    0.2465 C   0  0  0  0  0  0  0  0  0  0  0  0
   -4.2908   -1.7709    0.3708 H   0  0  0  0  0  0  0  0  0  0  0  0
   -3.2101   -2.5501   -0.8128 H   0  0  0  0  0  0  0  0  0  0  0  0
   -2.1932   -1.5146    0.7749 C   0  0  0  0  0  0  0  0  0  0  0  0
   -1.6532   -1.8569    1.8125 O   0  0  0  0  0  0  0  0  0  0  0  0
   -1.8981   -0.2978    0.1849 N   0  0  0  0  0  0  0  0  0  0  0  0
   -2.4966   -0.0834   -0.6059 H   0  0  0  0  0  0  0  0  0  0  0  0
   -0.5561    0.3285    0.1471 C   0  0  1  0  0  0  0  0  0  0  0  0
   -0.5927    1.1010   -0.6248 H   0  0  0  0  0  0  0  0  0  0  0  0
   -0.2547    1.0030    1.5031 C   0  0  0  0  0  0  0  0  0  0  0  0
   -0.3469    0.2706    2.3109 H   0  0  0  0  0  0  0  0  0  0  0  0
    0.7819    1.3521    1.5120 H   0  0  0  0  0  0  0  0  0  0  0  0
   -1.1777    2.1938    1.7948 C   0  0  0  0  0  0  0  0  0  0  0  0
   -2.2167    1.8494    1.8214 H   0  0  0  0  0  0  0  0  0  0  0  0
   -0.9430    2.5987    2.7841 H   0  0  0  0  0  0  0  0  0  0  0  0
   -1.0152    3.5318    0.5384 S   0  0  0  0  0  0  0  0  0  0  0  0
    0.6679    4.1940    0.8613 C   0  0  0  0  0  0  0  0  0  0  0  0
    1.4282    3.4371    0.6499 H   0  0  0  0  0  0  0  0  0  0  0  0
    0.8559    5.0633    0.2241 H   0  0  0  0  0  0  0  0  0  0  0  0
    0.7581    4.5021    1.9074 H   0  0  0  0  0  0  0  0  0  0  0  0
    0.6469   -0.5797   -0.2320 C   0  0  0  0  0  0  0  0  0  0  0  0
    0.7504   -1.7510    0.0989 O   0  0  0  0  0  0  0  0  0  0  0  0
    1.5748   -0.0927   -1.1378 N   0  0  0  0  0  0  0  0  0  0  0  0
    1.4789    0.8723   -1.4387 H   0  0  0  0  0  0  0  0  0  0  0  0
    2.7009   -0.8766   -1.6343 C   0  0  0  0  0  0  0  0  0  0  0  0
    2.3454   -1.7779   -2.1452 H   0  0  0  0  0  0  0  0  0  0  0  0
    3.2892   -0.2875   -2.3443 H   0  0  0  0  0  0  0  0  0  0  0  0
    3.3537   -1.1753   -0.8072 H   0  0  0  0  0  0  0  0  0  0  0  0
  1  2  1  0  0  0  0
  2  3  1  0  0  0  0
  2  4  1  0  0  0  0
  2  5  1  0  0  0  0
  5  6  2  0  0  0  0
  5  7  1  0  0  0  0
  7  8  1  0  0  0  0
  7  9  1  0  0  0  0
  9 10  1  0  0  0  0
  9 11  1  0  0  0  0
  9 22  1  0  0  0  0
 11 12  1  0  0  0  0
 11 13  1  0  0  0  0
 11 14  1  0  0  0  0
 14 15  1  0  0  0  0
 14 16  1  0  0  0  0
 14 17  1  0  0  0  0
 17 18  1  0  0  0  0
 18 19  1  0  0  0  0
 18 20  1  0  0  0  0
 18 21  1  0  0  0  0
 22 23  2  0  0  0  0
 22 24  1  0  0  0  0
 24 25  1  0  0  0  0
 24 26  1  0  0  0  0
 26 27  1  0  0  0  0
 26 28  1  0  0  0  0
 26 29  1  0  0  0  0
M  END
$$$$

  -OEChem-01062216093D

 29 28  0     1  0  0  0  0  0999 V2000
   -3.4572   -3.2455    0.8553 H   0  0  0  0  0  0  0  0  0  0  0  0
   -3.3425   -2.3374    0.2568 C   0  0  0  0  0  0  0  0  0  0  0  0
   -4.2687   -1.7605    0.3093 H   0  0  0  0  0  0  0  0  0  0  0  0
   -3.1535   -2.6237   -0.7806 H   0  0  0  0  0  0  0  0  0  0  0  0
   -2.1837   -1.5117    0.7824 C   0  0  0  0  0  0  0  0  0  0  0  0
   -1.6211   -1.8543    1.8095 O   0  0  0  0  0  0  0  0  0  0  0  0
   -1.8924   -0.2957    0.1882 N   0  0  0  0  0  0  0  0  0  0  0  0
   -2.4703   -0.0986   -0.6224 H   0  0  0  0  0  0  0  0  0  0  0  0
   -0.5474    0.3238    0.1716 C   0  0  1  0  0  0  0  0  0  0  0  0
   -0.5635    1.0861   -0.6113 H   0  0  0  0  0  0  0  0  0  0  0  0
   -0.2713    1.0141    1.5263 C   0  0  0  0  0  0  0  0  0  0  0  0
   -0.3844    0.2935    2.3417 H   0  0  0  0  0  0  0  0  0  0  0  0
    0.7655    1.3606    1.5552 H   0  0  0  0  0  0  0  0  0  0  0  0
   -1.1956    2.2124    1.7818 C   0  0  0  0  0  0  0  0  0  0  0  0
   -2.2361    1.8718    1.7892 H   0  0  0  0  0  0  0  0  0  0  0  0
   -0.9822    2.6297    2.7709 H   0  0  0  0  0  0  0  0  0  0  0  0
   -1.0011    3.5340    0.5125 S   0  0  0  0  0  0  0  0  0  0  0  0
    0.6766    4.1964    0.8615 C   0  0  0  0  0  0  0  0  0  0  0  0
    1.4391    3.4358    0.6734 H   0  0  0  0  0  0  0  0  0  0  0  0
    0.8787    5.0581    0.2183 H   0  0  0  0  0  0  0  0  0  0  0  0
    0.7469    4.5162    1.9056 H   0  0  0  0  0  0  0  0  0  0  0  0
    0.6550   -0.5950   -0.1850 C   0  0  0  0  0  0  0  0  0  0  0  0
    0.5772   -1.8150   -0.2303 O   0  0  0  0  0  0  0  0  0  0  0  0
    1.7486   -0.0182   -0.8099 N   0  0  0  0  0  0  0  0  0  0  0  0
    1.7758    0.9949   -0.8691 H   0  0  0  0  0  0  0  0  0  0  0  0
    2.8491   -0.7869   -1.3817 C   0  0  0  0  0  0  0  0  0  0  0  0
    2.4905   -1.4167   -2.2028 H   0  0  0  0  0  0  0  0  0  0  0  0
    3.6185   -0.1143   -1.7723 H   0  0  0  0  0  0  0  0  0  0  0  0
    3.3054   -1.4281   -0.6198 H   0  0  0  0  0  0  0  0  0  0  0  0
  1  2  1  0  0  0  0
  2  3  1  0  0  0  0
  2  4  1  0  0  0  0
  2  5  1  0  0  0  0
  5  6  2  0  0  0  0
  5  7  1  0  0  0  0
  7  8  1  0  0  0  0
  7  9  1  0  0  0  0
  9 10  1  0  0  0  0
  9 11  1  0  0  0  0
  9 22  1  0  0  0  0
 11 12  1  0  0  0  0
 11 13  1  0  0  0  0
 11 14  1  0  0  0  0
 14 15  1  0  0  0  0
 14 16  1  0  0  0  0
 14 17  1  0  0  0  0
 17 18  1  0  0  0  0
 18 19  1  0  0  0  0
 18 20  1  0  0  0  0
 18 21  1  0  0  0  0
 22 23  2  0  0  0  0
 22 24  1  0  0  0  0
 24 25  1  0  0  0  0
 24 26  1  0  0  0  0
 26 27  1  0  0  0  0
 26 28  1  0  0  0  0
 26 29  1  0  0  0  0
M  END
$$$$

  -OEChem-01062216093D

 29 28  0     1  0  0  0  0  0999 V2000
   -3.4482   -3.2400    0.8664 H   0  0  0  0  0  0  0  0  0  0  0  0
   -3.3515   -2.3234    0.2778 C   0  0  0  0  0  0  0  0  0  0  0  0
   -4.2718   -1.7426    0.3741 H   0  0  0  0  0  0  0  0  0  0  0  0
   -3.2038   -2.5947   -0.7703 H   0  0  0  0  0  0  0  0  0  0  0  0
   -2.1688   -1.5112    0.7699 C   0  0  0  0  0  0  0  0  0  0  0  0
   -1.5530   -1.8820    1.7567 O   0  0  0  0  0  0  0  0  0  0  0  0
   -1.8880   -0.2919    0.1771 N   0  0  0  0  0  0  0  0  0  0  0  0
   -2.4685   -0.0923   -0.6311 H   0  0  0  0  0  0  0  0  0  0  0  0
   -0.5437    0.3284    0.1670 C   0  0  1  0  0  0  0  0  0  0  0  0
   -0.5464    1.0909   -0.6162 H   0  0  0  0  0  0  0  0  0  0  0  0
   -0.2807    1.0172    1.5271 C   0  0  0  0  0  0  0  0  0  0  0  0
   -0.4009    0.2952    2.3402 H   0  0  0  0  0  0  0  0  0  0  0  0
    0.7538    1.3678    1.5693 H   0  0  0  0  0  0  0  0  0  0  0  0
   -1.2101    2.2128    1.7773 C   0  0  0  0  0  0  0  0  0  0  0  0
   -2.2498    1.8703    1.7746 H   0  0  0  0  0  0  0  0  0  0  0  0
   -1.0063    2.6276    2.7696 H   0  0  0  0  0  0  0  0  0  0  0  0
   -1.0092    3.5385    0.5138 S   0  0  0  0  0  0  0  0  0  0  0  0
    0.6630    4.2086    0.8736 C   0  0  0  0  0  0  0  0  0  0  0  0
    1.4300    3.4515    0.6905 H   0  0  0  0  0  0  0  0  0  0  0  0
    0.8654    5.0708    0.2311 H   0  0  0  0  0  0  0  0  0  0  0  0
    0.7250    4.5298    1.9178 H   0  0  0  0  0  0  0  0  0  0  0  0
    0.6455   -0.6072   -0.1901 C   0  0  0  0  0  0  0  0  0  0  0  0
    0.4795   -1.7723   -0.5299 O   0  0  0  0  0  0  0  0  0  0  0  0
    1.8624   -0.0317   -0.5174 N   0  0  0  0  0  0  0  0  0  0  0  0
    1.9744    0.9609   -0.3381 H   0  0  0  0  0  0  0  0  0  0  0  0
    2.9891   -0.7810   -1.0633 C   0  0  0  0  0  0  0  0  0  0  0  0
    2.7350   -1.1953   -2.0447 H   0  0  0  0  0  0  0  0  0  0  0  0
    3.8586   -0.1268   -1.1785 H   0  0  0  0  0  0  0  0  0  0  0  0
    3.2628   -1.6040   -0.3943 H   0  0  0  0  0  0  0  0  0  0  0  0
  1  2  1  0  0  0  0
  2  3  1  0  0  0  0
  2  4  1  0  0  0  0
  2  5  1  0  0  0  0
  5  6  2  0  0  0  0
  5  7  1  0  0  0  0
  7  8  1  0  0  0  0
  7  9  1  0  0  0  0
  9 10  1  0  0  0  0
  9 11  1  0  0  0  0
  9 22  1  0  0  0  0
 11 12  1  0  0  0  0
 11 13  1  0  0  0  0
 11 14  1  0  0  0  0
 14 15  1  0  0  0  0
 14 16  1  0  0  0  0
 14 17  1  0  0  0  0
 17 18  1  0  0  0  0
 18 19  1  0  0  0  0
 18 20  1  0  0  0  0
 18 21  1  0  0  0  0
 22 23  2  0  0  0  0
 22 24  1  0  0  0  0
 24 25  1  0  0  0  0
 24 26  1  0  0  0  0
 26 27  1  0  0  0  0
 26 28  1  0  0  0  0
 26 29  1  0  0  0  0
M  END
$$$$

  -OEChem-01062216093D

 29 28  0     1  0  0  0  0  0999 V2000
   -3.4358   -3.2708    0.7323 H   0  0  0  0  0  0  0  0  0  0  0  0
   -3.3797   -2.2889    0.2544 C   0  0  0  0  0  0  0  0  0  0  0  0
   -4.2534   -1.7027    0.5479 H   0  0  0  0  0  0  0  0  0  0  0  0
   -3.3855   -2.4262   -0.8296 H   0  0  0  0  0  0  0  0  0  0  0  0
   -2.1095   -1.5748    0.6758 C   0  0  0  0  0  0  0  0  0  0  0  0
   -1.3658   -2.1073    1.4840 O   0  0  0  0  0  0  0  0  0  0  0  0
   -1.8396   -0.3212    0.1543 N   0  0  0  0  0  0  0  0  0  0  0  0
   -2.4623   -0.0402   -0.5967 H   0  0  0  0  0  0  0  0  0  0  0  0
   -0.5127    0.3323    0.1828 C   0  0  1  0  0  0  0  0  0  0  0  0
   -0.5995    1.2608   -0.3868 H   0  0  0  0  0  0  0  0  0  0  0  0
   -0.0828    0.7013    1.6263 C   0  0  0  0  0  0  0  0  0  0  0  0
   -0.0810   -0.1828    2.2683 H   0  0  0  0  0  0  0  0  0  0  0  0
    0.9422    1.0790    1.6187 H   0  0  0  0  0  0  0  0  0  0  0  0
   -0.9822    1.7773    2.2505 C   0  0  0  0  0  0  0  0  0  0  0  0
   -2.0114    1.4065    2.2909 H   0  0  0  0  0  0  0  0  0  0  0  0
   -0.6622    1.9638    3.2804 H   0  0  0  0  0  0  0  0  0  0  0  0
   -0.9507    3.3622    1.3119 S   0  0  0  0  0  0  0  0  0  0  0  0
    0.7474    3.9942    1.6138 C   0  0  0  0  0  0  0  0  0  0  0  0
    1.4915    3.3256    1.1727 H   0  0  0  0  0  0  0  0  0  0  0  0
    0.8619    4.9853    1.1646 H   0  0  0  0  0  0  0  0  0  0  0  0
    0.9358    4.0742    2.6886 H   0  0  0  0  0  0  0  0  0  0  0  0
    0.5802   -0.4806   -0.5621 C   0  0  0  0  0  0  0  0  0  0  0  0
    0.2778   -1.4043   -1.3095 O   0  0  0  0  0  0  0  0  0  0  0  0
    1.8792   -0.0048   -0.6249 N   0  0  0  0  0  0  0  0  0  0  0  0
    2.1186    0.7832   -0.0323 H   0  0  0  0  0  0  0  0  0  0  0  0
    2.9353   -0.6569   -1.3908 C   0  0  0  0  0  0  0  0  0  0  0  0
    2.6754   -0.6882   -2.4542 H   0  0  0  0  0  0  0  0  0  0  0  0
    3.8759   -0.1085   -1.2822 H   0  0  0  0  0  0  0  0  0  0  0  0
    3.0884   -1.6814   -1.0351 H   0  0  0  0  0  0  0  0  0  0  0  0
  1  2  1  0  0  0  0
  2  3  1  0  0  0  0
  2  4  1  0  0  0  0
  2  5  1  0  0  0  0
  5  6  2  0  0  0  0
  5  7  1  0  0  0  0
  7  8  1  0  0  0  0
  7  9  1  0  0  0  0
  9 10  1  0  0  0  0
  9 11  1  0  0  0  0
  9 22  1  0  0  0  0
 11 12  1  0  0  0  0
 11 13  1  0  0  0  0
 11 14  1  0  0  0  0
 14 15  1  0  0  0  0
 14 16  1  0  0  0  0
 14 17  1  0  0  0  0
 17 18  1  0  0  0  0
 18 19  1  0  0  0  0
 18 20  1  0  0  0  0
 18 21  1  0  0  0  0
 22 23  2  0  0  0  0
 22 24  1  0  0  0  0
 24 25  1  0  0  0  0
 24 26  1  0  0  0  0
 26 27  1  0  0  0  0
 26 28  1  0  0  0  0
 26 29  1  0  0  0  0
M  END
$$$$

  -OEChem-01062216093D

 29 28  0     1  0  0  0  0  0999 V2000
   -3.4106   -3.2651    0.7316 H   0  0  0  0  0  0  0  0  0  0  0  0
   -3.3656   -2.2769    0.2654 C   0  0  0  0  0  0  0  0  0  0  0  0
   -4.2257   -1.6906    0.5968 H   0  0  0  0  0  0  0  0  0  0  0  0
   -3.4097   -2.3987   -0.8197 H   0  0  0  0  0  0  0  0  0  0  0  0
   -2.0786   -1.5743    0.6531 C   0  0  0  0  0  0  0  0  0  0  0  0
   -1.3024   -2.1251    1.4176 O   0  0  0  0  0  0  0  0  0  0  0  0
   -1.8202   -0.3146    0.1431 N   0  0  0  0  0  0  0  0  0  0  0  0
   -2.4525   -0.0200   -0.5948 H   0  0  0  0  0  0  0  0  0  0  0  0
   -0.5004    0.3500    0.1823 C   0  0  1  0  0  0  0  0  0  0  0  0
   -0.5850    1.2805   -0.3850 H   0  0  0  0  0  0  0  0  0  0  0  0
   -0.0899    0.7179    1.6324 C   0  0  0  0  0  0  0  0  0  0  0  0
   -0.0868   -0.1694    2.2702 H   0  0  0  0  0  0  0  0  0  0  0  0
    0.9289    1.1110    1.6388 H   0  0  0  0  0  0  0  0  0  0  0  0
   -1.0053    1.7829    2.2521 C   0  0  0  0  0  0  0  0  0  0  0  0
   -2.0318    1.4037    2.2812 H   0  0  0  0  0  0  0  0  0  0  0  0
   -0.6971    1.9685    3.2858 H   0  0  0  0  0  0  0  0  0  0  0  0
   -0.9774    3.3710    1.3190 S   0  0  0  0  0  0  0  0  0  0  0  0
    0.7112    4.0205    1.6369 C   0  0  0  0  0  0  0  0  0  0  0  0
    1.4648    3.3664    1.1901 H   0  0  0  0  0  0  0  0  0  0  0  0
    0.8151    5.0180    1.1997 H   0  0  0  0  0  0  0  0  0  0  0  0
    0.8952    4.0902    2.7130 H   0  0  0  0  0  0  0  0  0  0  0  0
    0.5871   -0.4643   -0.5698 C   0  0  0  0  0  0  0  0  0  0  0  0
    0.2667   -1.2167   -1.4838 O   0  0  0  0  0  0  0  0  0  0  0  0
    1.9341   -0.1916   -0.3987 N   0  0  0  0  0  0  0  0  0  0  0  0
    2.1915    0.4058    0.3797 H   0  0  0  0  0  0  0  0  0  0  0  0
    2.9883   -0.8958   -1.1191 C   0  0  0  0  0  0  0  0  0  0  0  0
    2.8702   -0.7628   -2.1998 H   0  0  0  0  0  0  0  0  0  0  0  0
    3.9693   -0.5065   -0.8303 H   0  0  0  0  0  0  0  0  0  0  0  0
    2.9584   -1.9664   -0.8903 H   0  0  0  0  0  0  0  0  0  0  0  0
  1  2  1  0  0  0  0
  2  3  1  0  0  0  0
  2  4  1  0  0  0  0
  2  5  1  0  0  0  0
  5  6  2  0  0  0  0
  5  7  1  0  0  0  0
  7  8  1  0  0  0  0
  7  9  1  0  0  0  0
  9 10  1  0  0  0  0
  9 11  1  0  0  0  0
  9 22  1  0  0  0  0
 11 12  1  0  0  0  0
 11 13  1  0  0  0  0
 11 14  1  0  0  0  0
 14 15  1  0  0  0  0
 14 16  1  0  0  0  0
 14 17  1  0  0  0  0
 17 18  1  0  0  0  0
 18 19  1  0  0  0  0
 18 20  1  0  0  0  0
 18 21  1  0  0  0  0
 22 23  2  0  0  0  0
 22 24  1  0  0  0  0
 24 25  1  0  0  0  0
 24 26  1  0  0  0  0
 26 27  1  0  0  0  0
 26 28  1  0  0  0  0
 26 29  1  0  0  0  0
M  END
$$$$

  -OEChem-01062216093D

 29 28  0     1  0  0  0  0  0999 V2000
   -3.3776   -3.2644    0.7317 H   0  0  0  0  0  0  0  0  0  0  0  0
   -3.3362   -2.2787    0.2599 C   0  0  0  0  0  0  0  0  0  0  0  0
   -4.1976   -1.6935    0.5899 H   0  0  0  0  0  0  0  0  0  0  0  0
   -3.3821   -2.4060   -0.8245 H   0  0  0  0  0  0  0  0  0  0  0  0
   -2.0503   -1.5705    0.6412 C   0  0  0  0  0  0  0  0  0  0  0  0
   -1.2540   -2.1275    1.3807 O   0  0  0  0  0  0  0  0  0  0  0  0
   -1.8025   -0.3055    0.1403 N   0  0  0  0  0  0  0  0  0  0  0  0
   -2.4403   -0.0039   -0.5904 H   0  0  0  0  0  0  0  0  0  0  0  0
   -0.4893    0.3693    0.1906 C   0  0  1  0  0  0  0  0  0  0  0  0
   -0.5746    1.3003   -0.3757 H   0  0  0  0  0  0  0  0  0  0  0  0
   -0.0900    0.7398    1.6429 C   0  0  0  0  0  0  0  0  0  0  0  0
   -0.0831   -0.1481    2.2803 H   0  0  0  0  0  0  0  0  0  0  0  0
    0.9246    1.1445    1.6516 H   0  0  0  0  0  0  0  0  0  0  0  0
   -1.0182    1.7973    2.2569 C   0  0  0  0  0  0  0  0  0  0  0  0
   -2.0416    1.4091    2.2798 H   0  0  0  0  0  0  0  0  0  0  0  0
   -0.7172    1.9855    3.2921 H   0  0  0  0  0  0  0  0  0  0  0  0
   -0.9996    3.3866    1.3257 S   0  0  0  0  0  0  0  0  0  0  0  0
    0.6814    4.0513    1.6540 C   0  0  0  0  0  0  0  0  0  0  0  0
    1.4443    3.4040    1.2127 H   0  0  0  0  0  0  0  0  0  0  0  0
    0.7792    5.0496    1.2172 H   0  0  0  0  0  0  0  0  0  0  0  0
    0.8575    4.1231    2.7313 H   0  0  0  0  0  0  0  0  0  0  0  0
    0.5927   -0.4464   -0.5659 C   0  0  0  0  0  0  0  0  0  0  0  0
    0.2931   -1.0130   -1.6114 O   0  0  0  0  0  0  0  0  0  0  0  0
    1.9271   -0.4147   -0.1973 N   0  0  0  0  0  0  0  0  0  0  0  0
    2.1386   -0.0367    0.7202 H   0  0  0  0  0  0  0  0  0  0  0  0
    2.9549   -1.1890   -0.8832 C   0  0  0  0  0  0  0  0  0  0  0  0
    3.0121   -0.9016   -1.9384 H   0  0  0  0  0  0  0  0  0  0  0  0
    3.9324   -1.0105   -0.4249 H   0  0  0  0  0  0  0  0  0  0  0  0
    2.7326   -2.2596   -0.8212 H   0  0  0  0  0  0  0  0  0  0  0  0
  1  2  1  0  0  0  0
  2  3  1  0  0  0  0
  2  4  1  0  0  0  0
  2  5  1  0  0  0  0
  5  6  2  0  0  0  0
  5  7  1  0  0  0  0
  7  8  1  0  0  0  0
  7  9  1  0  0  0  0
  9 10  1  0  0  0  0
  9 11  1  0  0  0  0
  9 22  1  0  0  0  0
 11 12  1  0  0  0  0
 11 13  1  0  0  0  0
 11 14  1  0  0  0  0
 14 15  1  0  0  0  0
 14 16  1  0  0  0  0
 14 17  1  0  0  0  0
 17 18  1  0  0  0  0
 18 19  1  0  0  0  0
 18 20  1  0  0  0  0
 18 21  1  0  0  0  0
 22 23  2  0  0  0  0
 22 24  1  0  0  0  0
 24 25  1  0  0  0  0
 24 26  1  0  0  0  0
 26 27  1  0  0  0  0
 26 28  1  0  0  0  0
 26 29  1  0  0  0  0
M  END
$$$$

  -OEChem-01062216093D

 29 28  0     1  0  0  0  0  0999 V2000
   -3.3670   -3.2647    0.7259 H   0  0  0  0  0  0  0  0  0  0  0  0
   -3.3366   -2.2707    0.2705 C   0  0  0  0  0  0  0  0  0  0  0  0
   -4.1863   -1.6891    0.6357 H   0  0  0  0  0  0  0  0  0  0  0  0
   -3.4151   -2.3791   -0.8141 H   0  0  0  0  0  0  0  0  0  0  0  0
   -2.0381   -1.5725    0.6271 C   0  0  0  0  0  0  0  0  0  0  0  0
   -1.2263   -2.1389    1.3423 O   0  0  0  0  0  0  0  0  0  0  0  0
   -1.7892   -0.3078    0.1274 N   0  0  0  0  0  0  0  0  0  0  0  0
   -2.4396    0.0146   -0.5832 H   0  0  0  0  0  0  0  0  0  0  0  0
   -0.4803    0.3720    0.1892 C   0  0  1  0  0  0  0  0  0  0  0  0
   -0.5619    1.3016   -0.3807 H   0  0  0  0  0  0  0  0  0  0  0  0
   -0.0921    0.7475    1.6422 C   0  0  0  0  0  0  0  0  0  0  0  0
   -0.0888   -0.1396    2.2810 H   0  0  0  0  0  0  0  0  0  0  0  0
    0.9229    1.1533    1.6523 H   0  0  0  0  0  0  0  0  0  0  0  0
   -1.0258    1.8030    2.2507 C   0  0  0  0  0  0  0  0  0  0  0  0
   -2.0480    1.4121    2.2697 H   0  0  0  0  0  0  0  0  0  0  0  0
   -0.7294    1.9938    3.2868 H   0  0  0  0  0  0  0  0  0  0  0  0
   -1.0067    3.3910    1.3177 S   0  0  0  0  0  0  0  0  0  0  0  0
    0.6720    4.0569    1.6553 C   0  0  0  0  0  0  0  0  0  0  0  0
    1.4376    3.4084    1.2203 H   0  0  0  0  0  0  0  0  0  0  0  0
    0.7729    5.0541    1.2165 H   0  0  0  0  0  0  0  0  0  0  0  0
    0.8409    4.1309    2.7337 H   0  0  0  0  0  0  0  0  0  0  0  0
    0.6067   -0.4442   -0.5561 C   0  0  0  0  0  0  0  0  0  0  0  0
    0.3832   -0.8203   -1.7012 O   0  0  0  0  0  0  0  0  0  0  0  0
    1.8635   -0.6611   -0.0177 N   0  0  0  0  0  0  0  0  0  0  0  0
    1.9568   -0.4991    0.9802 H   0  0  0  0  0  0  0  0  0  0  0  0
    2.8754   -1.4727   -0.6834 C   0  0  0  0  0  0  0  0  0  0  0  0
    3.1102   -1.0602   -1.6704 H   0  0  0  0  0  0  0  0  0  0  0  0
    3.7954   -1.4903   -0.0915 H   0  0  0  0  0  0  0  0  0  0  0  0
    2.5206   -2.5016   -0.8062 H   0  0  0  0  0  0  0  0  0  0  0  0
  1  2  1  0  0  0  0
  2  3  1  0  0  0  0
  2  4  1  0  0  0  0
  2  5  1  0  0  0  0
  5  6  2  0  0  0  0
  5  7  1  0  0  0  0
  7  8  1  0  0  0  0
  7  9  1  0  0  0  0
  9 10  1  0  0  0  0
  9 11  1  0  0  0  0
  9 22  1  0  0  0  0
 11 12  1  0  0  0  0
 11 13  1  0  0  0  0
 11 14  1  0  0  0  0
 14 15  1  0  0  0  0
 14 16  1  0  0  0  0
 14 17  1  0  0  0  0
 17 18  1  0  0  0  0
 18 19  1  0  0  0  0
 18 20  1  0  0  0  0
 18 21  1  0  0  0  0
 22 23  2  0  0  0  0
 22 24  1  0  0  0  0
 24 25  1  0  0  0  0
 24 26  1  0  0  0  0
 26 27  1  0  0  0  0
 26 28  1  0  0  0  0
 26 29  1  0  0  0  0
M  END
$$$$

  -OEChem-01062216093D

 29 28  0     1  0  0  0  0  0999 V2000
   -3.3746   -3.2486    0.7519 H   0  0  0  0  0  0  0  0  0  0  0  0
   -3.3382   -2.2596    0.2863 C   0  0  0  0  0  0  0  0  0  0  0  0
   -4.1736   -1.6633    0.6609 H   0  0  0  0  0  0  0  0  0  0  0  0
   -3.4379   -2.3770   -0.7956 H   0  0  0  0  0  0  0  0  0  0  0  0
   -2.0243   -1.5755    0.6130 C   0  0  0  0  0  0  0  0  0  0  0  0
   -1.1999   -2.1504    1.3071 O   0  0  0  0  0  0  0  0  0  0  0  0
   -1.7735   -0.3118    0.1126 N   0  0  0  0  0  0  0  0  0  0  0  0
   -2.4385    0.0304   -0.5751 H   0  0  0  0  0  0  0  0  0  0  0  0
   -0.4684    0.3730    0.1832 C   0  0  1  0  0  0  0  0  0  0  0  0
   -0.5491    1.3024   -0.3874 H   0  0  0  0  0  0  0  0  0  0  0  0
   -0.0902    0.7491    1.6379 C   0  0  0  0  0  0  0  0  0  0  0  0
   -0.0909   -0.1375    2.2773 H   0  0  0  0  0  0  0  0  0  0  0  0
    0.9264    1.1521    1.6503 H   0  0  0  0  0  0  0  0  0  0  0  0
   -1.0301    1.8012    2.2435 C   0  0  0  0  0  0  0  0  0  0  0  0
   -2.0517    1.4079    2.2560 H   0  0  0  0  0  0  0  0  0  0  0  0
   -0.7402    1.9913    3.2815 H   0  0  0  0  0  0  0  0  0  0  0  0
   -1.0117    3.3904    1.3128 S   0  0  0  0  0  0  0  0  0  0  0  0
    0.6636    4.0606    1.6595 C   0  0  0  0  0  0  0  0  0  0  0  0
    1.4330    3.4144    1.2275 H   0  0  0  0  0  0  0  0  0  0  0  0
    0.7642    5.0586    1.2225 H   0  0  0  0  0  0  0  0  0  0  0  0
    0.8277    4.1337    2.7387 H   0  0  0  0  0  0  0  0  0  0  0  0
    0.6264   -0.4407   -0.5500 C   0  0  0  0  0  0  0  0  0  0  0  0
    0.5172   -0.6230   -1.7568 O   0  0  0  0  0  0  0  0  0  0  0  0
    1.7523   -0.9101    0.1035 N   0  0  0  0  0  0  0  0  0  0  0  0
    1.6848   -0.9466    1.1166 H   0  0  0  0  0  0  0  0  0  0  0  0
    2.7325   -1.7704   -0.5478 C   0  0  0  0  0  0  0  0  0  0  0  0
    3.1594   -1.2720   -1.4245 H   0  0  0  0  0  0  0  0  0  0  0  0
    3.5470   -2.0056    0.1438 H   0  0  0  0  0  0  0  0  0  0  0  0
    2.2663   -2.7082   -0.8678 H   0  0  0  0  0  0  0  0  0  0  0  0
  1  2  1  0  0  0  0
  2  3  1  0  0  0  0
  2  4  1  0  0  0  0
  2  5  1  0  0  0  0
  5  6  2  0  0  0  0
  5  7  1  0  0  0  0
  7  8  1  0  0  0  0
  7  9  1  0  0  0  0
  9 10  1  0  0  0  0
  9 11  1  0  0  0  0
  9 22  1  0  0  0  0
 11 12  1  0  0  0  0
 11 13  1  0  0  0  0
 11 14  1  0  0  0  0
 14 15  1  0  0  0  0
 14 16  1  0  0  0  0
 14 17  1  0  0  0  0
 17 18  1  0  0  0  0
 18 19  1  0  0  0  0
 18 20  1  0  0  0  0
 18 21  1  0  0  0  0
 22 23  2  0  0  0  0
 22 24  1  0  0  0  0
 24 25  1  0  0  0  0
 24 26  1  0  0  0  0
 26 27  1  0  0  0  0
 26 28  1  0  0  0  0
 26 29  1  0  0  0  0
M  END
$$$$

  -OEChem-01062216093D

 29 28  0     1  0  0  0  0  0999 V2000
   -3.3998   -3.2340    0.7728 H   0  0  0  0  0  0  0  0  0  0  0  0
   -3.3596   -2.2455    0.3067 C   0  0  0  0  0  0  0  0  0  0  0  0
   -4.1770   -1.6369    0.7006 H   0  0  0  0  0  0  0  0  0  0  0  0
   -3.4861   -2.3609   -0.7725 H   0  0  0  0  0  0  0  0  0  0  0  0
   -2.0289   -1.5812    0.6038 C   0  0  0  0  0  0  0  0  0  0  0  0
   -1.1959   -2.1686    1.2776 O   0  0  0  0  0  0  0  0  0  0  0  0
   -1.7685   -0.3212    0.0985 N   0  0  0  0  0  0  0  0  0  0  0  0
   -2.4534    0.0523   -0.5528 H   0  0  0  0  0  0  0  0  0  0  0  0
   -0.4639    0.3625    0.1760 C   0  0  1  0  0  0  0  0  0  0  0  0
   -0.5409    1.2913   -0.3968 H   0  0  0  0  0  0  0  0  0  0  0  0
   -0.0891    0.7397    1.6302 C   0  0  0  0  0  0  0  0  0  0  0  0
   -0.0955   -0.1462    2.2707 H   0  0  0  0  0  0  0  0  0  0  0  0
    0.9305    1.1355    1.6429 H   0  0  0  0  0  0  0  0  0  0  0  0
   -1.0283    1.7933    2.2336 C   0  0  0  0  0  0  0  0  0  0  0  0
   -2.0505    1.4018    2.2460 H   0  0  0  0  0  0  0  0  0  0  0  0
   -0.7380    1.9845    3.2714 H   0  0  0  0  0  0  0  0  0  0  0  0
   -1.0055    3.3813    1.3015 S   0  0  0  0  0  0  0  0  0  0  0  0
    0.6708    4.0473    1.6514 C   0  0  0  0  0  0  0  0  0  0  0  0
    1.4401    3.3991    1.2220 H   0  0  0  0  0  0  0  0  0  0  0  0
    0.7748    5.0446    1.2134 H   0  0  0  0  0  0  0  0  0  0  0  0
    0.8323    4.1209    2.7309 H   0  0  0  0  0  0  0  0  0  0  0  0
    0.6392   -0.4520   -0.5402 C   0  0  0  0  0  0  0  0  0  0  0  0
    0.6974   -0.4267   -1.7633 O   0  0  0  0  0  0  0  0  0  0  0  0
    1.5857   -1.1660    0.1719 N   0  0  0  0  0  0  0  0  0  0  0  0
    1.3128   -1.3942    1.1256 H   0  0  0  0  0  0  0  0  0  0  0  0
    2.5604   -2.0314   -0.4802 C   0  0  0  0  0  0  0  0  0  0  0  0
    3.1701   -1.4590   -1.1872 H   0  0  0  0  0  0  0  0  0  0  0  0
    3.2265   -2.4773    0.2645 H   0  0  0  0  0  0  0  0  0  0  0  0
    2.0549   -2.8372   -1.0226 H   0  0  0  0  0  0  0  0  0  0  0  0
  1  2  1  0  0  0  0
  2  3  1  0  0  0  0
  2  4  1  0  0  0  0
  2  5  1  0  0  0  0
  5  6  2  0  0  0  0
  5  7  1  0  0  0  0
  7  8  1  0  0  0  0
  7  9  1  0  0  0  0
  9 10  1  0  0  0  0
  9 11  1  0  0  0  0
  9 22  1  0  0  0  0
 11 12  1  0  0  0  0
 11 13  1  0  0  0  0
 11 14  1  0  0  0  0
 14 15  1  0  0  0  0
 14 16  1  0  0  0  0
 14 17  1  0  0  0  0
 17 18  1  0  0  0  0
 18 19  1  0  0  0  0
 18 20  1  0  0  0  0
 18 21  1  0  0  0  0
 22 23  2  0  0  0  0
 22 24  1  0  0  0  0
 24 25  1  0  0  0  0
 24 26  1  0  0  0  0
 26 27  1  0  0  0  0
 26 28  1  0  0  0  0
 26 29  1  0  0  0  0
M  END
$$$$

  -OEChem-01062216093D

 29 28  0     1  0  0  0  0  0999 V2000
   -3.4795   -3.1946    0.8129 H   0  0  0  0  0  0  0  0  0  0  0  0
   -3.4207   -2.2075    0.3455 C   0  0  0  0  0  0  0  0  0  0  0  0
   -4.2003   -1.5701    0.7696 H   0  0  0  0  0  0  0  0  0  0  0  0
   -3.5919   -2.3162   -0.7282 H   0  0  0  0  0  0  0  0  0  0  0  0
   -2.0566   -1.5921    0.5926 C   0  0  0  0  0  0  0  0  0  0  0  0
   -1.2239   -2.2049    1.2444 O   0  0  0  0  0  0  0  0  0  0  0  0
   -1.7728   -0.3404    0.0798 N   0  0  0  0  0  0  0  0  0  0  0  0
   -2.4829    0.0758   -0.5164 H   0  0  0  0  0  0  0  0  0  0  0  0
   -0.4656    0.3400    0.1550 C   0  0  1  0  0  0  0  0  0  0  0  0
   -0.5418    1.2690   -0.4181 H   0  0  0  0  0  0  0  0  0  0  0  0
   -0.0894    0.7110    1.6089 C   0  0  0  0  0  0  0  0  0  0  0  0
   -0.0989   -0.1776    2.2457 H   0  0  0  0  0  0  0  0  0  0  0  0
    0.9330    1.1004    1.6223 H   0  0  0  0  0  0  0  0  0  0  0  0
   -1.0254    1.7646    2.2167 C   0  0  0  0  0  0  0  0  0  0  0  0
   -2.0483    1.3756    2.2300 H   0  0  0  0  0  0  0  0  0  0  0  0
   -0.7332    1.9515    3.2548 H   0  0  0  0  0  0  0  0  0  0  0  0
   -0.9997    3.3552    1.2896 S   0  0  0  0  0  0  0  0  0  0  0  0
    0.6788    4.0136    1.6410 C   0  0  0  0  0  0  0  0  0  0  0  0
    1.4440    3.3636    1.2073 H   0  0  0  0  0  0  0  0  0  0  0  0
    0.7865    5.0119    1.2066 H   0  0  0  0  0  0  0  0  0  0  0  0
    0.8422    4.0817    2.7206 H   0  0  0  0  0  0  0  0  0  0  0  0
    0.6532   -0.4691   -0.5416 C   0  0  0  0  0  0  0  0  0  0  0  0
    0.9185   -0.2407   -1.7150 O   0  0  0  0  0  0  0  0  0  0  0  0
    1.3965   -1.4006    0.1586 N   0  0  0  0  0  0  0  0  0  0  0  0
    0.9274   -1.7644    0.9895 H   0  0  0  0  0  0  0  0  0  0  0  0
    2.3958   -2.2448   -0.4829 C   0  0  0  0  0  0  0  0  0  0  0  0
    3.1590   -1.6313   -0.9734 H   0  0  0  0  0  0  0  0  0  0  0  0
    2.8898   -2.8758    0.2620 H   0  0  0  0  0  0  0  0  0  0  0  0
    1.9274   -2.8911   -1.2323 H   0  0  0  0  0  0  0  0  0  0  0  0
  1  2  1  0  0  0  0
  2  3  1  0  0  0  0
  2  4  1  0  0  0  0
  2  5  1  0  0  0  0
  5  6  2  0  0  0  0
  5  7  1  0  0  0  0
  7  8  1  0  0  0  0
  7  9  1  0  0  0  0
  9 10  1  0  0  0  0
  9 11  1  0  0  0  0
  9 22  1  0  0  0  0
 11 12  1  0  0  0  0
 11 13  1  0  0  0  0
 11 14  1  0  0  0  0
 14 15  1  0  0  0  0
 14 16  1  0  0  0  0
 14 17  1  0  0  0  0
 17 18  1  0  0  0  0
 18 19  1  0  0  0  0
 18 20  1  0  0  0  0
 18 21  1  0  0  0  0
 22 23  2  0  0  0  0
 22 24  1  0  0  0  0
 24 25  1  0  0  0  0
 24 26  1  0  0  0  0
 26 27  1  0  0  0  0
 26 28  1  0  0  0  0
 26 29  1  0  0  0  0
M  END
$$$$

  -OEChem-01062216093D

 29 28  0     1  0  0  0  0  0999 V2000
   -3.5698   -3.1605    0.8343 H   0  0  0  0  0  0  0  0  0  0  0  0
   -3.4845   -2.1774    0.3627 C   0  0  0  0  0  0  0  0  0  0  0  0
   -4.2420   -1.5156    0.7895 H   0  0  0  0  0  0  0  0  0  0  0  0
   -3.6663   -2.2851   -0.7094 H   0  0  0  0  0  0  0  0  0  0  0  0
   -2.1013   -1.6011    0.5989 C   0  0  0  0  0  0  0  0  0  0  0  0
   -1.2875   -2.2352    1.2531 O   0  0  0  0  0  0  0  0  0  0  0  0
   -1.7871   -0.3595    0.0783 N   0  0  0  0  0  0  0  0  0  0  0  0
   -2.5063    0.0813   -0.4887 H   0  0  0  0  0  0  0  0  0  0  0  0
   -0.4746    0.3175    0.1433 C   0  0  1  0  0  0  0  0  0  0  0  0
   -0.5557    1.2462   -0.4297 H   0  0  0  0  0  0  0  0  0  0  0  0
   -0.0930    0.6860    1.5952 C   0  0  0  0  0  0  0  0  0  0  0  0
   -0.1018   -0.2052    2.2286 H   0  0  0  0  0  0  0  0  0  0  0  0
    0.9309    1.0718    1.6048 H   0  0  0  0  0  0  0  0  0  0  0  0
   -1.0224    1.7420    2.2099 C   0  0  0  0  0  0  0  0  0  0  0  0
   -2.0468    1.3574    2.2275 H   0  0  0  0  0  0  0  0  0  0  0  0
   -0.7243    1.9261    3.2468 H   0  0  0  0  0  0  0  0  0  0  0  0
   -0.9947    3.3342    1.2856 S   0  0  0  0  0  0  0  0  0  0  0  0
    0.6882    3.9858    1.6299 C   0  0  0  0  0  0  0  0  0  0  0  0
    1.4491    3.3353    1.1891 H   0  0  0  0  0  0  0  0  0  0  0  0
    0.7966    4.9856    1.1993 H   0  0  0  0  0  0  0  0  0  0  0  0
    0.8583    4.0489    2.7086 H   0  0  0  0  0  0  0  0  0  0  0  0
    0.6646   -0.4786   -0.5361 C   0  0  0  0  0  0  0  0  0  0  0  0
    1.1156   -0.0891   -1.6055 O   0  0  0  0  0  0  0  0  0  0  0  0
    1.2140   -1.5946    0.0649 N   0  0  0  0  0  0  0  0  0  0  0  0
    0.6382   -2.0063    0.8039 H   0  0  0  0  0  0  0  0  0  0  0  0
    2.2089   -2.4364   -0.5861 C   0  0  0  0  0  0  0  0  0  0  0  0
    3.0905   -1.8475   -0.8601 H   0  0  0  0  0  0  0  0  0  0  0  0
    2.5265   -3.2352    0.0908 H   0  0  0  0  0  0  0  0  0  0  0  0
    1.7931   -2.8910   -1.4913 H   0  0  0  0  0  0  0  0  0  0  0  0
  1  2  1  0  0  0  0
  2  3  1  0  0  0  0
  2  4  1  0  0  0  0
  2  5  1  0  0  0  0
  5  6  2  0  0  0  0
  5  7  1  0  0  0  0
  7  8  1  0  0  0  0
  7  9  1  0  0  0  0
  9 10  1  0  0  0  0
  9 11  1  0  0  0  0
  9 22  1  0  0  0  0
 11 12  1  0  0  0  0
 11 13  1  0  0  0  0
 11 14  1  0  0  0  0
 14 15  1  0  0  0  0
 14 16  1  0  0  0  0
 14 17  1  0  0  0  0
 17 18  1  0  0  0  0
 18 19  1  0  0  0  0
 18 20  1  0  0  0  0
 18 21  1  0  0  0  0
 22 23  2  0  0  0  0
 22 24  1  0  0  0  0
 24 25  1  0  0  0  0
 24 26  1  0  0  0  0
 26 27  1  0  0  0  0
 26 28  1  0  0  0  0
 26 29  1  0  0  0  0
M  END
$$$$

  -OEChem-01062216093D

 29 28  0     1  0  0  0  0  0999 V2000
   -3.6689   -3.1249    0.8561 H   0  0  0  0  0  0  0  0  0  0  0  0
   -3.5592   -2.1471    0.3785 C   0  0  0  0  0  0  0  0  0  0  0  0
   -4.3039   -1.4659    0.7972 H   0  0  0  0  0  0  0  0  0  0  0  0
   -3.7382   -2.2582   -0.6938 H   0  0  0  0  0  0  0  0  0  0  0  0
   -2.1642   -1.6010    0.6172 C   0  0  0  0  0  0  0  0  0  0  0  0
   -1.3698   -2.2522    1.2772 O   0  0  0  0  0  0  0  0  0  0  0  0
   -1.8214   -0.3711    0.0868 N   0  0  0  0  0  0  0  0  0  0  0  0
   -2.5430    0.0855   -0.4644 H   0  0  0  0  0  0  0  0  0  0  0  0
   -0.5001    0.2958    0.1313 C   0  0  1  0  0  0  0  0  0  0  0  0
   -0.5853    1.2245   -0.4417 H   0  0  0  0  0  0  0  0  0  0  0  0
   -0.1010    0.6581    1.5785 C   0  0  0  0  0  0  0  0  0  0  0  0
   -0.1083   -0.2363    2.2077 H   0  0  0  0  0  0  0  0  0  0  0  0
    0.9257    1.0366    1.5786 H   0  0  0  0  0  0  0  0  0  0  0  0
   -1.0146    1.7201    2.2066 C   0  0  0  0  0  0  0  0  0  0  0  0
   -2.0420    1.3440    2.2357 H   0  0  0  0  0  0  0  0  0  0  0  0
   -0.7024    1.8989    3.2403 H   0  0  0  0  0  0  0  0  0  0  0  0
   -0.9838    3.3142    1.2857 S   0  0  0  0  0  0  0  0  0  0  0  0
    0.7087    3.9501    1.6127 C   0  0  0  0  0  0  0  0  0  0  0  0
    1.4585    3.2908    1.1660 H   0  0  0  0  0  0  0  0  0  0  0  0
    0.8234    4.9478    1.1787 H   0  0  0  0  0  0  0  0  0  0  0  0
    0.8901    4.0137    2.6897 H   0  0  0  0  0  0  0  0  0  0  0  0
    0.6503   -0.4917   -0.5422 C   0  0  0  0  0  0  0  0  0  0  0  0
    1.2685    0.0253   -1.4634 O   0  0  0  0  0  0  0  0  0  0  0  0
    1.0193   -1.7517   -0.1141 N   0  0  0  0  0  0  0  0  0  0  0  0
    0.3990   -2.1886    0.5732 H   0  0  0  0  0  0  0  0  0  0  0  0
    2.0394   -2.5626   -0.7647 C   0  0  0  0  0  0  0  0  0  0  0  0
    2.9951   -2.0287   -0.7902 H   0  0  0  0  0  0  0  0  0  0  0  0
    2.1823   -3.4987   -0.2164 H   0  0  0  0  0  0  0  0  0  0  0  0
    1.7416   -2.8019   -1.7908 H   0  0  0  0  0  0  0  0  0  0  0  0
  1  2  1  0  0  0  0
  2  3  1  0  0  0  0
  2  4  1  0  0  0  0
  2  5  1  0  0  0  0
  5  6  2  0  0  0  0
  5  7  1  0  0  0  0
  7  8  1  0  0  0  0
  7  9  1  0  0  0  0
  9 10  1  0  0  0  0
  9 11  1  0  0  0  0
  9 22  1  0  0  0  0
 11 12  1  0  0  0  0
 11 13  1  0  0  0  0
 11 14  1  0  0  0  0
 14 15  1  0  0  0  0
 14 16  1  0  0  0  0
 14 17  1  0  0  0  0
 17 18  1  0  0  0  0
 18 19  1  0  0  0  0
 18 20  1  0  0  0  0
 18 21  1  0  0  0  0
 22 23  2  0  0  0  0
 22 24  1  0  0  0  0
 24 25  1  0  0  0  0
 24 26  1  0  0  0  0
 26 27  1  0  0  0  0
 26 28  1  0  0  0  0
 26 29  1  0  0  0  0
M  END
$$$$

  -OEChem-01062216093D

 29 28  0     1  0  0  0  0  0999 V2000
   -3.7722   -3.0683    0.9302 H   0  0  0  0  0  0  0  0  0  0  0  0
   -3.6470   -2.1005    0.4362 C   0  0  0  0  0  0  0  0  0  0  0  0
   -4.3499   -1.3888    0.8759 H   0  0  0  0  0  0  0  0  0  0  0  0
   -3.8730   -2.2168   -0.6266 H   0  0  0  0  0  0  0  0  0  0  0  0
   -2.2250   -1.6023    0.6130 C   0  0  0  0  0  0  0  0  0  0  0  0
   -1.4241   -2.2855    1.2305 O   0  0  0  0  0  0  0  0  0  0  0  0
   -1.8685   -0.3775    0.0797 N   0  0  0  0  0  0  0  0  0  0  0  0
   -2.6055    0.1111   -0.4214 H   0  0  0  0  0  0  0  0  0  0  0  0
   -0.5383    0.2753    0.0970 C   0  0  1  0  0  0  0  0  0  0  0  0
   -0.6285    1.2078   -0.4683 H   0  0  0  0  0  0  0  0  0  0  0  0
   -0.1131    0.6209    1.5406 C   0  0  0  0  0  0  0  0  0  0  0  0
   -0.1190   -0.2805    2.1602 H   0  0  0  0  0  0  0  0  0  0  0  0
    0.9171    0.9898    1.5287 H   0  0  0  0  0  0  0  0  0  0  0  0
   -1.0054    1.6864    2.1932 C   0  0  0  0  0  0  0  0  0  0  0  0
   -2.0360    1.3209    2.2367 H   0  0  0  0  0  0  0  0  0  0  0  0
   -0.6737    1.8533    3.2229 H   0  0  0  0  0  0  0  0  0  0  0  0
   -0.9734    3.2886    1.2865 S   0  0  0  0  0  0  0  0  0  0  0  0
    0.7313    3.9012    1.5931 C   0  0  0  0  0  0  0  0  0  0  0  0
    1.4654    3.2434    1.1187 H   0  0  0  0  0  0  0  0  0  0  0  0
    0.8476    4.9062    1.1770 H   0  0  0  0  0  0  0  0  0  0  0  0
    0.9342    3.9416    2.6673 H   0  0  0  0  0  0  0  0  0  0  0  0
    0.6100   -0.5022   -0.5941 C   0  0  0  0  0  0  0  0  0  0  0  0
    1.3877    0.1093   -1.3152 O   0  0  0  0  0  0  0  0  0  0  0  0
    0.8100   -1.8549   -0.4030 N   0  0  0  0  0  0  0  0  0  0  0  0
    0.1777   -2.3178    0.2550 H   0  0  0  0  0  0  0  0  0  0  0  0
    1.9158   -2.6072   -0.9794 C   0  0  0  0  0  0  0  0  0  0  0  0
    2.8742   -2.1947   -0.6473 H   0  0  0  0  0  0  0  0  0  0  0  0
    1.8628   -3.6543   -0.6664 H   0  0  0  0  0  0  0  0  0  0  0  0
    1.8748   -2.5704   -2.0729 H   0  0  0  0  0  0  0  0  0  0  0  0
  1  2  1  0  0  0  0
  2  3  1  0  0  0  0
  2  4  1  0  0  0  0
  2  5  1  0  0  0  0
  5  6  2  0  0  0  0
  5  7  1  0  0  0  0
  7  8  1  0  0  0  0
  7  9  1  0  0  0  0
  9 10  1  0  0  0  0
  9 11  1  0  0  0  0
  9 22  1  0  0  0  0
 11 12  1  0  0  0  0
 11 13  1  0  0  0  0
 11 14  1  0  0  0  0
 14 15  1  0  0  0  0
 14 16  1  0  0  0  0
 14 17  1  0  0  0  0
 17 18  1  0  0  0  0
 18 19  1  0  0  0  0
 18 20  1  0  0  0  0
 18 21  1  0  0  0  0
 22 23  2  0  0  0  0
 22 24  1  0  0  0  0
 24 25  1  0  0  0  0
 24 26  1  0  0  0  0
 26 27  1  0  0  0  0
 26 28  1  0  0  0  0
 26 29  1  0  0  0  0
M  END
$$$$

  -OEChem-01062216093D

 29 28  0     1  0  0  0  0  0999 V2000
   -3.8119   -3.0351    0.9825 H   0  0  0  0  0  0  0  0  0  0  0  0
   -3.6879   -2.0681    0.4866 C   0  0  0  0  0  0  0  0  0  0  0  0
   -4.3532   -1.3428    0.9613 H   0  0  0  0  0  0  0  0  0  0  0  0
   -3.9658   -2.1743   -0.5650 H   0  0  0  0  0  0  0  0  0  0  0  0
   -2.2483   -1.6032    0.5981 C   0  0  0  0  0  0  0  0  0  0  0  0
   -1.4279   -2.3185    1.1492 O   0  0  0  0  0  0  0  0  0  0  0  0
   -1.8914   -0.3785    0.0664 N   0  0  0  0  0  0  0  0  0  0  0  0
   -2.6461    0.1429   -0.3714 H   0  0  0  0  0  0  0  0  0  0  0  0
   -0.5577    0.2693    0.0701 C   0  0  1  0  0  0  0  0  0  0  0  0
   -0.6513    1.2055   -0.4889 H   0  0  0  0  0  0  0  0  0  0  0  0
   -0.1209    0.6011    1.5137 C   0  0  0  0  0  0  0  0  0  0  0  0
   -0.1255   -0.3067    2.1242 H   0  0  0  0  0  0  0  0  0  0  0  0
    0.9105    0.9672    1.4991 H   0  0  0  0  0  0  0  0  0  0  0  0
   -1.0044    1.6639    2.1821 C   0  0  0  0  0  0  0  0  0  0  0  0
   -2.0358    1.3017    2.2315 H   0  0  0  0  0  0  0  0  0  0  0  0
   -0.6629    1.8204    3.2102 H   0  0  0  0  0  0  0  0  0  0  0  0
   -0.9733    3.2733    1.2888 S   0  0  0  0  0  0  0  0  0  0  0  0
    0.7356    3.8783    1.5872 C   0  0  0  0  0  0  0  0  0  0  0  0
    1.4650    3.2210    1.1043 H   0  0  0  0  0  0  0  0  0  0  0  0
    0.8522    4.8854    1.1761 H   0  0  0  0  0  0  0  0  0  0  0  0
    0.9453    3.9119    2.6602 H   0  0  0  0  0  0  0  0  0  0  0  0
    0.5910   -0.4977   -0.6347 C   0  0  0  0  0  0  0  0  0  0  0  0
    1.4985    0.1456   -1.1468 O   0  0  0  0  0  0  0  0  0  0  0  0
    0.6361   -1.8762   -0.7073 N   0  0  0  0  0  0  0  0  0  0  0  0
   -0.0272   -2.3689   -0.1049 H   0  0  0  0  0  0  0  0  0  0  0  0
    1.7661   -2.6153   -1.2539 C   0  0  0  0  0  0  0  0  0  0  0  0
    2.6774   -2.3973   -0.6872 H   0  0  0  0  0  0  0  0  0  0  0  0
    1.5729   -3.6910   -1.2009 H   0  0  0  0  0  0  0  0  0  0  0  0
    1.9292   -2.3454   -2.3024 H   0  0  0  0  0  0  0  0  0  0  0  0
  1  2  1  0  0  0  0
  2  3  1  0  0  0  0
  2  4  1  0  0  0  0
  2  5  1  0  0  0  0
  5  6  2  0  0  0  0
  5  7  1  0  0  0  0
  7  8  1  0  0  0  0
  7  9  1  0  0  0  0
  9 10  1  0  0  0  0
  9 11  1  0  0  0  0
  9 22  1  0  0  0  0
 11 12  1  0  0  0  0
 11 13  1  0  0  0  0
 11 14  1  0  0  0  0
 14 15  1  0  0  0  0
 14 16  1  0  0  0  0
 14 17  1  0  0  0  0
 17 18  1  0  0  0  0
 18 19  1  0  0  0  0
 18 20  1  0  0  0  0
 18 21  1  0  0  0  0
 22 23  2  0  0  0  0
 22 24  1  0  0  0  0
 24 25  1  0  0  0  0
 24 26  1  0  0  0  0
 26 27  1  0  0  0  0
 26 28  1  0  0  0  0
 26 29  1  0  0  0  0
M  END
$$$$

  -OEChem-01062216093D

 29 28  0     1  0  0  0  0  0999 V2000
   -3.8026   -3.0080    1.0368 H   0  0  0  0  0  0  0  0  0  0  0  0
   -3.6887   -2.0418    0.5367 C   0  0  0  0  0  0  0  0  0  0  0  0
   -4.3153   -1.3068    1.0478 H   0  0  0  0  0  0  0  0  0  0  0  0
   -4.0241   -2.1399   -0.4987 H   0  0  0  0  0  0  0  0  0  0  0  0
   -2.2373   -1.6022    0.5711 C   0  0  0  0  0  0  0  0  0  0  0  0
   -1.3930   -2.3485    1.0377 O   0  0  0  0  0  0  0  0  0  0  0  0
   -1.8884   -0.3752    0.0406 N   0  0  0  0  0  0  0  0  0  0  0  0
   -2.6591    0.1785   -0.3233 H   0  0  0  0  0  0  0  0  0  0  0  0
   -0.5548    0.2728    0.0472 C   0  0  1  0  0  0  0  0  0  0  0  0
   -0.6451    1.2104   -0.5091 H   0  0  0  0  0  0  0  0  0  0  0  0
   -0.1316    0.5955    1.4977 C   0  0  0  0  0  0  0  0  0  0  0  0
   -0.1417   -0.3176    2.1004 H   0  0  0  0  0  0  0  0  0  0  0  0
    0.8993    0.9623    1.4989 H   0  0  0  0  0  0  0  0  0  0  0  0
   -1.0221    1.6529    2.1653 C   0  0  0  0  0  0  0  0  0  0  0  0
   -2.0537    1.2906    2.2033 H   0  0  0  0  0  0  0  0  0  0  0  0
   -0.6898    1.8035    3.1974 H   0  0  0  0  0  0  0  0  0  0  0  0
   -0.9823    3.2668    1.2808 S   0  0  0  0  0  0  0  0  0  0  0  0
    0.7241    3.8683    1.5994 C   0  0  0  0  0  0  0  0  0  0  0  0
    1.4572    3.2115    1.1216 H   0  0  0  0  0  0  0  0  0  0  0  0
    0.8463    4.8765    1.1929 H   0  0  0  0  0  0  0  0  0  0  0  0
    0.9232    3.8976    2.6747 H   0  0  0  0  0  0  0  0  0  0  0  0
    0.5982   -0.4894   -0.6571 C   0  0  0  0  0  0  0  0  0  0  0  0
    1.6046    0.1313   -0.9771 O   0  0  0  0  0  0  0  0  0  0  0  0
    0.5076   -1.8252   -0.9985 N   0  0  0  0  0  0  0  0  0  0  0  0
   -0.2061   -2.3444   -0.4840 H   0  0  0  0  0  0  0  0  0  0  0  0
    1.6202   -2.5720   -1.5710 C   0  0  0  0  0  0  0  0  0  0  0  0
    2.4737   -2.5746   -0.8850 H   0  0  0  0  0  0  0  0  0  0  0  0
    1.3212   -3.6077   -1.7585 H   0  0  0  0  0  0  0  0  0  0  0  0
    1.9328   -2.1268   -2.5215 H   0  0  0  0  0  0  0  0  0  0  0  0
  1  2  1  0  0  0  0
  2  3  1  0  0  0  0
  2  4  1  0  0  0  0
  2  5  1  0  0  0  0
  5  6  2  0  0  0  0
  5  7  1  0  0  0  0
  7  8  1  0  0  0  0
  7  9  1  0  0  0  0
  9 10  1  0  0  0  0
  9 11  1  0  0  0  0
  9 22  1  0  0  0  0
 11 12  1  0  0  0  0
 11 13  1  0  0  0  0
 11 14  1  0  0  0  0
 14 15  1  0  0  0  0
 14 16  1  0  0  0  0
 14 17  1  0  0  0  0
 17 18  1  0  0  0  0
 18 19  1  0  0  0  0
 18 20  1  0  0  0  0
 18 21  1  0  0  0  0
 22 23  2  0  0  0  0
 22 24  1  0  0  0  0
 24 25  1  0  0  0  0
 24 26  1  0  0  0  0
 26 27  1  0  0  0  0
 26 28  1  0  0  0  0
 26 29  1  0  0  0  0
M  END
$$$$

  -OEChem-01062216093D

 29 28  0     1  0  0  0  0  0999 V2000
   -3.7609   -2.9884    1.0865 H   0  0  0  0  0  0  0  0  0  0  0  0
   -3.6627   -2.0225    0.5826 C   0  0  0  0  0  0  0  0  0  0  0  0
   -4.2475   -1.2804    1.1316 H   0  0  0  0  0  0  0  0  0  0  0  0
   -4.0595   -2.1117   -0.4317 H   0  0  0  0  0  0  0  0  0  0  0  0
   -2.2057   -1.6040    0.5343 C   0  0  0  0  0  0  0  0  0  0  0  0
   -1.3414   -2.3749    0.9144 O   0  0  0  0  0  0  0  0  0  0  0  0
   -1.8692   -0.3724    0.0078 N   0  0  0  0  0  0  0  0  0  0  0  0
   -2.6514    0.2065   -0.2853 H   0  0  0  0  0  0  0  0  0  0  0  0
   -0.5376    0.2787    0.0303 C   0  0  1  0  0  0  0  0  0  0  0  0
   -0.6198    1.2170   -0.5254 H   0  0  0  0  0  0  0  0  0  0  0  0
   -0.1407    0.5969    1.4908 C   0  0  0  0  0  0  0  0  0  0  0  0
   -0.1597   -0.3199    2.0882 H   0  0  0  0  0  0  0  0  0  0  0  0
    0.8886    0.9671    1.5154 H   0  0  0  0  0  0  0  0  0  0  0  0
   -1.0465    1.6490    2.1463 C   0  0  0  0  0  0  0  0  0  0  0  0
   -2.0776    1.2838    2.1658 H   0  0  0  0  0  0  0  0  0  0  0  0
   -0.7323    1.7971    3.1844 H   0  0  0  0  0  0  0  0  0  0  0  0
   -0.9951    3.2661    1.2682 S   0  0  0  0  0  0  0  0  0  0  0  0
    0.7040    3.8694    1.6211 C   0  0  0  0  0  0  0  0  0  0  0  0
    1.4472    3.2164    1.1537 H   0  0  0  0  0  0  0  0  0  0  0  0
    0.8323    4.8801    1.2227 H   0  0  0  0  0  0  0  0  0  0  0  0
    0.8828    3.8931    2.7001 H   0  0  0  0  0  0  0  0  0  0  0  0
    0.6172   -0.4874   -0.6678 C   0  0  0  0  0  0  0  0  0  0  0  0
    1.7032    0.0648   -0.7998 O   0  0  0  0  0  0  0  0  0  0  0  0
    0.4178   -1.7125   -1.2761 N   0  0  0  0  0  0  0  0  0  0  0  0
   -0.3641   -2.2404   -0.8885 H   0  0  0  0  0  0  0  0  0  0  0  0
    1.5013   -2.4630   -1.8982 C   0  0  0  0  0  0  0  0  0  0  0  0
    2.2727   -2.7055   -1.1599 H   0  0  0  0  0  0  0  0  0  0  0  0
    1.1188   -3.3964   -2.3218 H   0  0  0  0  0  0  0  0  0  0  0  0
    1.9567   -1.8806   -2.7061 H   0  0  0  0  0  0  0  0  0  0  0  0
  1  2  1  0  0  0  0
  2  3  1  0  0  0  0
  2  4  1  0  0  0  0
  2  5  1  0  0  0  0
  5  6  2  0  0  0  0
  5  7  1  0  0  0  0
  7  8  1  0  0  0  0
  7  9  1  0  0  0  0
  9 10  1  0  0  0  0
  9 11  1  0  0  0  0
  9 22  1  0  0  0  0
 11 12  1  0  0  0  0
 11 13  1  0  0  0  0
 11 14  1  0  0  0  0
 14 15  1  0  0  0  0
 14 16  1  0  0  0  0
 14 17  1  0  0  0  0
 17 18  1  0  0  0  0
 18 19  1  0  0  0  0
 18 20  1  0  0  0  0
 18 21  1  0  0  0  0
 22 23  2  0  0  0  0
 22 24  1  0  0  0  0
 24 25  1  0  0  0  0
 24 26  1  0  0  0  0
 26 27  1  0  0  0  0
 26 28  1  0  0  0  0
 26 29  1  0  0  0  0
M  END
$$$$

  -OEChem-01062216093D

 29 28  0     1  0  0  0  0  0999 V2000
   -3.6862   -3.0152    1.0776 H   0  0  0  0  0  0  0  0  0  0  0  0
   -3.6107   -2.0394    0.5892 C   0  0  0  0  0  0  0  0  0  0  0  0
   -4.1868   -1.3130    1.1675 H   0  0  0  0  0  0  0  0  0  0  0  0
   -4.0349   -2.1148   -0.4151 H   0  0  0  0  0  0  0  0  0  0  0  0
   -2.1592   -1.6063    0.5089 C   0  0  0  0  0  0  0  0  0  0  0  0
   -1.2785   -2.3752    0.8500 O   0  0  0  0  0  0  0  0  0  0  0  0
   -1.8448   -0.3654   -0.0098 N   0  0  0  0  0  0  0  0  0  0  0  0
   -2.6376    0.2224   -0.2528 H   0  0  0  0  0  0  0  0  0  0  0  0
   -0.5173    0.2927    0.0264 C   0  0  1  0  0  0  0  0  0  0  0  0
   -0.5951    1.2323   -0.5277 H   0  0  0  0  0  0  0  0  0  0  0  0
   -0.1368    0.6091    1.4934 C   0  0  0  0  0  0  0  0  0  0  0  0
   -0.1554   -0.3098    2.0875 H   0  0  0  0  0  0  0  0  0  0  0  0
    0.8888    0.9881    1.5324 H   0  0  0  0  0  0  0  0  0  0  0  0
   -1.0555    1.6543    2.1424 C   0  0  0  0  0  0  0  0  0  0  0  0
   -2.0846    1.2832    2.1514 H   0  0  0  0  0  0  0  0  0  0  0  0
   -0.7523    1.8012    3.1840 H   0  0  0  0  0  0  0  0  0  0  0  0
   -1.0045    3.2745    1.2697 S   0  0  0  0  0  0  0  0  0  0  0  0
    0.6874    3.8876    1.6420 C   0  0  0  0  0  0  0  0  0  0  0  0
    1.4401    3.2407    1.1816 H   0  0  0  0  0  0  0  0  0  0  0  0
    0.8141    4.9000    1.2472 H   0  0  0  0  0  0  0  0  0  0  0  0
    0.8546    3.9100    2.7228 H   0  0  0  0  0  0  0  0  0  0  0  0
    0.6291   -0.4806   -0.6794 C   0  0  0  0  0  0  0  0  0  0  0  0
    1.7790   -0.0619   -0.6132 O   0  0  0  0  0  0  0  0  0  0  0  0
    0.3555   -1.5263   -1.5419 N   0  0  0  0  0  0  0  0  0  0  0  0
   -0.5323   -1.9885   -1.3642 H   0  0  0  0  0  0  0  0  0  0  0  0
    1.4071   -2.3009   -2.1891 C   0  0  0  0  0  0  0  0  0  0  0  0
    2.0383   -2.7898   -1.4397 H   0  0  0  0  0  0  0  0  0  0  0  0
    0.9684   -3.0712   -2.8306 H   0  0  0  0  0  0  0  0  0  0  0  0
    2.0347   -1.6534   -2.8103 H   0  0  0  0  0  0  0  0  0  0  0  0
  1  2  1  0  0  0  0
  2  3  1  0  0  0  0
  2  4  1  0  0  0  0
  2  5  1  0  0  0  0
  5  6  2  0  0  0  0
  5  7  1  0  0  0  0
  7  8  1  0  0  0  0
  7  9  1  0  0  0  0
  9 10  1  0  0  0  0
  9 11  1  0  0  0  0
  9 22  1  0  0  0  0
 11 12  1  0  0  0  0
 11 13  1  0  0  0  0
 11 14  1  0  0  0  0
 14 15  1  0  0  0  0
 14 16  1  0  0  0  0
 14 17  1  0  0  0  0
 17 18  1  0  0  0  0
 18 19  1  0  0  0  0
 18 20  1  0  0  0  0
 18 21  1  0  0  0  0
 22 23  2  0  0  0  0
 22 24  1  0  0  0  0
 24 25  1  0  0  0  0
 24 26  1  0  0  0  0
 26 27  1  0  0  0  0
 26 28  1  0  0  0  0
 26 29  1  0  0  0  0
M  END
$$$$

  -OEChem-01062216093D

 29 28  0     1  0  0  0  0  0999 V2000
   -3.6111   -3.0494    1.0453 H   0  0  0  0  0  0  0  0  0  0  0  0
   -3.5517   -2.0648    0.5725 C   0  0  0  0  0  0  0  0  0  0  0  0
   -4.1334   -1.3557    1.1664 H   0  0  0  0  0  0  0  0  0  0  0  0
   -3.9809   -2.1295   -0.4302 H   0  0  0  0  0  0  0  0  0  0  0  0
   -2.1062   -1.6120    0.4910 C   0  0  0  0  0  0  0  0  0  0  0  0
   -1.2175   -2.3639    0.8477 O   0  0  0  0  0  0  0  0  0  0  0  0
   -1.8115   -0.3625   -0.0209 N   0  0  0  0  0  0  0  0  0  0  0  0
   -2.6124    0.2233   -0.2403 H   0  0  0  0  0  0  0  0  0  0  0  0
   -0.4903    0.3047    0.0324 C   0  0  1  0  0  0  0  0  0  0  0  0
   -0.5637    1.2446   -0.5214 H   0  0  0  0  0  0  0  0  0  0  0  0
   -0.1276    0.6242    1.5037 C   0  0  0  0  0  0  0  0  0  0  0  0
   -0.1439   -0.2945    2.0984 H   0  0  0  0  0  0  0  0  0  0  0  0
    0.8937    1.0132    1.5541 H   0  0  0  0  0  0  0  0  0  0  0  0
   -1.0620    1.6627    2.1405 C   0  0  0  0  0  0  0  0  0  0  0  0
   -2.0879    1.2830    2.1378 H   0  0  0  0  0  0  0  0  0  0  0  0
   -0.7723    1.8123    3.1856 H   0  0  0  0  0  0  0  0  0  0  0  0
   -1.0147    3.2830    1.2678 S   0  0  0  0  0  0  0  0  0  0  0  0
    0.6674    3.9099    1.6597 C   0  0  0  0  0  0  0  0  0  0  0  0
    1.4307    3.2657    1.2132 H   0  0  0  0  0  0  0  0  0  0  0  0
    0.7921    4.9212    1.2616 H   0  0  0  0  0  0  0  0  0  0  0  0
    0.8196    3.9390    2.7426 H   0  0  0  0  0  0  0  0  0  0  0  0
    0.6462   -0.4798   -0.6772 C   0  0  0  0  0  0  0  0  0  0  0  0
    1.8231   -0.2602   -0.4153 O   0  0  0  0  0  0  0  0  0  0  0  0
    0.3519   -1.2923   -1.7573 N   0  0  0  0  0  0  0  0  0  0  0  0
   -0.6195   -1.5764   -1.8315 H   0  0  0  0  0  0  0  0  0  0  0  0
    1.3612   -2.0935   -2.4384 C   0  0  0  0  0  0  0  0  0  0  0  0
    1.8134   -2.8097   -1.7443 H   0  0  0  0  0  0  0  0  0  0  0  0
    0.9083   -2.6487   -3.2652 H   0  0  0  0  0  0  0  0  0  0  0  0
    2.1495   -1.4522   -2.8464 H   0  0  0  0  0  0  0  0  0  0  0  0
  1  2  1  0  0  0  0
  2  3  1  0  0  0  0
  2  4  1  0  0  0  0
  2  5  1  0  0  0  0
  5  6  2  0  0  0  0
  5  7  1  0  0  0  0
  7  8  1  0  0  0  0
  7  9  1  0  0  0  0
  9 10  1  0  0  0  0
  9 11  1  0  0  0  0
  9 22  1  0  0  0  0
 11 12  1  0  0  0  0
 11 13  1  0  0  0  0
 11 14  1  0  0  0  0
 14 15  1  0  0  0  0
 14 16  1  0  0  0  0
 14 17  1  0  0  0  0
 17 18  1  0  0  0  0
 18 19  1  0  0  0  0
 18 20  1  0  0  0  0
 18 21  1  0  0  0  0
 22 23  2  0  0  0  0
 22 24  1  0  0  0  0
 24 25  1  0  0  0  0
 24 26  1  0  0  0  0
 26 27  1  0  0  0  0
 26 28  1  0  0  0  0
 26 29  1  0  0  0  0
M  END
$$$$

  -OEChem-01062216093D

 29 28  0     1  0  0  0  0  0999 V2000
   -3.5844   -3.0650    1.0325 H   0  0  0  0  0  0  0  0  0  0  0  0
   -3.5232   -2.0897    0.5410 C   0  0  0  0  0  0  0  0  0  0  0  0
   -4.1330   -1.3765    1.1009 H   0  0  0  0  0  0  0  0  0  0  0  0
   -3.9189   -2.1812   -0.4733 H   0  0  0  0  0  0  0  0  0  0  0  0
   -2.0817   -1.6189    0.4945 C   0  0  0  0  0  0  0  0  0  0  0  0
   -1.1946   -2.3575    0.8811 O   0  0  0  0  0  0  0  0  0  0  0  0
   -1.7920   -0.3674   -0.0162 N   0  0  0  0  0  0  0  0  0  0  0  0
   -2.5953    0.2119   -0.2439 H   0  0  0  0  0  0  0  0  0  0  0  0
   -0.4751    0.3051    0.0465 C   0  0  1  0  0  0  0  0  0  0  0  0
   -0.5448    1.2426   -0.5114 H   0  0  0  0  0  0  0  0  0  0  0  0
   -0.1210    0.6354    1.5178 C   0  0  0  0  0  0  0  0  0  0  0  0
   -0.1375   -0.2797    2.1176 H   0  0  0  0  0  0  0  0  0  0  0  0
    0.8991    1.0270    1.5692 H   0  0  0  0  0  0  0  0  0  0  0  0
   -1.0614    1.6745    2.1447 C   0  0  0  0  0  0  0  0  0  0  0  0
   -2.0861    1.2916    2.1400 H   0  0  0  0  0  0  0  0  0  0  0  0
   -0.7765    1.8313    3.1900 H   0  0  0  0  0  0  0  0  0  0  0  0
   -1.0145    3.2895    1.2618 S   0  0  0  0  0  0  0  0  0  0  0  0
    0.6649    3.9195    1.6599 C   0  0  0  0  0  0  0  0  0  0  0  0
    1.4304    3.2826    1.2067 H   0  0  0  0  0  0  0  0  0  0  0  0
    0.7855    4.9353    1.2721 H   0  0  0  0  0  0  0  0  0  0  0  0
    0.8171    3.9379    2.7430 H   0  0  0  0  0  0  0  0  0  0  0  0
    0.6537   -0.4917   -0.6604 C   0  0  0  0  0  0  0  0  0  0  0  0
    1.8081   -0.4758   -0.2490 O   0  0  0  0  0  0  0  0  0  0  0  0
    0.4074   -1.0443   -1.9045 N   0  0  0  0  0  0  0  0  0  0  0  0
   -0.5697   -1.1421   -2.1597 H   0  0  0  0  0  0  0  0  0  0  0  0
    1.4015   -1.8203   -2.6358 C   0  0  0  0  0  0  0  0  0  0  0  0
    1.6955   -2.7046   -2.0603 H   0  0  0  0  0  0  0  0  0  0  0  0
    0.9930   -2.1500   -3.5956 H   0  0  0  0  0  0  0  0  0  0  0  0
    2.2928   -1.2148   -2.8316 H   0  0  0  0  0  0  0  0  0  0  0  0
  1  2  1  0  0  0  0
  2  3  1  0  0  0  0
  2  4  1  0  0  0  0
  2  5  1  0  0  0  0
  5  6  2  0  0  0  0
  5  7  1  0  0  0  0
  7  8  1  0  0  0  0
  7  9  1  0  0  0  0
  9 10  1  0  0  0  0
  9 11  1  0  0  0  0
  9 22  1  0  0  0  0
 11 12  1  0  0  0  0
 11 13  1  0  0  0  0
 11 14  1  0  0  0  0
 14 15  1  0  0  0  0
 14 16  1  0  0  0  0
 14 17  1  0  0  0  0
 17 18  1  0  0  0  0
 18 19  1  0  0  0  0
 18 20  1  0  0  0  0
 18 21  1  0  0  0  0
 22 23  2  0  0  0  0
 22 24  1  0  0  0  0
 24 25  1  0  0  0  0
 24 26  1  0  0  0  0
 26 27  1  0  0  0  0
 26 28  1  0  0  0  0
 26 29  1  0  0  0  0
M  END
$$$$

  -OEChem-01062216093D

 29 28  0     1  0  0  0  0  0999 V2000
   -3.5845   -3.0810    1.0060 H   0  0  0  0  0  0  0  0  0  0  0  0
   -3.5173   -2.1030    0.5206 C   0  0  0  0  0  0  0  0  0  0  0  0
   -4.1399   -1.3944    1.0718 H   0  0  0  0  0  0  0  0  0  0  0  0
   -3.8930   -2.1907   -0.5016 H   0  0  0  0  0  0  0  0  0  0  0  0
   -2.0773   -1.6263    0.5042 C   0  0  0  0  0  0  0  0  0  0  0  0
   -1.1985   -2.3573    0.9220 O   0  0  0  0  0  0  0  0  0  0  0  0
   -1.7851   -0.3753   -0.0067 N   0  0  0  0  0  0  0  0  0  0  0  0
   -2.5877    0.1970   -0.2520 H   0  0  0  0  0  0  0  0  0  0  0  0
   -0.4702    0.2989    0.0558 C   0  0  1  0  0  0  0  0  0  0  0  0
   -0.5402    1.2359   -0.5025 H   0  0  0  0  0  0  0  0  0  0  0  0
   -0.1149    0.6353    1.5248 C   0  0  0  0  0  0  0  0  0  0  0  0
   -0.1296   -0.2771    2.1294 H   0  0  0  0  0  0  0  0  0  0  0  0
    0.9056    1.0271    1.5706 H   0  0  0  0  0  0  0  0  0  0  0  0
   -1.0564    1.6758    2.1469 C   0  0  0  0  0  0  0  0  0  0  0  0
   -2.0804    1.2909    2.1434 H   0  0  0  0  0  0  0  0  0  0  0  0
   -0.7720    1.8374    3.1915 H   0  0  0  0  0  0  0  0  0  0  0  0
   -1.0117    3.2872    1.2563 S   0  0  0  0  0  0  0  0  0  0  0  0
    0.6669    3.9225    1.6508 C   0  0  0  0  0  0  0  0  0  0  0  0
    1.4345    3.2816    1.2073 H   0  0  0  0  0  0  0  0  0  0  0  0
    0.7879    4.9340    1.2521 H   0  0  0  0  0  0  0  0  0  0  0  0
    0.8162    3.9533    2.7341 H   0  0  0  0  0  0  0  0  0  0  0  0
    0.6547   -0.5026   -0.6511 C   0  0  0  0  0  0  0  0  0  0  0  0
    1.7445   -0.6974   -0.1257 O   0  0  0  0  0  0  0  0  0  0  0  0
    0.5209   -0.7837   -1.9994 N   0  0  0  0  0  0  0  0  0  0  0  0
   -0.4100   -0.6855   -2.3906 H   0  0  0  0  0  0  0  0  0  0  0  0
    1.5272   -1.5154   -2.7596 C   0  0  0  0  0  0  0  0  0  0  0  0
    1.6736   -2.5147   -2.3362 H   0  0  0  0  0  0  0  0  0  0  0  0
    1.2113   -1.6222   -3.8015 H   0  0  0  0  0  0  0  0  0  0  0  0
    2.4838   -0.9825   -2.7437 H   0  0  0  0  0  0  0  0  0  0  0  0
  1  2  1  0  0  0  0
  2  3  1  0  0  0  0
  2  4  1  0  0  0  0
  2  5  1  0  0  0  0
  5  6  2  0  0  0  0
  5  7  1  0  0  0  0
  7  8  1  0  0  0  0
  7  9  1  0  0  0  0
  9 10  1  0  0  0  0
  9 11  1  0  0  0  0
  9 22  1  0  0  0  0
 11 12  1  0  0  0  0
 11 13  1  0  0  0  0
 11 14  1  0  0  0  0
 14 15  1  0  0  0  0
 14 16  1  0  0  0  0
 14 17  1  0  0  0  0
 17 18  1  0  0  0  0
 18 19  1  0  0  0  0
 18 20  1  0  0  0  0
 18 21  1  0  0  0  0
 22 23  2  0  0  0  0
 22 24  1  0  0  0  0
 24 25  1  0  0  0  0
 24 26  1  0  0  0  0
 26 27  1  0  0  0  0
 26 28  1  0  0  0  0
 26 29  1  0  0  0  0
M  END
$$$$

  -OEChem-01062216093D

 29 28  0     1  0  0  0  0  0999 V2000
   -3.6029   -3.0934    0.9905 H   0  0  0  0  0  0  0  0  0  0  0  0
   -3.5323   -2.1097    0.5175 C   0  0  0  0  0  0  0  0  0  0  0  0
   -4.1598   -1.4080    1.0723 H   0  0  0  0  0  0  0  0  0  0  0  0
   -3.8992   -2.1863   -0.5088 H   0  0  0  0  0  0  0  0  0  0  0  0
   -2.0920   -1.6330    0.5190 C   0  0  0  0  0  0  0  0  0  0  0  0
   -1.2241   -2.3579    0.9674 O   0  0  0  0  0  0  0  0  0  0  0  0
   -1.7935   -0.3854    0.0032 N   0  0  0  0  0  0  0  0  0  0  0  0
   -2.5923    0.1772   -0.2741 H   0  0  0  0  0  0  0  0  0  0  0  0
   -0.4780    0.2875    0.0564 C   0  0  1  0  0  0  0  0  0  0  0  0
   -0.5521    1.2251   -0.5002 H   0  0  0  0  0  0  0  0  0  0  0  0
   -0.1117    0.6271    1.5212 C   0  0  0  0  0  0  0  0  0  0  0  0
   -0.1241   -0.2834    2.1287 H   0  0  0  0  0  0  0  0  0  0  0  0
    0.9109    1.0146    1.5559 H   0  0  0  0  0  0  0  0  0  0  0  0
   -1.0470    1.6704    2.1478 C   0  0  0  0  0  0  0  0  0  0  0  0
   -2.0715    1.2866    2.1526 H   0  0  0  0  0  0  0  0  0  0  0  0
   -0.7547    1.8341    3.1898 H   0  0  0  0  0  0  0  0  0  0  0  0
   -1.0062    3.2793    1.2523 S   0  0  0  0  0  0  0  0  0  0  0  0
    0.6760    3.9137    1.6323 C   0  0  0  0  0  0  0  0  0  0  0  0
    1.4398    3.2624    1.1976 H   0  0  0  0  0  0  0  0  0  0  0  0
    0.8000    4.9180    1.2166 H   0  0  0  0  0  0  0  0  0  0  0  0
    0.8281    3.9615    2.7146 H   0  0  0  0  0  0  0  0  0  0  0  0
    0.6480   -0.5130   -0.6501 C   0  0  0  0  0  0  0  0  0  0  0  0
    1.6376   -0.9168   -0.0511 O   0  0  0  0  0  0  0  0  0  0  0  0
    0.6782   -0.5318   -2.0339 N   0  0  0  0  0  0  0  0  0  0  0  0
   -0.1594   -0.2241   -2.5168 H   0  0  0  0  0  0  0  0  0  0  0  0
    1.7280   -1.1951   -2.7986 C   0  0  0  0  0  0  0  0  0  0  0  0
    1.7611   -2.2626   -2.5563 H   0  0  0  0  0  0  0  0  0  0  0  0
    1.5409   -1.0882   -3.8713 H   0  0  0  0  0  0  0  0  0  0  0  0
    2.7042   -0.7527   -2.5734 H   0  0  0  0  0  0  0  0  0  0  0  0
  1  2  1  0  0  0  0
  2  3  1  0  0  0  0
  2  4  1  0  0  0  0
  2  5  1  0  0  0  0
  5  6  2  0  0  0  0
  5  7  1  0  0  0  0
  7  8  1  0  0  0  0
  7  9  1  0  0  0  0
  9 10  1  0  0  0  0
  9 11  1  0  0  0  0
  9 22  1  0  0  0  0
 11 12  1  0  0  0  0
 11 13  1  0  0  0  0
 11 14  1  0  0  0  0
 14 15  1  0  0  0  0
 14 16  1  0  0  0  0
 14 17  1  0  0  0  0
 17 18  1  0  0  0  0
 18 19  1  0  0  0  0
 18 20  1  0  0  0  0
 18 21  1  0  0  0  0
 22 23  2  0  0  0  0
 22 24  1  0  0  0  0
 24 25  1  0  0  0  0
 24 26  1  0  0  0  0
 26 27  1  0  0  0  0
 26 28  1  0  0  0  0
 26 29  1  0  0  0  0
M  END
$$$$

  -OEChem-01062216093D

 29 28  0     1  0  0  0  0  0999 V2000
   -3.6236   -3.1169    0.9522 H   0  0  0  0  0  0  0  0  0  0  0  0
   -3.5410   -2.1368    0.4736 C   0  0  0  0  0  0  0  0  0  0  0  0
   -4.2118   -1.4406    0.9824 H   0  0  0  0  0  0  0  0  0  0  0  0
   -3.8445   -2.2302   -0.5717 H   0  0  0  0  0  0  0  0  0  0  0  0
   -2.1112   -1.6357    0.5550 C   0  0  0  0  0  0  0  0  0  0  0  0
   -1.2669   -2.3361    1.0796 O   0  0  0  0  0  0  0  0  0  0  0  0
   -1.8053   -0.3916    0.0344 N   0  0  0  0  0  0  0  0  0  0  0  0
   -2.5927    0.1402   -0.3237 H   0  0  0  0  0  0  0  0  0  0  0  0
   -0.4890    0.2816    0.0673 C   0  0  1  0  0  0  0  0  0  0  0  0
   -0.5771    1.2192   -0.4868 H   0  0  0  0  0  0  0  0  0  0  0  0
   -0.0963    0.6266    1.5234 C   0  0  0  0  0  0  0  0  0  0  0  0
   -0.1017   -0.2804    2.1357 H   0  0  0  0  0  0  0  0  0  0  0  0
    0.9289    1.0080    1.5372 H   0  0  0  0  0  0  0  0  0  0  0  0
   -1.0198    1.6730    2.1620 C   0  0  0  0  0  0  0  0  0  0  0  0
   -2.0442    1.2896    2.1849 H   0  0  0  0  0  0  0  0  0  0  0  0
   -0.7103    1.8396    3.1986 H   0  0  0  0  0  0  0  0  0  0  0  0
   -0.9943    3.2789    1.2604 S   0  0  0  0  0  0  0  0  0  0  0  0
    0.6947    3.9121    1.6102 C   0  0  0  0  0  0  0  0  0  0  0  0
    1.4506    3.2590    1.1647 H   0  0  0  0  0  0  0  0  0  0  0  0
    0.8120    4.9154    1.1904 H   0  0  0  0  0  0  0  0  0  0  0  0
    0.8647    3.9628    2.6899 H   0  0  0  0  0  0  0  0  0  0  0  0
    0.6359   -0.5123   -0.6482 C   0  0  0  0  0  0  0  0  0  0  0  0
    1.4949   -1.1317   -0.0338 O   0  0  0  0  0  0  0  0  0  0  0  0
    0.8500   -0.2873   -1.9977 N   0  0  0  0  0  0  0  0  0  0  0  0
    0.1404    0.2337   -2.5023 H   0  0  0  0  0  0  0  0  0  0  0  0
    1.9377   -0.9047   -2.7479 C   0  0  0  0  0  0  0  0  0  0  0  0
    1.8598   -1.9963   -2.7054 H   0  0  0  0  0  0  0  0  0  0  0  0
    1.8985   -0.5949   -3.7966 H   0  0  0  0  0  0  0  0  0  0  0  0
    2.9069   -0.6047   -2.3355 H   0  0  0  0  0  0  0  0  0  0  0  0
  1  2  1  0  0  0  0
  2  3  1  0  0  0  0
  2  4  1  0  0  0  0
  2  5  1  0  0  0  0
  5  6  2  0  0  0  0
  5  7  1  0  0  0  0
  7  8  1  0  0  0  0
  7  9  1  0  0  0  0
  9 10  1  0  0  0  0
  9 11  1  0  0  0  0
  9 22  1  0  0  0  0
 11 12  1  0  0  0  0
 11 13  1  0  0  0  0
 11 14  1  0  0  0  0
 14 15  1  0  0  0  0
 14 16  1  0  0  0  0
 14 17  1  0  0  0  0
 17 18  1  0  0  0  0
 18 19  1  0  0  0  0
 18 20  1  0  0  0  0
 18 21  1  0  0  0  0
 22 23  2  0  0  0  0
 22 24  1  0  0  0  0
 24 25  1  0  0  0  0
 24 26  1  0  0  0  0
 26 27  1  0  0  0  0
 26 28  1  0  0  0  0
 26 29  1  0  0  0  0
M  END
$$$$

  -OEChem-01062216093D

 29 28  0     1  0  0  0  0  0999 V2000
   -3.6287   -3.1650    0.8694 H   0  0  0  0  0  0  0  0  0  0  0  0
   -3.5358   -2.1826    0.3976 C   0  0  0  0  0  0  0  0  0  0  0  0
   -4.2745   -1.5094    0.8390 H   0  0  0  0  0  0  0  0  0  0  0  0
   -3.7371   -2.2873   -0.6712 H   0  0  0  0  0  0  0  0  0  0  0  0
   -2.1385   -1.6308    0.6103 C   0  0  0  0  0  0  0  0  0  0  0  0
   -1.3456   -2.2752    1.2692 O   0  0  0  0  0  0  0  0  0  0  0  0
   -1.8265   -0.3902    0.0830 N   0  0  0  0  0  0  0  0  0  0  0  0
   -2.5811    0.0718   -0.4147 H   0  0  0  0  0  0  0  0  0  0  0  0
   -0.5089    0.2829    0.0898 C   0  0  1  0  0  0  0  0  0  0  0  0
   -0.6172    1.2199   -0.4616 H   0  0  0  0  0  0  0  0  0  0  0  0
   -0.0728    0.6327    1.5312 C   0  0  0  0  0  0  0  0  0  0  0  0
   -0.0593   -0.2700    2.1494 H   0  0  0  0  0  0  0  0  0  0  0  0
    0.9527    1.0130    1.5117 H   0  0  0  0  0  0  0  0  0  0  0  0
   -0.9765    1.6827    2.1915 C   0  0  0  0  0  0  0  0  0  0  0  0
   -2.0000    1.2987    2.2436 H   0  0  0  0  0  0  0  0  0  0  0  0
   -0.6393    1.8536    3.2189 H   0  0  0  0  0  0  0  0  0  0  0  0
   -0.9751    3.2844    1.2816 S   0  0  0  0  0  0  0  0  0  0  0  0
    0.7237    3.9184    1.5787 C   0  0  0  0  0  0  0  0  0  0  0  0
    1.4649    3.2684    1.1051 H   0  0  0  0  0  0  0  0  0  0  0  0
    0.8262    4.9242    1.1606 H   0  0  0  0  0  0  0  0  0  0  0  0
    0.9292    3.9636    2.6524 H   0  0  0  0  0  0  0  0  0  0  0  0
    0.6135   -0.5011   -0.6396 C   0  0  0  0  0  0  0  0  0  0  0  0
    1.2910   -1.3551   -0.0856 O   0  0  0  0  0  0  0  0  0  0  0  0
    1.0263   -0.0680   -1.8886 N   0  0  0  0  0  0  0  0  0  0  0  0
    0.4922    0.6725   -2.3315 H   0  0  0  0  0  0  0  0  0  0  0  0
    2.1428   -0.6638   -2.6141 C   0  0  0  0  0  0  0  0  0  0  0  0
    1.9505   -1.7246   -2.8077 H   0  0  0  0  0  0  0  0  0  0  0  0
    2.2853   -0.1570   -3.5733 H   0  0  0  0  0  0  0  0  0  0  0  0
    3.0684   -0.5739   -2.0355 H   0  0  0  0  0  0  0  0  0  0  0  0
  1  2  1  0  0  0  0
  2  3  1  0  0  0  0
  2  4  1  0  0  0  0
  2  5  1  0  0  0  0
  5  6  2  0  0  0  0
  5  7  1  0  0  0  0
  7  8  1  0  0  0  0
  7  9  1  0  0  0  0
  9 10  1  0  0  0  0
  9 11  1  0  0  0  0
  9 22  1  0  0  0  0
 11 12  1  0  0  0  0
 11 13  1  0  0  0  0
 11 14  1  0  0  0  0
 14 15  1  0  0  0  0
 14 16  1  0  0  0  0
 14 17  1  0  0  0  0
 17 18  1  0  0  0  0
 18 19  1  0  0  0  0
 18 20  1  0  0  0  0
 18 21  1  0  0  0  0
 22 23  2  0  0  0  0
 22 24  1  0  0  0  0
 24 25  1  0  0  0  0
 24 26  1  0  0  0  0
 26 27  1  0  0  0  0
 26 28  1  0  0  0  0
 26 29  1  0  0  0  0
M  END
$$$$

  -OEChem-01062216093D

 29 28  0     1  0  0  0  0  0999 V2000
   -3.5591   -3.2378    0.7604 H   0  0  0  0  0  0  0  0  0  0  0  0
   -3.4667   -2.2623    0.2743 C   0  0  0  0  0  0  0  0  0  0  0  0
   -4.3100   -1.6370    0.5767 H   0  0  0  0  0  0  0  0  0  0  0  0
   -3.4958   -2.4071   -0.8082 H   0  0  0  0  0  0  0  0  0  0  0  0
   -2.1605   -1.6019    0.6745 C   0  0  0  0  0  0  0  0  0  0  0  0
   -1.4682   -2.1370    1.5205 O   0  0  0  0  0  0  0  0  0  0  0  0
   -1.8561   -0.3603    0.1422 N   0  0  0  0  0  0  0  0  0  0  0  0
   -2.5367   -0.0160   -0.5269 H   0  0  0  0  0  0  0  0  0  0  0  0
   -0.5325    0.3034    0.1352 C   0  0  1  0  0  0  0  0  0  0  0  0
   -0.6538    1.2389   -0.4159 H   0  0  0  0  0  0  0  0  0  0  0  0
   -0.0524    0.6561    1.5609 C   0  0  0  0  0  0  0  0  0  0  0  0
   -0.0223   -0.2405    2.1859 H   0  0  0  0  0  0  0  0  0  0  0  0
    0.9735    1.0319    1.5092 H   0  0  0  0  0  0  0  0  0  0  0  0
   -0.9310    1.7171    2.2363 C   0  0  0  0  0  0  0  0  0  0  0  0
   -1.9555    1.3396    2.3160 H   0  0  0  0  0  0  0  0  0  0  0  0
   -0.5675    1.8913    3.2539 H   0  0  0  0  0  0  0  0  0  0  0  0
   -0.9432    3.3144    1.3171 S   0  0  0  0  0  0  0  0  0  0  0  0
    0.7655    3.9432    1.5640 C   0  0  0  0  0  0  0  0  0  0  0  0
    1.4927    3.2811    1.0859 H   0  0  0  0  0  0  0  0  0  0  0  0
    0.8637    4.9410    1.1262 H   0  0  0  0  0  0  0  0  0  0  0  0
    0.9949    4.0067    2.6319 H   0  0  0  0  0  0  0  0  0  0  0  0
    0.5824   -0.4773   -0.6076 C   0  0  0  0  0  0  0  0  0  0  0  0
    0.9505   -1.5938   -0.2756 O   0  0  0  0  0  0  0  0  0  0  0  0
    1.2095    0.1163   -1.6903 N   0  0  0  0  0  0  0  0  0  0  0  0
    0.9289    1.0592   -1.9404 H   0  0  0  0  0  0  0  0  0  0  0  0
    2.2925   -0.5173   -2.4340 C   0  0  0  0  0  0  0  0  0  0  0  0
    1.9628   -1.4752   -2.8506 H   0  0  0  0  0  0  0  0  0  0  0  0
    2.6124    0.1256   -3.2596 H   0  0  0  0  0  0  0  0  0  0  0  0
    3.1528   -0.6950   -1.7799 H   0  0  0  0  0  0  0  0  0  0  0  0
  1  2  1  0  0  0  0
  2  3  1  0  0  0  0
  2  4  1  0  0  0  0
  2  5  1  0  0  0  0
  5  6  2  0  0  0  0
  5  7  1  0  0  0  0
  7  8  1  0  0  0  0
  7  9  1  0  0  0  0
  9 10  1  0  0  0  0
  9 11  1  0  0  0  0
  9 22  1  0  0  0  0
 11 12  1  0  0  0  0
 11 13  1  0  0  0  0
 11 14  1  0  0  0  0
 14 15  1  0  0  0  0
 14 16  1  0  0  0  0
 14 17  1  0  0  0  0
 17 18  1  0  0  0  0
 18 19  1  0  0  0  0
 18 20  1  0  0  0  0
 18 21  1  0  0  0  0
 22 23  2  0  0  0  0
 22 24  1  0  0  0  0
 24 25  1  0  0  0  0
 24 26  1  0  0  0  0
 26 27  1  0  0  0  0
 26 28  1  0  0  0  0
 26 29  1  0  0  0  0
M  END
$$$$

  -OEChem-01062216093D

 29 28  0     1  0  0  0  0  0999 V2000
   -3.4837   -3.2798    0.7161 H   0  0  0  0  0  0  0  0  0  0  0  0
   -3.4003   -2.3086    0.2199 C   0  0  0  0  0  0  0  0  0  0  0  0
   -4.2919   -1.7191    0.4458 H   0  0  0  0  0  0  0  0  0  0  0  0
   -3.3396   -2.4714   -0.8589 H   0  0  0  0  0  0  0  0  0  0  0  0
   -2.1596   -1.5815    0.7030 C   0  0  0  0  0  0  0  0  0  0  0  0
   -1.5148   -2.0612    1.6194 O   0  0  0  0  0  0  0  0  0  0  0  0
   -1.8648   -0.3387    0.1668 N   0  0  0  0  0  0  0  0  0  0  0  0
   -2.4929   -0.0579   -0.5790 H   0  0  0  0  0  0  0  0  0  0  0  0
   -0.5348    0.3130    0.1717 C   0  0  1  0  0  0  0  0  0  0  0  0
   -0.6489    1.2429   -0.3903 H   0  0  0  0  0  0  0  0  0  0  0  0
   -0.0573    0.6775    1.5958 C   0  0  0  0  0  0  0  0  0  0  0  0
   -0.0341   -0.2097    2.2335 H   0  0  0  0  0  0  0  0  0  0  0  0
    0.9710    1.0462    1.5442 H   0  0  0  0  0  0  0  0  0  0  0  0
   -0.9298    1.7549    2.2532 C   0  0  0  0  0  0  0  0  0  0  0  0
   -1.9582    1.3869    2.3291 H   0  0  0  0  0  0  0  0  0  0  0  0
   -0.5724    1.9372    3.2713 H   0  0  0  0  0  0  0  0  0  0  0  0
   -0.9232    3.3418    1.3158 S   0  0  0  0  0  0  0  0  0  0  0  0
    0.7888    3.9607    1.5636 C   0  0  0  0  0  0  0  0  0  0  0  0
    1.5135    3.2881    1.0970 H   0  0  0  0  0  0  0  0  0  0  0  0
    0.8960    4.9525    1.1144 H   0  0  0  0  0  0  0  0  0  0  0  0
    1.0132    4.0350    2.6319 H   0  0  0  0  0  0  0  0  0  0  0  0
    0.5817   -0.4746   -0.5625 C   0  0  0  0  0  0  0  0  0  0  0  0
    0.6427   -1.6957   -0.5648 O   0  0  0  0  0  0  0  0  0  0  0  0
    1.4308    0.2114   -1.4148 N   0  0  0  0  0  0  0  0  0  0  0  0
    1.3619    1.2242   -1.4353 H   0  0  0  0  0  0  0  0  0  0  0  0
    2.4532   -0.4420   -2.2246 C   0  0  0  0  0  0  0  0  0  0  0  0
    1.9962   -1.1618   -2.9122 H   0  0  0  0  0  0  0  0  0  0  0  0
    3.0002    0.2991   -2.8150 H   0  0  0  0  0  0  0  0  0  0  0  0
    3.1676   -0.9712   -1.5851 H   0  0  0  0  0  0  0  0  0  0  0  0
  1  2  1  0  0  0  0
  2  3  1  0  0  0  0
  2  4  1  0  0  0  0
  2  5  1  0  0  0  0
  5  6  2  0  0  0  0
  5  7  1  0  0  0  0
  7  8  1  0  0  0  0
  7  9  1  0  0  0  0
  9 10  1  0  0  0  0
  9 11  1  0  0  0  0
  9 22  1  0  0  0  0
 11 12  1  0  0  0  0
 11 13  1  0  0  0  0
 11 14  1  0  0  0  0
 14 15  1  0  0  0  0
 14 16  1  0  0  0  0
 14 17  1  0  0  0  0
 17 18  1  0  0  0  0
 18 19  1  0  0  0  0
 18 20  1  0  0  0  0
 18 21  1  0  0  0  0
 22 23  2  0  0  0  0
 22 24  1  0  0  0  0
 24 25  1  0  0  0  0
 24 26  1  0  0  0  0
 26 27  1  0  0  0  0
 26 28  1  0  0  0  0
 26 29  1  0  0  0  0
M  END
$$$$

  -OEChem-01062216093D

 29 28  0     1  0  0  0  0  0999 V2000
   -3.4932   -3.2669    0.7507 H   0  0  0  0  0  0  0  0  0  0  0  0
   -3.3962   -2.3094    0.2312 C   0  0  0  0  0  0  0  0  0  0  0  0
   -4.2831   -1.7054    0.4355 H   0  0  0  0  0  0  0  0  0  0  0  0
   -3.3282   -2.4988   -0.8428 H   0  0  0  0  0  0  0  0  0  0  0  0
   -2.1517   -1.5828    0.7047 C   0  0  0  0  0  0  0  0  0  0  0  0
   -1.4831   -2.0734    1.5993 O   0  0  0  0  0  0  0  0  0  0  0  0
   -1.8601   -0.3397    0.1680 N   0  0  0  0  0  0  0  0  0  0  0  0
   -2.4759   -0.0684   -0.5916 H   0  0  0  0  0  0  0  0  0  0  0  0
   -0.5275    0.3048    0.1840 C   0  0  1  0  0  0  0  0  0  0  0  0
   -0.6300    1.2303   -0.3876 H   0  0  0  0  0  0  0  0  0  0  0  0
   -0.0690    0.6803    1.6130 C   0  0  0  0  0  0  0  0  0  0  0  0
   -0.0619   -0.1998    2.2605 H   0  0  0  0  0  0  0  0  0  0  0  0
    0.9619    1.0430    1.5758 H   0  0  0  0  0  0  0  0  0  0  0  0
   -0.9458    1.7685    2.2467 C   0  0  0  0  0  0  0  0  0  0  0  0
   -1.9774    1.4072    2.3082 H   0  0  0  0  0  0  0  0  0  0  0  0
   -0.6050    1.9585    3.2693 H   0  0  0  0  0  0  0  0  0  0  0  0
   -0.9148    3.3456    1.2939 S   0  0  0  0  0  0  0  0  0  0  0  0
    0.7967    3.9571    1.5628 C   0  0  0  0  0  0  0  0  0  0  0  0
    1.5247    3.2786    1.1103 H   0  0  0  0  0  0  0  0  0  0  0  0
    0.9154    4.9462    1.1103 H   0  0  0  0  0  0  0  0  0  0  0  0
    1.0057    4.0359    2.6339 H   0  0  0  0  0  0  0  0  0  0  0  0
    0.5898   -0.4895   -0.5418 C   0  0  0  0  0  0  0  0  0  0  0  0
    0.4692   -1.6700   -0.8422 O   0  0  0  0  0  0  0  0  0  0  0  0
    1.6295    0.2139   -1.1267 N   0  0  0  0  0  0  0  0  0  0  0  0
    1.6863    1.2104   -0.9413 H   0  0  0  0  0  0  0  0  0  0  0  0
    2.6494   -0.4076   -1.9642 C   0  0  0  0  0  0  0  0  0  0  0  0
    2.1950   -0.8515   -2.8564 H   0  0  0  0  0  0  0  0  0  0  0  0
    3.3827    0.3386   -2.2849 H   0  0  0  0  0  0  0  0  0  0  0  0
    3.1748   -1.1921   -1.4091 H   0  0  0  0  0  0  0  0  0  0  0  0
  1  2  1  0  0  0  0
  2  3  1  0  0  0  0
  2  4  1  0  0  0  0
  2  5  1  0  0  0  0
  5  6  2  0  0  0  0
  5  7  1  0  0  0  0
  7  8  1  0  0  0  0
  7  9  1  0  0  0  0
  9 10  1  0  0  0  0
  9 11  1  0  0  0  0
  9 22  1  0  0  0  0
 11 12  1  0  0  0  0
 11 13  1  0  0  0  0
 11 14  1  0  0  0  0
 14 15  1  0  0  0  0
 14 16  1  0  0  0  0
 14 17  1  0  0  0  0
 17 18  1  0  0  0  0
 18 19  1  0  0  0  0
 18 20  1  0  0  0  0
 18 21  1  0  0  0  0
 22 23  2  0  0  0  0
 22 24  1  0  0  0  0
 24 25  1  0  0  0  0
 24 26  1  0  0  0  0
 26 27  1  0  0  0  0
 26 28  1  0  0  0  0
 26 29  1  0  0  0  0
M  END
$$$$

  -OEChem-01062216093D

 29 28  0     1  0  0  0  0  0999 V2000
   -3.4768   -3.2636    0.7554 H   0  0  0  0  0  0  0  0  0  0  0  0
   -3.3947   -2.2993    0.2463 C   0  0  0  0  0  0  0  0  0  0  0  0
   -4.2752   -1.6982    0.4842 H   0  0  0  0  0  0  0  0  0  0  0  0
   -3.3584   -2.4748   -0.8316 H   0  0  0  0  0  0  0  0  0  0  0  0
   -2.1368   -1.5791    0.6932 C   0  0  0  0  0  0  0  0  0  0  0  0
   -1.4316   -2.0894    1.5482 O   0  0  0  0  0  0  0  0  0  0  0  0
   -1.8534   -0.3330    0.1597 N   0  0  0  0  0  0  0  0  0  0  0  0
   -2.4707   -0.0591   -0.5979 H   0  0  0  0  0  0  0  0  0  0  0  0
   -0.5221    0.3132    0.1815 C   0  0  1  0  0  0  0  0  0  0  0  0
   -0.6144    1.2392   -0.3916 H   0  0  0  0  0  0  0  0  0  0  0  0
   -0.0765    0.6866    1.6172 C   0  0  0  0  0  0  0  0  0  0  0  0
   -0.0740   -0.1941    2.2634 H   0  0  0  0  0  0  0  0  0  0  0  0
    0.9529    1.0531    1.5942 H   0  0  0  0  0  0  0  0  0  0  0  0
   -0.9612    1.7714    2.2462 C   0  0  0  0  0  0  0  0  0  0  0  0
   -1.9926    1.4078    2.2997 H   0  0  0  0  0  0  0  0  0  0  0  0
   -0.6284    1.9600    3.2717 H   0  0  0  0  0  0  0  0  0  0  0  0
   -0.9269    3.3520    1.2995 S   0  0  0  0  0  0  0  0  0  0  0  0
    0.7803    3.9677    1.5845 C   0  0  0  0  0  0  0  0  0  0  0  0
    1.5143    3.2912    1.1387 H   0  0  0  0  0  0  0  0  0  0  0  0
    0.9004    4.9571    1.1329 H   0  0  0  0  0  0  0  0  0  0  0  0
    0.9789    4.0473    2.6576 H   0  0  0  0  0  0  0  0  0  0  0  0
    0.5851   -0.4927   -0.5483 C   0  0  0  0  0  0  0  0  0  0  0  0
    0.3530   -1.5676   -1.0888 O   0  0  0  0  0  0  0  0  0  0  0  0
    1.7776    0.1362   -0.8646 N   0  0  0  0  0  0  0  0  0  0  0  0
    1.9352    1.0632   -0.4827 H   0  0  0  0  0  0  0  0  0  0  0  0
    2.8215   -0.4805   -1.6756 C   0  0  0  0  0  0  0  0  0  0  0  0
    2.4489   -0.6939   -2.6830 H   0  0  0  0  0  0  0  0  0  0  0  0
    3.6815    0.1906   -1.7602 H   0  0  0  0  0  0  0  0  0  0  0  0
    3.1580   -1.4175   -1.2189 H   0  0  0  0  0  0  0  0  0  0  0  0
  1  2  1  0  0  0  0
  2  3  1  0  0  0  0
  2  4  1  0  0  0  0
  2  5  1  0  0  0  0
  5  6  2  0  0  0  0
  5  7  1  0  0  0  0
  7  8  1  0  0  0  0
  7  9  1  0  0  0  0
  9 10  1  0  0  0  0
  9 11  1  0  0  0  0
  9 22  1  0  0  0  0
 11 12  1  0  0  0  0
 11 13  1  0  0  0  0
 11 14  1  0  0  0  0
 14 15  1  0  0  0  0
 14 16  1  0  0  0  0
 14 17  1  0  0  0  0
 17 18  1  0  0  0  0
 18 19  1  0  0  0  0
 18 20  1  0  0  0  0
 18 21  1  0  0  0  0
 22 23  2  0  0  0  0
 22 24  1  0  0  0  0
 24 25  1  0  0  0  0
 24 26  1  0  0  0  0
 26 27  1  0  0  0  0
 26 28  1  0  0  0  0
 26 29  1  0  0  0  0
M  END
$$$$

  -OEChem-01062216093D

 29 28  0     1  0  0  0  0  0999 V2000
   -3.5484   -3.2458    0.6568 H   0  0  0  0  0  0  0  0  0  0  0  0
   -3.4488   -2.2484    0.2194 C   0  0  0  0  0  0  0  0  0  0  0  0
   -4.2701   -1.6230    0.5770 H   0  0  0  0  0  0  0  0  0  0  0  0
   -3.5099   -2.3348   -0.8684 H   0  0  0  0  0  0  0  0  0  0  0  0
   -2.1190   -1.6341    0.6141 C   0  0  0  0  0  0  0  0  0  0  0  0
   -1.3652   -2.2700    1.3314 O   0  0  0  0  0  0  0  0  0  0  0  0
   -1.8081   -0.3706    0.1437 N   0  0  0  0  0  0  0  0  0  0  0  0
   -2.4495   -0.0247   -0.5635 H   0  0  0  0  0  0  0  0  0  0  0  0
   -0.4850    0.2924    0.1969 C   0  0  1  0  0  0  0  0  0  0  0  0
   -0.6422    1.3255   -0.1232 H   0  0  0  0  0  0  0  0  0  0  0  0
    0.1411    0.3449    1.6161 C   0  0  0  0  0  0  0  0  0  0  0  0
    0.2529   -0.6554    2.0385 H   0  0  0  0  0  0  0  0  0  0  0  0
    1.1500    0.7586    1.5523 H   0  0  0  0  0  0  0  0  0  0  0  0
   -0.6641    1.2261    2.5809 C   0  0  0  0  0  0  0  0  0  0  0  0
   -1.6773    0.8217    2.6745 H   0  0  0  0  0  0  0  0  0  0  0  0
   -0.2050    1.1884    3.5738 H   0  0  0  0  0  0  0  0  0  0  0  0
   -0.7656    2.9813    2.0288 S   0  0  0  0  0  0  0  0  0  0  0  0
    0.9558    3.5895    2.2321 C   0  0  0  0  0  0  0  0  0  0  0  0
    1.6324    3.0685    1.5494 H   0  0  0  0  0  0  0  0  0  0  0  0
    1.0005    4.6609    2.0144 H   0  0  0  0  0  0  0  0  0  0  0  0
    1.2959    3.4279    3.2593 H   0  0  0  0  0  0  0  0  0  0  0  0
    0.4949   -0.2919   -0.8539 C   0  0  0  0  0  0  0  0  0  0  0  0
    0.0979   -1.0547   -1.7278 O   0  0  0  0  0  0  0  0  0  0  0  0
    1.7858    0.1978   -0.9596 N   0  0  0  0  0  0  0  0  0  0  0  0
    2.1019    0.8450   -0.2449 H   0  0  0  0  0  0  0  0  0  0  0  0
    2.7346   -0.2541   -1.9711 C   0  0  0  0  0  0  0  0  0  0  0  0
    2.3452   -0.0612   -2.9764 H   0  0  0  0  0  0  0  0  0  0  0  0
    3.6856    0.2763   -1.8626 H   0  0  0  0  0  0  0  0  0  0  0  0
    2.9228   -1.3279   -1.8663 H   0  0  0  0  0  0  0  0  0  0  0  0
  1  2  1  0  0  0  0
  2  3  1  0  0  0  0
  2  4  1  0  0  0  0
  2  5  1  0  0  0  0
  5  6  2  0  0  0  0
  5  7  1  0  0  0  0
  7  8  1  0  0  0  0
  7  9  1  0  0  0  0
  9 10  1  0  0  0  0
  9 11  1  0  0  0  0
  9 22  1  0  0  0  0
 11 12  1  0  0  0  0
 11 13  1  0  0  0  0
 11 14  1  0  0  0  0
 14 15  1  0  0  0  0
 14 16  1  0  0  0  0
 14 17  1  0  0  0  0
 17 18  1  0  0  0  0
 18 19  1  0  0  0  0
 18 20  1  0  0  0  0
 18 21  1  0  0  0  0
 22 23  2  0  0  0  0
 22 24  1  0  0  0  0
 24 25  1  0  0  0  0
 24 26  1  0  0  0  0
 26 27  1  0  0  0  0
 26 28  1  0  0  0  0
 26 29  1  0  0  0  0
M  END
$$$$

  -OEChem-01062216093D

 29 28  0     1  0  0  0  0  0999 V2000
   -3.5216   -3.2474    0.6446 H   0  0  0  0  0  0  0  0  0  0  0  0
   -3.4324   -2.2423    0.2229 C   0  0  0  0  0  0  0  0  0  0  0  0
   -4.2478   -1.6251    0.6074 H   0  0  0  0  0  0  0  0  0  0  0  0
   -3.5147   -2.3101   -0.8648 H   0  0  0  0  0  0  0  0  0  0  0  0
   -2.0962   -1.6319    0.6018 C   0  0  0  0  0  0  0  0  0  0  0  0
   -1.3216   -2.2808    1.2847 O   0  0  0  0  0  0  0  0  0  0  0  0
   -1.7906   -0.3643    0.1407 N   0  0  0  0  0  0  0  0  0  0  0  0
   -2.4349   -0.0093   -0.5597 H   0  0  0  0  0  0  0  0  0  0  0  0
   -0.4717    0.3045    0.2053 C   0  0  1  0  0  0  0  0  0  0  0  0
   -0.6257    1.3376   -0.1164 H   0  0  0  0  0  0  0  0  0  0  0  0
    0.1339    0.3602    1.6341 C   0  0  0  0  0  0  0  0  0  0  0  0
    0.2444   -0.6394    2.0587 H   0  0  0  0  0  0  0  0  0  0  0  0
    1.1398    0.7827    1.5868 H   0  0  0  0  0  0  0  0  0  0  0  0
   -0.6885    1.2390    2.5865 C   0  0  0  0  0  0  0  0  0  0  0  0
   -1.7014    0.8308    2.6652 H   0  0  0  0  0  0  0  0  0  0  0  0
   -0.2442    1.2045    3.5861 H   0  0  0  0  0  0  0  0  0  0  0  0
   -0.7879    2.9930    2.0311 S   0  0  0  0  0  0  0  0  0  0  0  0
    0.9297    3.6040    2.2600 C   0  0  0  0  0  0  0  0  0  0  0  0
    1.6157    3.0854    1.5850 H   0  0  0  0  0  0  0  0  0  0  0  0
    0.9763    4.6758    2.0450 H   0  0  0  0  0  0  0  0  0  0  0  0
    1.2566    3.4405    3.2913 H   0  0  0  0  0  0  0  0  0  0  0  0
    0.5034   -0.2812   -0.8498 C   0  0  0  0  0  0  0  0  0  0  0  0
    0.0633   -0.8293   -1.8546 O   0  0  0  0  0  0  0  0  0  0  0  0
    1.8660   -0.0431   -0.7839 N   0  0  0  0  0  0  0  0  0  0  0  0
    2.2242    0.3831    0.0642 H   0  0  0  0  0  0  0  0  0  0  0  0
    2.8141   -0.5384   -1.7751 C   0  0  0  0  0  0  0  0  0  0  0  0
    2.5620   -0.1583   -2.7708 H   0  0  0  0  0  0  0  0  0  0  0  0
    3.8272   -0.2076   -1.5276 H   0  0  0  0  0  0  0  0  0  0  0  0
    2.8032   -1.6332   -1.8023 H   0  0  0  0  0  0  0  0  0  0  0  0
  1  2  1  0  0  0  0
  2  3  1  0  0  0  0
  2  4  1  0  0  0  0
  2  5  1  0  0  0  0
  5  6  2  0  0  0  0
  5  7  1  0  0  0  0
  7  8  1  0  0  0  0
  7  9  1  0  0  0  0
  9 10  1  0  0  0  0
  9 11  1  0  0  0  0
  9 22  1  0  0  0  0
 11 12  1  0  0  0  0
 11 13  1  0  0  0  0
 11 14  1  0  0  0  0
 14 15  1  0  0  0  0
 14 16  1  0  0  0  0
 14 17  1  0  0  0  0
 17 18  1  0  0  0  0
 18 19  1  0  0  0  0
 18 20  1  0  0  0  0
 18 21  1  0  0  0  0
 22 23  2  0  0  0  0
 22 24  1  0  0  0  0
 24 25  1  0  0  0  0
 24 26  1  0  0  0  0
 26 27  1  0  0  0  0
 26 28  1  0  0  0  0
 26 29  1  0  0  0  0
M  END
$$$$

  -OEChem-01062216093D

 29 28  0     1  0  0  0  0  0999 V2000
   -3.5007   -3.2469    0.6379 H   0  0  0  0  0  0  0  0  0  0  0  0
   -3.4170   -2.2389    0.2220 C   0  0  0  0  0  0  0  0  0  0  0  0
   -4.2255   -1.6238    0.6240 H   0  0  0  0  0  0  0  0  0  0  0  0
   -3.5171   -2.2978   -0.8646 H   0  0  0  0  0  0  0  0  0  0  0  0
   -2.0742   -1.6327    0.5838 C   0  0  0  0  0  0  0  0  0  0  0  0
   -1.2789   -2.2927    1.2316 O   0  0  0  0  0  0  0  0  0  0  0  0
   -1.7736   -0.3605    0.1343 N   0  0  0  0  0  0  0  0  0  0  0  0
   -2.4267    0.0127   -0.5488 H   0  0  0  0  0  0  0  0  0  0  0  0
   -0.4595    0.3131    0.2151 C   0  0  1  0  0  0  0  0  0  0  0  0
   -0.6121    1.3464   -0.1072 H   0  0  0  0  0  0  0  0  0  0  0  0
    0.1316    0.3737    1.6496 C   0  0  0  0  0  0  0  0  0  0  0  0
    0.2409   -0.6250    2.0768 H   0  0  0  0  0  0  0  0  0  0  0  0
    1.1345    0.8046    1.6087 H   0  0  0  0  0  0  0  0  0  0  0  0
   -0.7031    1.2497    2.5937 C   0  0  0  0  0  0  0  0  0  0  0  0
   -1.7150    0.8377    2.6644 H   0  0  0  0  0  0  0  0  0  0  0  0
   -0.2672    1.2189    3.5972 H   0  0  0  0  0  0  0  0  0  0  0  0
   -0.8053    3.0025    2.0350 S   0  0  0  0  0  0  0  0  0  0  0  0
    0.9063    3.6251    2.2763 C   0  0  0  0  0  0  0  0  0  0  0  0
    1.6019    3.1069    1.6104 H   0  0  0  0  0  0  0  0  0  0  0  0
    0.9480    4.6957    2.0548 H   0  0  0  0  0  0  0  0  0  0  0  0
    1.2241    3.4696    3.3115 H   0  0  0  0  0  0  0  0  0  0  0  0
    0.5148   -0.2707   -0.8403 C   0  0  0  0  0  0  0  0  0  0  0  0
    0.0844   -0.5931   -1.9423 O   0  0  0  0  0  0  0  0  0  0  0  0
    1.8833   -0.3115   -0.6330 N   0  0  0  0  0  0  0  0  0  0  0  0
    2.2100   -0.1412    0.3125 H   0  0  0  0  0  0  0  0  0  0  0  0
    2.8195   -0.8627   -1.6056 C   0  0  0  0  0  0  0  0  0  0  0  0
    2.7437   -0.3274   -2.5582 H   0  0  0  0  0  0  0  0  0  0  0  0
    3.8460   -0.7669   -1.2391 H   0  0  0  0  0  0  0  0  0  0  0  0
    2.6097   -1.9233   -1.7795 H   0  0  0  0  0  0  0  0  0  0  0  0
  1  2  1  0  0  0  0
  2  3  1  0  0  0  0
  2  4  1  0  0  0  0
  2  5  1  0  0  0  0
  5  6  2  0  0  0  0
  5  7  1  0  0  0  0
  7  8  1  0  0  0  0
  7  9  1  0  0  0  0
  9 10  1  0  0  0  0
  9 11  1  0  0  0  0
  9 22  1  0  0  0  0
 11 12  1  0  0  0  0
 11 13  1  0  0  0  0
 11 14  1  0  0  0  0
 14 15  1  0  0  0  0
 14 16  1  0  0  0  0
 14 17  1  0  0  0  0
 17 18  1  0  0  0  0
 18 19  1  0  0  0  0
 18 20  1  0  0  0  0
 18 21  1  0  0  0  0
 22 23  2  0  0  0  0
 22 24  1  0  0  0  0
 24 25  1  0  0  0  0
 24 26  1  0  0  0  0
 26 27  1  0  0  0  0
 26 28  1  0  0  0  0
 26 29  1  0  0  0  0
M  END
$$$$

  -OEChem-01062216093D

 29 28  0     1  0  0  0  0  0999 V2000
   -3.4983   -3.2321    0.6620 H   0  0  0  0  0  0  0  0  0  0  0  0
   -3.4152   -2.2257    0.2419 C   0  0  0  0  0  0  0  0  0  0  0  0
   -4.2030   -1.6001    0.6685 H   0  0  0  0  0  0  0  0  0  0  0  0
   -3.5512   -2.2849   -0.8409 H   0  0  0  0  0  0  0  0  0  0  0  0
   -2.0545   -1.6353    0.5605 C   0  0  0  0  0  0  0  0  0  0  0  0
   -1.2370   -2.3091    1.1657 O   0  0  0  0  0  0  0  0  0  0  0  0
   -1.7553   -0.3618    0.1157 N   0  0  0  0  0  0  0  0  0  0  0  0
   -2.4285    0.0413   -0.5301 H   0  0  0  0  0  0  0  0  0  0  0  0
   -0.4460    0.3157    0.2116 C   0  0  1  0  0  0  0  0  0  0  0  0
   -0.5972    1.3487   -0.1126 H   0  0  0  0  0  0  0  0  0  0  0  0
    0.1308    0.3790    1.6508 C   0  0  0  0  0  0  0  0  0  0  0  0
    0.2352   -0.6197    2.0799 H   0  0  0  0  0  0  0  0  0  0  0  0
    1.1347    0.8102    1.6144 H   0  0  0  0  0  0  0  0  0  0  0  0
   -0.7155    1.2522    2.5875 C   0  0  0  0  0  0  0  0  0  0  0  0
   -1.7263    0.8361    2.6498 H   0  0  0  0  0  0  0  0  0  0  0  0
   -0.2877    1.2233    3.5945 H   0  0  0  0  0  0  0  0  0  0  0  0
   -0.8197    3.0046    2.0288 S   0  0  0  0  0  0  0  0  0  0  0  0
    0.8872    3.6331    2.2854 C   0  0  0  0  0  0  0  0  0  0  0  0
    1.5908    3.1164    1.6267 H   0  0  0  0  0  0  0  0  0  0  0  0
    0.9274    4.7034    2.0625 H   0  0  0  0  0  0  0  0  0  0  0  0
    1.1958    3.4802    3.3238 H   0  0  0  0  0  0  0  0  0  0  0  0
    0.5358   -0.2665   -0.8344 C   0  0  0  0  0  0  0  0  0  0  0  0
    0.1706   -0.3704   -1.9998 O   0  0  0  0  0  0  0  0  0  0  0  0
    1.8435   -0.5896   -0.5156 N   0  0  0  0  0  0  0  0  0  0  0  0
    2.0650   -0.6505    0.4733 H   0  0  0  0  0  0  0  0  0  0  0  0
    2.7635   -1.1944   -1.4713 C   0  0  0  0  0  0  0  0  0  0  0  0
    2.8845   -0.5500   -2.3486 H   0  0  0  0  0  0  0  0  0  0  0  0
    3.7465   -1.3367   -1.0122 H   0  0  0  0  0  0  0  0  0  0  0  0
    2.3882   -2.1696   -1.7992 H   0  0  0  0  0  0  0  0  0  0  0  0
  1  2  1  0  0  0  0
  2  3  1  0  0  0  0
  2  4  1  0  0  0  0
  2  5  1  0  0  0  0
  5  6  2  0  0  0  0
  5  7  1  0  0  0  0
  7  8  1  0  0  0  0
  7  9  1  0  0  0  0
  9 10  1  0  0  0  0
  9 11  1  0  0  0  0
  9 22  1  0  0  0  0
 11 12  1  0  0  0  0
 11 13  1  0  0  0  0
 11 14  1  0  0  0  0
 14 15  1  0  0  0  0
 14 16  1  0  0  0  0
 14 17  1  0  0  0  0
 17 18  1  0  0  0  0
 18 19  1  0  0  0  0
 18 20  1  0  0  0  0
 18 21  1  0  0  0  0
 22 23  2  0  0  0  0
 22 24  1  0  0  0  0
 24 25  1  0  0  0  0
 24 26  1  0  0  0  0
 26 27  1  0  0  0  0
 26 28  1  0  0  0  0
 26 29  1  0  0  0  0
M  END
$$$$

  -OEChem-01062216093D

 29 28  0     1  0  0  0  0  0999 V2000
   -3.5003   -3.2145    0.6962 H   0  0  0  0  0  0  0  0  0  0  0  0
   -3.4202   -2.2106    0.2701 C   0  0  0  0  0  0  0  0  0  0  0  0
   -4.1847   -1.5746    0.7226 H   0  0  0  0  0  0  0  0  0  0  0  0
   -3.5946   -2.2708   -0.8069 H   0  0  0  0  0  0  0  0  0  0  0  0
   -2.0420   -1.6368    0.5391 C   0  0  0  0  0  0  0  0  0  0  0  0
   -1.2058   -2.3233    1.1040 O   0  0  0  0  0  0  0  0  0  0  0  0
   -1.7419   -0.3645    0.0922 N   0  0  0  0  0  0  0  0  0  0  0  0
   -2.4399    0.0733   -0.5029 H   0  0  0  0  0  0  0  0  0  0  0  0
   -0.4353    0.3142    0.2007 C   0  0  1  0  0  0  0  0  0  0  0  0
   -0.5836    1.3472   -0.1262 H   0  0  0  0  0  0  0  0  0  0  0  0
    0.1292    0.3780    1.6438 C   0  0  0  0  0  0  0  0  0  0  0  0
    0.2264   -0.6203    2.0758 H   0  0  0  0  0  0  0  0  0  0  0  0
    1.1360    0.8041    1.6105 H   0  0  0  0  0  0  0  0  0  0  0  0
   -0.7247    1.2500    2.5748 C   0  0  0  0  0  0  0  0  0  0  0  0
   -1.7358    0.8338    2.6284 H   0  0  0  0  0  0  0  0  0  0  0  0
   -0.3042    1.2202    3.5849 H   0  0  0  0  0  0  0  0  0  0  0  0
   -0.8272    3.0028    2.0179 S   0  0  0  0  0  0  0  0  0  0  0  0
    0.8777    3.6314    2.2886 C   0  0  0  0  0  0  0  0  0  0  0  0
    1.5867    3.1124    1.6376 H   0  0  0  0  0  0  0  0  0  0  0  0
    0.9210    4.7014    2.0640 H   0  0  0  0  0  0  0  0  0  0  0  0
    1.1773    3.4805    3.3299 H   0  0  0  0  0  0  0  0  0  0  0  0
    0.5573   -0.2711   -0.8303 C   0  0  0  0  0  0  0  0  0  0  0  0
    0.3075   -0.1613   -2.0247 O   0  0  0  0  0  0  0  0  0  0  0  0
    1.7427   -0.8703   -0.4421 N   0  0  0  0  0  0  0  0  0  0  0  0
    1.8069   -1.1312    0.5380 H   0  0  0  0  0  0  0  0  0  0  0  0
    2.6459   -1.5136   -1.3884 C   0  0  0  0  0  0  0  0  0  0  0  0
    2.9729   -0.8006   -2.1527 H   0  0  0  0  0  0  0  0  0  0  0  0
    3.5325   -1.8895   -0.8690 H   0  0  0  0  0  0  0  0  0  0  0  0
    2.1479   -2.3550   -1.8814 H   0  0  0  0  0  0  0  0  0  0  0  0
  1  2  1  0  0  0  0
  2  3  1  0  0  0  0
  2  4  1  0  0  0  0
  2  5  1  0  0  0  0
  5  6  2  0  0  0  0
  5  7  1  0  0  0  0
  7  8  1  0  0  0  0
  7  9  1  0  0  0  0
  9 10  1  0  0  0  0
  9 11  1  0  0  0  0
  9 22  1  0  0  0  0
 11 12  1  0  0  0  0
 11 13  1  0  0  0  0
 11 14  1  0  0  0  0
 14 15  1  0  0  0  0
 14 16  1  0  0  0  0
 14 17  1  0  0  0  0
 17 18  1  0  0  0  0
 18 19  1  0  0  0  0
 18 20  1  0  0  0  0
 18 21  1  0  0  0  0
 22 23  2  0  0  0  0
 22 24  1  0  0  0  0
 24 25  1  0  0  0  0
 24 26  1  0  0  0  0
 26 27  1  0  0  0  0
 26 28  1  0  0  0  0
 26 29  1  0  0  0  0
M  END
$$$$

  -OEChem-01062216093D

 29 28  0     1  0  0  0  0  0999 V2000
   -3.5069   -3.1959    0.7390 H   0  0  0  0  0  0  0  0  0  0  0  0
   -3.4301   -2.1944    0.3064 C   0  0  0  0  0  0  0  0  0  0  0  0
   -4.1655   -1.5458    0.7884 H   0  0  0  0  0  0  0  0  0  0  0  0
   -3.6521   -2.2548   -0.7619 H   0  0  0  0  0  0  0  0  0  0  0  0
   -2.0332   -1.6407    0.5148 C   0  0  0  0  0  0  0  0  0  0  0  0
   -1.1758   -2.3421    1.0287 O   0  0  0  0  0  0  0  0  0  0  0  0
   -1.7327   -0.3699    0.0641 N   0  0  0  0  0  0  0  0  0  0  0  0
   -2.4596    0.1072   -0.4621 H   0  0  0  0  0  0  0  0  0  0  0  0
   -0.4281    0.3086    0.1855 C   0  0  1  0  0  0  0  0  0  0  0  0
   -0.5729    1.3418   -0.1433 H   0  0  0  0  0  0  0  0  0  0  0  0
    0.1270    0.3721    1.6312 C   0  0  0  0  0  0  0  0  0  0  0  0
    0.2169   -0.6264    2.0639 H   0  0  0  0  0  0  0  0  0  0  0  0
    1.1368    0.7919    1.6011 H   0  0  0  0  0  0  0  0  0  0  0  0
   -0.7314    1.2430    2.5590 C   0  0  0  0  0  0  0  0  0  0  0  0
   -1.7426    0.8270    2.6097 H   0  0  0  0  0  0  0  0  0  0  0  0
   -0.3136    1.2135    3.5702 H   0  0  0  0  0  0  0  0  0  0  0  0
   -0.8307    2.9956    2.0027 S   0  0  0  0  0  0  0  0  0  0  0  0
    0.8744    3.6189    2.2836 C   0  0  0  0  0  0  0  0  0  0  0  0
    1.5866    3.0945    1.6403 H   0  0  0  0  0  0  0  0  0  0  0  0
    0.9232    4.6878    2.0552 H   0  0  0  0  0  0  0  0  0  0  0  0
    1.1652    3.4712    3.3278 H   0  0  0  0  0  0  0  0  0  0  0  0
    0.5767   -0.2797   -0.8287 C   0  0  0  0  0  0  0  0  0  0  0  0
    0.4967    0.0399   -2.0081 O   0  0  0  0  0  0  0  0  0  0  0  0
    1.5848   -1.1338   -0.4203 N   0  0  0  0  0  0  0  0  0  0  0  0
    1.4407   -1.5662    0.4897 H   0  0  0  0  0  0  0  0  0  0  0  0
    2.4763   -1.7990   -1.3618 C   0  0  0  0  0  0  0  0  0  0  0  0
    3.0111   -1.0623   -1.9707 H   0  0  0  0  0  0  0  0  0  0  0  0
    3.2151   -2.3992   -0.8221 H   0  0  0  0  0  0  0  0  0  0  0  0
    1.9082   -2.4592   -2.0255 H   0  0  0  0  0  0  0  0  0  0  0  0
  1  2  1  0  0  0  0
  2  3  1  0  0  0  0
  2  4  1  0  0  0  0
  2  5  1  0  0  0  0
  5  6  2  0  0  0  0
  5  7  1  0  0  0  0
  7  8  1  0  0  0  0
  7  9  1  0  0  0  0
  9 10  1  0  0  0  0
  9 11  1  0  0  0  0
  9 22  1  0  0  0  0
 11 12  1  0  0  0  0
 11 13  1  0  0  0  0
 11 14  1  0  0  0  0
 14 15  1  0  0  0  0
 14 16  1  0  0  0  0
 14 17  1  0  0  0  0
 17 18  1  0  0  0  0
 18 19  1  0  0  0  0
 18 20  1  0  0  0  0
 18 21  1  0  0  0  0
 22 23  2  0  0  0  0
 22 24  1  0  0  0  0
 24 25  1  0  0  0  0
 24 26  1  0  0  0  0
 26 27  1  0  0  0  0
 26 28  1  0  0  0  0
 26 29  1  0  0  0  0
M  END
$$$$

  -OEChem-01062216093D

 29 28  0     1  0  0  0  0  0999 V2000
   -3.5309   -3.1576    0.8157 H   0  0  0  0  0  0  0  0  0  0  0  0
   -3.4498   -2.1679    0.3572 C   0  0  0  0  0  0  0  0  0  0  0  0
   -4.1460   -1.4908    0.8582 H   0  0  0  0  0  0  0  0  0  0  0  0
   -3.7224   -2.2454   -0.6983 H   0  0  0  0  0  0  0  0  0  0  0  0
   -2.0321   -1.6450    0.4886 C   0  0  0  0  0  0  0  0  0  0  0  0
   -1.1597   -2.3673    0.9474 O   0  0  0  0  0  0  0  0  0  0  0  0
   -1.7292   -0.3772    0.0304 N   0  0  0  0  0  0  0  0  0  0  0  0
   -2.4856    0.1421   -0.4070 H   0  0  0  0  0  0  0  0  0  0  0  0
   -0.4248    0.3001    0.1606 C   0  0  1  0  0  0  0  0  0  0  0  0
   -0.5655    1.3336   -0.1696 H   0  0  0  0  0  0  0  0  0  0  0  0
    0.1226    0.3571    1.6083 C   0  0  0  0  0  0  0  0  0  0  0  0
    0.2082   -0.6442    2.0367 H   0  0  0  0  0  0  0  0  0  0  0  0
    1.1343    0.7730    1.5829 H   0  0  0  0  0  0  0  0  0  0  0  0
   -0.7392    1.2243    2.5364 C   0  0  0  0  0  0  0  0  0  0  0  0
   -1.7510    0.8094    2.5808 H   0  0  0  0  0  0  0  0  0  0  0  0
   -0.3264    1.1897    3.5496 H   0  0  0  0  0  0  0  0  0  0  0  0
   -0.8341    2.9792    1.9872 S   0  0  0  0  0  0  0  0  0  0  0  0
    0.8711    3.5974    2.2791 C   0  0  0  0  0  0  0  0  0  0  0  0
    1.5828    3.0818    1.6281 H   0  0  0  0  0  0  0  0  0  0  0  0
    0.9214    4.6694    2.0664 H   0  0  0  0  0  0  0  0  0  0  0  0
    1.1617    3.4337    3.3209 H   0  0  0  0  0  0  0  0  0  0  0  0
    0.5924   -0.2932   -0.8359 C   0  0  0  0  0  0  0  0  0  0  0  0
    0.7287    0.2124   -1.9427 O   0  0  0  0  0  0  0  0  0  0  0  0
    1.3825   -1.3648   -0.4656 N   0  0  0  0  0  0  0  0  0  0  0  0
    1.0248   -1.8988    0.3276 H   0  0  0  0  0  0  0  0  0  0  0  0
    2.2767   -2.0372   -1.3989 C   0  0  0  0  0  0  0  0  0  0  0  0
    2.9940   -1.3266   -1.8229 H   0  0  0  0  0  0  0  0  0  0  0  0
    2.8368   -2.8240   -0.8845 H   0  0  0  0  0  0  0  0  0  0  0  0
    1.7062   -2.4914   -2.2156 H   0  0  0  0  0  0  0  0  0  0  0  0
  1  2  1  0  0  0  0
  2  3  1  0  0  0  0
  2  4  1  0  0  0  0
  2  5  1  0  0  0  0
  5  6  2  0  0  0  0
  5  7  1  0  0  0  0
  7  8  1  0  0  0  0
  7  9  1  0  0  0  0
  9 10  1  0  0  0  0
  9 11  1  0  0  0  0
  9 22  1  0  0  0  0
 11 12  1  0  0  0  0
 11 13  1  0  0  0  0
 11 14  1  0  0  0  0
 14 15  1  0  0  0  0
 14 16  1  0  0  0  0
 14 17  1  0  0  0  0
 17 18  1  0  0  0  0
 18 19  1  0  0  0  0
 18 20  1  0  0  0  0
 18 21  1  0  0  0  0
 22 23  2  0  0  0  0
 22 24  1  0  0  0  0
 24 25  1  0  0  0  0
 24 26  1  0  0  0  0
 26 27  1  0  0  0  0
 26 28  1  0  0  0  0
 26 29  1  0  0  0  0
M  END
$$$$

  -OEChem-01062216093D

 29 28  0     1  0  0  0  0  0999 V2000
   -3.5852   -3.1242    0.8610 H   0  0  0  0  0  0  0  0  0  0  0  0
   -3.4887   -2.1444    0.3844 C   0  0  0  0  0  0  0  0  0  0  0  0
   -4.1661   -1.4449    0.8802 H   0  0  0  0  0  0  0  0  0  0  0  0
   -3.7739   -2.2344   -0.6667 H   0  0  0  0  0  0  0  0  0  0  0  0
   -2.0592   -1.6488    0.4916 C   0  0  0  0  0  0  0  0  0  0  0  0
   -1.1946   -2.3890    0.9359 O   0  0  0  0  0  0  0  0  0  0  0  0
   -1.7395   -0.3890    0.0222 N   0  0  0  0  0  0  0  0  0  0  0  0
   -2.5028    0.1472   -0.3816 H   0  0  0  0  0  0  0  0  0  0  0  0
   -0.4319    0.2878    0.1452 C   0  0  1  0  0  0  0  0  0  0  0  0
   -0.5727    1.3216   -0.1849 H   0  0  0  0  0  0  0  0  0  0  0  0
    0.1203    0.3390    1.5897 C   0  0  0  0  0  0  0  0  0  0  0  0
    0.2066   -0.6651    2.0114 H   0  0  0  0  0  0  0  0  0  0  0  0
    1.1327    0.7532    1.5619 H   0  0  0  0  0  0  0  0  0  0  0  0
   -0.7363    1.2037    2.5251 C   0  0  0  0  0  0  0  0  0  0  0  0
   -1.7484    0.7903    2.5733 H   0  0  0  0  0  0  0  0  0  0  0  0
   -0.3181    1.1644    3.5357 H   0  0  0  0  0  0  0  0  0  0  0  0
   -0.8322    2.9609    1.9841 S   0  0  0  0  0  0  0  0  0  0  0  0
    0.8740    3.5790    2.2696 C   0  0  0  0  0  0  0  0  0  0  0  0
    1.5807    3.0755    1.6037 H   0  0  0  0  0  0  0  0  0  0  0  0
    0.9190    4.6542    2.0726 H   0  0  0  0  0  0  0  0  0  0  0  0
    1.1748    3.4001    3.3061 H   0  0  0  0  0  0  0  0  0  0  0  0
    0.6012   -0.3057   -0.8352 C   0  0  0  0  0  0  0  0  0  0  0  0
    0.9402    0.3268   -1.8269 O   0  0  0  0  0  0  0  0  0  0  0  0
    1.1703   -1.5377   -0.5775 N   0  0  0  0  0  0  0  0  0  0  0  0
    0.6838   -2.0969    0.1279 H   0  0  0  0  0  0  0  0  0  0  0  0
    2.0537   -2.2153   -1.5167 C   0  0  0  0  0  0  0  0  0  0  0  0
    2.9169   -1.5849   -1.7551 H   0  0  0  0  0  0  0  0  0  0  0  0
    2.4205   -3.1499   -1.0815 H   0  0  0  0  0  0  0  0  0  0  0  0
    1.5203   -2.4480   -2.4441 H   0  0  0  0  0  0  0  0  0  0  0  0
  1  2  1  0  0  0  0
  2  3  1  0  0  0  0
  2  4  1  0  0  0  0
  2  5  1  0  0  0  0
  5  6  2  0  0  0  0
  5  7  1  0  0  0  0
  7  8  1  0  0  0  0
  7  9  1  0  0  0  0
  9 10  1  0  0  0  0
  9 11  1  0  0  0  0
  9 22  1  0  0  0  0
 11 12  1  0  0  0  0
 11 13  1  0  0  0  0
 11 14  1  0  0  0  0
 14 15  1  0  0  0  0
 14 16  1  0  0  0  0
 14 17  1  0  0  0  0
 17 18  1  0  0  0  0
 18 19  1  0  0  0  0
 18 20  1  0  0  0  0
 18 21  1  0  0  0  0
 22 23  2  0  0  0  0
 22 24  1  0  0  0  0
 24 25  1  0  0  0  0
 24 26  1  0  0  0  0
 26 27  1  0  0  0  0
 26 28  1  0  0  0  0
 26 29  1  0  0  0  0
M  END
$$$$

  -OEChem-01062216093D

 29 28  0     1  0  0  0  0  0999 V2000
   -3.6621   -3.0984    0.8921 H   0  0  0  0  0  0  0  0  0  0  0  0
   -3.5575   -2.1111    0.4333 C   0  0  0  0  0  0  0  0  0  0  0  0
   -4.1999   -1.4064    0.9668 H   0  0  0  0  0  0  0  0  0  0  0  0
   -3.8801   -2.1714   -0.6091 H   0  0  0  0  0  0  0  0  0  0  0  0
   -2.1132   -1.6526    0.5028 C   0  0  0  0  0  0  0  0  0  0  0  0
   -1.2592   -2.4145    0.9291 O   0  0  0  0  0  0  0  0  0  0  0  0
   -1.7756   -0.4018    0.0214 N   0  0  0  0  0  0  0  0  0  0  0  0
   -2.5447    0.1524   -0.3452 H   0  0  0  0  0  0  0  0  0  0  0  0
   -0.4608    0.2696    0.1223 C   0  0  1  0  0  0  0  0  0  0  0  0
   -0.6040    1.3036   -0.2059 H   0  0  0  0  0  0  0  0  0  0  0  0
    0.1060    0.3116    1.5600 C   0  0  0  0  0  0  0  0  0  0  0  0
    0.1913   -0.6963    1.9731 H   0  0  0  0  0  0  0  0  0  0  0  0
    1.1206    0.7197    1.5241 H   0  0  0  0  0  0  0  0  0  0  0  0
   -0.7343    1.1772    2.5091 C   0  0  0  0  0  0  0  0  0  0  0  0
   -1.7486    0.7703    2.5679 H   0  0  0  0  0  0  0  0  0  0  0  0
   -0.3044    1.1314    3.5147 H   0  0  0  0  0  0  0  0  0  0  0  0
   -0.8232    2.9370    1.9749 S   0  0  0  0  0  0  0  0  0  0  0  0
    0.8909    3.5420    2.2436 C   0  0  0  0  0  0  0  0  0  0  0  0
    1.5895    3.0223    1.5816 H   0  0  0  0  0  0  0  0  0  0  0  0
    0.9461    4.6138    2.0315 H   0  0  0  0  0  0  0  0  0  0  0  0
    1.1951    3.3743    3.2809 H   0  0  0  0  0  0  0  0  0  0  0  0
    0.5818   -0.3188   -0.8524 C   0  0  0  0  0  0  0  0  0  0  0  0
    1.1172    0.4021   -1.6841 O   0  0  0  0  0  0  0  0  0  0  0  0
    0.9389   -1.6504   -0.7742 N   0  0  0  0  0  0  0  0  0  0  0  0
    0.3961   -2.2225   -0.1214 H   0  0  0  0  0  0  0  0  0  0  0  0
    1.8705   -2.2966   -1.6877 C   0  0  0  0  0  0  0  0  0  0  0  0
    2.8366   -1.7811   -1.6783 H   0  0  0  0  0  0  0  0  0  0  0  0
    2.0321   -3.3363   -1.3875 H   0  0  0  0  0  0  0  0  0  0  0  0
    1.4745   -2.2859   -2.7084 H   0  0  0  0  0  0  0  0  0  0  0  0
  1  2  1  0  0  0  0
  2  3  1  0  0  0  0
  2  4  1  0  0  0  0
  2  5  1  0  0  0  0
  5  6  2  0  0  0  0
  5  7  1  0  0  0  0
  7  8  1  0  0  0  0
  7  9  1  0  0  0  0
  9 10  1  0  0  0  0
  9 11  1  0  0  0  0
  9 22  1  0  0  0  0
 11 12  1  0  0  0  0
 11 13  1  0  0  0  0
 11 14  1  0  0  0  0
 14 15  1  0  0  0  0
 14 16  1  0  0  0  0
 14 17  1  0  0  0  0
 17 18  1  0  0  0  0
 18 19  1  0  0  0  0
 18 20  1  0  0  0  0
 18 21  1  0  0  0  0
 22 23  2  0  0  0  0
 22 24  1  0  0  0  0
 24 25  1  0  0  0  0
 24 26  1  0  0  0  0
 26 27  1  0  0  0  0
 26 28  1  0  0  0  0
 26 29  1  0  0  0  0
M  END
$$$$

  -OEChem-01062216093D

 29 28  0     1  0  0  0  0  0999 V2000
   -3.7238   -3.0747    0.9498 H   0  0  0  0  0  0  0  0  0  0  0  0
   -3.6212   -2.0802    0.5063 C   0  0  0  0  0  0  0  0  0  0  0  0
   -4.2168   -1.3733    1.0892 H   0  0  0  0  0  0  0  0  0  0  0  0
   -4.0025   -2.1103   -0.5173 H   0  0  0  0  0  0  0  0  0  0  0  0
   -2.1652   -1.6545    0.5054 C   0  0  0  0  0  0  0  0  0  0  0  0
   -1.3074   -2.4382    0.8797 O   0  0  0  0  0  0  0  0  0  0  0  0
   -1.8251   -0.4071    0.0176 N   0  0  0  0  0  0  0  0  0  0  0  0
   -2.6041    0.1667   -0.2940 H   0  0  0  0  0  0  0  0  0  0  0  0
   -0.5034    0.2576    0.0903 C   0  0  1  0  0  0  0  0  0  0  0  0
   -0.6494    1.2932   -0.2309 H   0  0  0  0  0  0  0  0  0  0  0  0
    0.0879    0.2864    1.5176 C   0  0  0  0  0  0  0  0  0  0  0  0
    0.1740   -0.7258    1.9204 H   0  0  0  0  0  0  0  0  0  0  0  0
    1.1045    0.6888    1.4678 H   0  0  0  0  0  0  0  0  0  0  0  0
   -0.7294    1.1504    2.4877 C   0  0  0  0  0  0  0  0  0  0  0  0
   -1.7448    0.7492    2.5629 H   0  0  0  0  0  0  0  0  0  0  0  0
   -0.2810    1.0947    3.4847 H   0  0  0  0  0  0  0  0  0  0  0  0
   -0.8163    2.9143    1.9670 S   0  0  0  0  0  0  0  0  0  0  0  0
    0.9075    3.5010    2.2101 C   0  0  0  0  0  0  0  0  0  0  0  0
    1.5857    2.9942    1.5175 H   0  0  0  0  0  0  0  0  0  0  0  0
    0.9656    4.5777    2.0251 H   0  0  0  0  0  0  0  0  0  0  0  0
    1.2354    3.3037    3.2349 H   0  0  0  0  0  0  0  0  0  0  0  0
    0.5349   -0.3203   -0.8976 C   0  0  0  0  0  0  0  0  0  0  0  0
    1.2589    0.4388   -1.5285 O   0  0  0  0  0  0  0  0  0  0  0  0
    0.6886   -1.6840   -1.0502 N   0  0  0  0  0  0  0  0  0  0  0  0
    0.1291   -2.2716   -0.4268 H   0  0  0  0  0  0  0  0  0  0  0  0
    1.7093   -2.2982   -1.8875 C   0  0  0  0  0  0  0  0  0  0  0  0
    2.7088   -2.0127   -1.5438 H   0  0  0  0  0  0  0  0  0  0  0  0
    1.6257   -3.3883   -1.8453 H   0  0  0  0  0  0  0  0  0  0  0  0
    1.5903   -1.9823   -2.9292 H   0  0  0  0  0  0  0  0  0  0  0  0
  1  2  1  0  0  0  0
  2  3  1  0  0  0  0
  2  4  1  0  0  0  0
  2  5  1  0  0  0  0
  5  6  2  0  0  0  0
  5  7  1  0  0  0  0
  7  8  1  0  0  0  0
  7  9  1  0  0  0  0
  9 10  1  0  0  0  0
  9 11  1  0  0  0  0
  9 22  1  0  0  0  0
 11 12  1  0  0  0  0
 11 13  1  0  0  0  0
 11 14  1  0  0  0  0
 14 15  1  0  0  0  0
 14 16  1  0  0  0  0
 14 17  1  0  0  0  0
 17 18  1  0  0  0  0
 18 19  1  0  0  0  0
 18 20  1  0  0  0  0
 18 21  1  0  0  0  0
 22 23  2  0  0  0  0
 22 24  1  0  0  0  0
 24 25  1  0  0  0  0
 24 26  1  0  0  0  0
 26 27  1  0  0  0  0
 26 28  1  0  0  0  0
 26 29  1  0  0  0  0
M  END
$$$$

  -OEChem-01062216093D

 29 28  0     1  0  0  0  0  0999 V2000
   -3.7304   -3.0521    1.0106 H   0  0  0  0  0  0  0  0  0  0  0  0
   -3.6386   -2.0549    0.5708 C   0  0  0  0  0  0  0  0  0  0  0  0
   -4.1890   -1.3453    1.1933 H   0  0  0  0  0  0  0  0  0  0  0  0
   -4.0777   -2.0695   -0.4297 H   0  0  0  0  0  0  0  0  0  0  0  0
   -2.1789   -1.6510    0.4912 C   0  0  0  0  0  0  0  0  0  0  0  0
   -1.3121   -2.4551    0.7927 O   0  0  0  0  0  0  0  0  0  0  0  0
   -1.8442   -0.4038    0.0003 N   0  0  0  0  0  0  0  0  0  0  0  0
   -2.6315    0.1890   -0.2483 H   0  0  0  0  0  0  0  0  0  0  0  0
   -0.5196    0.2582    0.0636 C   0  0  1  0  0  0  0  0  0  0  0  0
   -0.6646    1.2952   -0.2533 H   0  0  0  0  0  0  0  0  0  0  0  0
    0.0729    0.2746    1.4909 C   0  0  0  0  0  0  0  0  0  0  0  0
    0.1548   -0.7419    1.8845 H   0  0  0  0  0  0  0  0  0  0  0  0
    1.0910    0.6736    1.4450 H   0  0  0  0  0  0  0  0  0  0  0  0
   -0.7410    1.1347    2.4676 C   0  0  0  0  0  0  0  0  0  0  0  0
   -1.7576    0.7367    2.5412 H   0  0  0  0  0  0  0  0  0  0  0  0
   -0.2917    1.0701    3.4636 H   0  0  0  0  0  0  0  0  0  0  0  0
   -0.8227    2.9024    1.9602 S   0  0  0  0  0  0  0  0  0  0  0  0
    0.9033    3.4810    2.2068 C   0  0  0  0  0  0  0  0  0  0  0  0
    1.5795    2.9772    1.5098 H   0  0  0  0  0  0  0  0  0  0  0  0
    0.9649    4.5589    2.0305 H   0  0  0  0  0  0  0  0  0  0  0  0
    1.2316    3.2744    3.2297 H   0  0  0  0  0  0  0  0  0  0  0  0
    0.5212   -0.3123   -0.9277 C   0  0  0  0  0  0  0  0  0  0  0  0
    1.3946    0.4220   -1.3717 O   0  0  0  0  0  0  0  0  0  0  0  0
    0.4868   -1.6363   -1.3202 N   0  0  0  0  0  0  0  0  0  0  0  0
   -0.1201   -2.2385   -0.7591 H   0  0  0  0  0  0  0  0  0  0  0  0
    1.5180   -2.2538   -2.1429 C   0  0  0  0  0  0  0  0  0  0  0  0
    2.4826   -2.2357   -1.6252 H   0  0  0  0  0  0  0  0  0  0  0  0
    1.2562   -3.2946   -2.3562 H   0  0  0  0  0  0  0  0  0  0  0  0
    1.6185   -1.7224   -3.0950 H   0  0  0  0  0  0  0  0  0  0  0  0
  1  2  1  0  0  0  0
  2  3  1  0  0  0  0
  2  4  1  0  0  0  0
  2  5  1  0  0  0  0
  5  6  2  0  0  0  0
  5  7  1  0  0  0  0
  7  8  1  0  0  0  0
  7  9  1  0  0  0  0
  9 10  1  0  0  0  0
  9 11  1  0  0  0  0
  9 22  1  0  0  0  0
 11 12  1  0  0  0  0
 11 13  1  0  0  0  0
 11 14  1  0  0  0  0
 14 15  1  0  0  0  0
 14 16  1  0  0  0  0
 14 17  1  0  0  0  0
 17 18  1  0  0  0  0
 18 19  1  0  0  0  0
 18 20  1  0  0  0  0
 18 21  1  0  0  0  0
 22 23  2  0  0  0  0
 22 24  1  0  0  0  0
 24 25  1  0  0  0  0
 24 26  1  0  0  0  0
 26 27  1  0  0  0  0
 26 28  1  0  0  0  0
 26 29  1  0  0  0  0
M  END
$$$$

  -OEChem-01062216093D

 29 28  0     1  0  0  0  0  0999 V2000
   -3.7065   -3.0454    1.0474 H   0  0  0  0  0  0  0  0  0  0  0  0
   -3.6299   -2.0400    0.6239 C   0  0  0  0  0  0  0  0  0  0  0  0
   -4.1382   -1.3394    1.2908 H   0  0  0  0  0  0  0  0  0  0  0  0
   -4.1244   -2.0295   -0.3505 H   0  0  0  0  0  0  0  0  0  0  0  0
   -2.1730   -1.6474    0.4708 C   0  0  0  0  0  0  0  0  0  0  0  0
   -1.2975   -2.4681    0.6876 O   0  0  0  0  0  0  0  0  0  0  0  0
   -1.8493   -0.3981   -0.0201 N   0  0  0  0  0  0  0  0  0  0  0  0
   -2.6421    0.2121   -0.1996 H   0  0  0  0  0  0  0  0  0  0  0  0
   -0.5229    0.2605    0.0469 C   0  0  1  0  0  0  0  0  0  0  0  0
   -0.6632    1.2982   -0.2694 H   0  0  0  0  0  0  0  0  0  0  0  0
    0.0559    0.2706    1.4810 C   0  0  0  0  0  0  0  0  0  0  0  0
    0.1269   -0.7485    1.8709 H   0  0  0  0  0  0  0  0  0  0  0  0
    1.0769    0.6632    1.4494 H   0  0  0  0  0  0  0  0  0  0  0  0
   -0.7630    1.1312    2.4529 C   0  0  0  0  0  0  0  0  0  0  0  0
   -1.7822    0.7388    2.5169 H   0  0  0  0  0  0  0  0  0  0  0  0
   -0.3220    1.0626    3.4525 H   0  0  0  0  0  0  0  0  0  0  0  0
   -0.8298    2.9001    1.9473 S   0  0  0  0  0  0  0  0  0  0  0  0
    0.8976    3.4680    2.2113 C   0  0  0  0  0  0  0  0  0  0  0  0
    1.5774    2.9603    1.5207 H   0  0  0  0  0  0  0  0  0  0  0  0
    0.9680    4.5455    2.0357 H   0  0  0  0  0  0  0  0  0  0  0  0
    1.2147    3.2591    3.2372 H   0  0  0  0  0  0  0  0  0  0  0  0
    0.5232   -0.3056   -0.9427 C   0  0  0  0  0  0  0  0  0  0  0  0
    1.5180    0.3571   -1.2099 O   0  0  0  0  0  0  0  0  0  0  0  0
    0.3279   -1.5179   -1.5761 N   0  0  0  0  0  0  0  0  0  0  0  0
   -0.3536   -2.1244   -1.1176 H   0  0  0  0  0  0  0  0  0  0  0  0
    1.3392   -2.1362   -2.4232 C   0  0  0  0  0  0  0  0  0  0  0  0
    2.2396   -2.3619   -1.8427 H   0  0  0  0  0  0  0  0  0  0  0  0
    0.9558   -3.0684   -2.8484 H   0  0  0  0  0  0  0  0  0  0  0  0
    1.6099   -1.4686   -3.2479 H   0  0  0  0  0  0  0  0  0  0  0  0
  1  2  1  0  0  0  0
  2  3  1  0  0  0  0
  2  4  1  0  0  0  0
  2  5  1  0  0  0  0
  5  6  2  0  0  0  0
  5  7  1  0  0  0  0
  7  8  1  0  0  0  0
  7  9  1  0  0  0  0
  9 10  1  0  0  0  0
  9 11  1  0  0  0  0
  9 22  1  0  0  0  0
 11 12  1  0  0  0  0
 11 13  1  0  0  0  0
 11 14  1  0  0  0  0
 14 15  1  0  0  0  0
 14 16  1  0  0  0  0
 14 17  1  0  0  0  0
 17 18  1  0  0  0  0
 18 19  1  0  0  0  0
 18 20  1  0  0  0  0
 18 21  1  0  0  0  0
 22 23  2  0  0  0  0
 22 24  1  0  0  0  0
 24 25  1  0  0  0  0
 24 26  1  0  0  0  0
 26 27  1  0  0  0  0
 26 28  1  0  0  0  0
 26 29  1  0  0  0  0
M  END
$$$$

  -OEChem-01062216093D

 29 28  0     1  0  0  0  0  0999 V2000
   -3.6689   -3.0421    1.0791 H   0  0  0  0  0  0  0  0  0  0  0  0
   -3.6041   -2.0380    0.6503 C   0  0  0  0  0  0  0  0  0  0  0  0
   -4.0939   -1.3354    1.3288 H   0  0  0  0  0  0  0  0  0  0  0  0
   -4.1250   -2.0304   -0.3102 H   0  0  0  0  0  0  0  0  0  0  0  0
   -2.1521   -1.6456    0.4558 C   0  0  0  0  0  0  0  0  0  0  0  0
   -1.2709   -2.4682    0.6337 O   0  0  0  0  0  0  0  0  0  0  0  0
   -1.8409   -0.3926   -0.0330 N   0  0  0  0  0  0  0  0  0  0  0  0
   -2.6375    0.2234   -0.1714 H   0  0  0  0  0  0  0  0  0  0  0  0
   -0.5149    0.2664    0.0391 C   0  0  1  0  0  0  0  0  0  0  0  0
   -0.6515    1.3047   -0.2760 H   0  0  0  0  0  0  0  0  0  0  0  0
    0.0516    0.2719    1.4801 C   0  0  0  0  0  0  0  0  0  0  0  0
    0.1200   -0.7484    1.8674 H   0  0  0  0  0  0  0  0  0  0  0  0
    1.0724    0.6650    1.4627 H   0  0  0  0  0  0  0  0  0  0  0  0
   -0.7765    1.1303    2.4463 C   0  0  0  0  0  0  0  0  0  0  0  0
   -1.7961    0.7381    2.5011 H   0  0  0  0  0  0  0  0  0  0  0  0
   -0.3451    1.0594    3.4499 H   0  0  0  0  0  0  0  0  0  0  0  0
   -0.8382    2.9004    1.9446 S   0  0  0  0  0  0  0  0  0  0  0  0
    0.8870    3.4654    2.2273 C   0  0  0  0  0  0  0  0  0  0  0  0
    1.5745    2.9518    1.5484 H   0  0  0  0  0  0  0  0  0  0  0  0
    0.9621    4.5420    2.0473 H   0  0  0  0  0  0  0  0  0  0  0  0
    1.1901    3.2606    3.2583 H   0  0  0  0  0  0  0  0  0  0  0  0
    0.5285   -0.3005   -0.9548 C   0  0  0  0  0  0  0  0  0  0  0  0
    1.6214    0.2426   -1.0616 O   0  0  0  0  0  0  0  0  0  0  0  0
    0.2062   -1.3347   -1.8134 N   0  0  0  0  0  0  0  0  0  0  0  0
   -0.5842   -1.8988   -1.5071 H   0  0  0  0  0  0  0  0  0  0  0  0
    1.1865   -1.9519   -2.6978 C   0  0  0  0  0  0  0  0  0  0  0  0
    1.9953   -2.4053   -2.1152 H   0  0  0  0  0  0  0  0  0  0  0  0
    0.7125   -2.7317   -3.3013 H   0  0  0  0  0  0  0  0  0  0  0  0
    1.6151   -1.2059   -3.3753 H   0  0  0  0  0  0  0  0  0  0  0  0
  1  2  1  0  0  0  0
  2  3  1  0  0  0  0
  2  4  1  0  0  0  0
  2  5  1  0  0  0  0
  5  6  2  0  0  0  0
  5  7  1  0  0  0  0
  7  8  1  0  0  0  0
  7  9  1  0  0  0  0
  9 10  1  0  0  0  0
  9 11  1  0  0  0  0
  9 22  1  0  0  0  0
 11 12  1  0  0  0  0
 11 13  1  0  0  0  0
 11 14  1  0  0  0  0
 14 15  1  0  0  0  0
 14 16  1  0  0  0  0
 14 17  1  0  0  0  0
 17 18  1  0  0  0  0
 18 19  1  0  0  0  0
 18 20  1  0  0  0  0
 18 21  1  0  0  0  0
 22 23  2  0  0  0  0
 22 24  1  0  0  0  0
 24 25  1  0  0  0  0
 24 26  1  0  0  0  0
 26 27  1  0  0  0  0
 26 28  1  0  0  0  0
 26 29  1  0  0  0  0
M  END
$$$$

  -OEChem-01062216093D

 29 28  0     1  0  0  0  0  0999 V2000
   -3.6279   -3.0626    1.0605 H   0  0  0  0  0  0  0  0  0  0  0  0
   -3.5699   -2.0577    0.6323 C   0  0  0  0  0  0  0  0  0  0  0  0
   -4.0687   -1.3596    1.3090 H   0  0  0  0  0  0  0  0  0  0  0  0
   -4.0869   -2.0545   -0.3303 H   0  0  0  0  0  0  0  0  0  0  0  0
   -2.1199   -1.6531    0.4452 C   0  0  0  0  0  0  0  0  0  0  0  0
   -1.2339   -2.4658    0.6392 O   0  0  0  0  0  0  0  0  0  0  0  0
   -1.8199   -0.3930   -0.0344 N   0  0  0  0  0  0  0  0  0  0  0  0
   -2.6208    0.2217   -0.1518 H   0  0  0  0  0  0  0  0  0  0  0  0
   -0.4965    0.2700    0.0458 C   0  0  1  0  0  0  0  0  0  0  0  0
   -0.6333    1.3084   -0.2679 H   0  0  0  0  0  0  0  0  0  0  0  0
    0.0602    0.2779    1.4921 C   0  0  0  0  0  0  0  0  0  0  0  0
    0.1303   -0.7418    1.8802 H   0  0  0  0  0  0  0  0  0  0  0  0
    1.0788    0.6763    1.4855 H   0  0  0  0  0  0  0  0  0  0  0  0
   -0.7782    1.1344    2.4510 C   0  0  0  0  0  0  0  0  0  0  0  0
   -1.7966    0.7378    2.4989 H   0  0  0  0  0  0  0  0  0  0  0  0
   -0.3527    1.0658    3.4574 H   0  0  0  0  0  0  0  0  0  0  0  0
   -0.8424    2.9044    1.9479 S   0  0  0  0  0  0  0  0  0  0  0  0
    0.8777    3.4794    2.2426 C   0  0  0  0  0  0  0  0  0  0  0  0
    1.5749    2.9614    1.5774 H   0  0  0  0  0  0  0  0  0  0  0  0
    0.9505    4.5540    2.0508 H   0  0  0  0  0  0  0  0  0  0  0  0
    1.1703    3.2885    3.2792 H   0  0  0  0  0  0  0  0  0  0  0  0
    0.5388   -0.2960   -0.9588 C   0  0  0  0  0  0  0  0  0  0  0  0
    1.7079    0.0682   -0.9151 O   0  0  0  0  0  0  0  0  0  0  0  0
    0.1289   -1.0912   -2.0131 N   0  0  0  0  0  0  0  0  0  0  0  0
   -0.7865   -1.5156   -1.8955 H   0  0  0  0  0  0  0  0  0  0  0  0
    1.0669   -1.7159   -2.9373 C   0  0  0  0  0  0  0  0  0  0  0  0
    1.7376   -2.3950   -2.4003 H   0  0  0  0  0  0  0  0  0  0  0  0
    0.5251   -2.2895   -3.6953 H   0  0  0  0  0  0  0  0  0  0  0  0
    1.6688   -0.9557   -3.4465 H   0  0  0  0  0  0  0  0  0  0  0  0
  1  2  1  0  0  0  0
  2  3  1  0  0  0  0
  2  4  1  0  0  0  0
  2  5  1  0  0  0  0
  5  6  2  0  0  0  0
  5  7  1  0  0  0  0
  7  8  1  0  0  0  0
  7  9  1  0  0  0  0
  9 10  1  0  0  0  0
  9 11  1  0  0  0  0
  9 22  1  0  0  0  0
 11 12  1  0  0  0  0
 11 13  1  0  0  0  0
 11 14  1  0  0  0  0
 14 15  1  0  0  0  0
 14 16  1  0  0  0  0
 14 17  1  0  0  0  0
 17 18  1  0  0  0  0
 18 19  1  0  0  0  0
 18 20  1  0  0  0  0
 18 21  1  0  0  0  0
 22 23  2  0  0  0  0
 22 24  1  0  0  0  0
 24 25  1  0  0  0  0
 24 26  1  0  0  0  0
 26 27  1  0  0  0  0
 26 28  1  0  0  0  0
 26 29  1  0  0  0  0
M  END
$$$$

  -OEChem-01062216093D

 29 28  0     1  0  0  0  0  0999 V2000
   -3.5946   -3.0878    1.0174 H   0  0  0  0  0  0  0  0  0  0  0  0
   -3.5380   -2.0801    0.5960 C   0  0  0  0  0  0  0  0  0  0  0  0
   -4.0571   -1.3907    1.2662 H   0  0  0  0  0  0  0  0  0  0  0  0
   -4.0354   -2.0770   -0.3769 H   0  0  0  0  0  0  0  0  0  0  0  0
   -2.0886   -1.6608    0.4398 C   0  0  0  0  0  0  0  0  0  0  0  0
   -1.2013   -2.4621    0.6700 O   0  0  0  0  0  0  0  0  0  0  0  0
   -1.7938   -0.3963   -0.0336 N   0  0  0  0  0  0  0  0  0  0  0  0
   -2.5974    0.2145   -0.1513 H   0  0  0  0  0  0  0  0  0  0  0  0
   -0.4732    0.2696    0.0574 C   0  0  1  0  0  0  0  0  0  0  0  0
   -0.6075    1.3073   -0.2594 H   0  0  0  0  0  0  0  0  0  0  0  0
    0.0708    0.2857    1.5093 C   0  0  0  0  0  0  0  0  0  0  0  0
    0.1417   -0.7316    1.9036 H   0  0  0  0  0  0  0  0  0  0  0  0
    1.0876    0.6889    1.5103 H   0  0  0  0  0  0  0  0  0  0  0  0
   -0.7798    1.1453    2.4548 C   0  0  0  0  0  0  0  0  0  0  0  0
   -1.7975    0.7456    2.4943 H   0  0  0  0  0  0  0  0  0  0  0  0
   -0.3653    1.0825    3.4660 H   0  0  0  0  0  0  0  0  0  0  0  0
   -0.8445    2.9127    1.9422 S   0  0  0  0  0  0  0  0  0  0  0  0
    0.8712    3.4934    2.2521 C   0  0  0  0  0  0  0  0  0  0  0  0
    1.5771    2.9730    1.5980 H   0  0  0  0  0  0  0  0  0  0  0  0
    0.9434    4.5672    2.0558 H   0  0  0  0  0  0  0  0  0  0  0  0
    1.1526    3.3088    3.2929 H   0  0  0  0  0  0  0  0  0  0  0  0
    0.5531   -0.3044   -0.9525 C   0  0  0  0  0  0  0  0  0  0  0  0
    1.7584   -0.1649   -0.7822 O   0  0  0  0  0  0  0  0  0  0  0  0
    0.1108   -0.8222   -2.1564 N   0  0  0  0  0  0  0  0  0  0  0  0
   -0.8773   -1.0504   -2.1955 H   0  0  0  0  0  0  0  0  0  0  0  0
    1.0067   -1.4320   -3.1311 C   0  0  0  0  0  0  0  0  0  0  0  0
    1.5186   -2.2947   -2.6918 H   0  0  0  0  0  0  0  0  0  0  0  0
    0.4412   -1.7708   -4.0042 H   0  0  0  0  0  0  0  0  0  0  0  0
    1.7581   -0.7096   -3.4668 H   0  0  0  0  0  0  0  0  0  0  0  0
  1  2  1  0  0  0  0
  2  3  1  0  0  0  0
  2  4  1  0  0  0  0
  2  5  1  0  0  0  0
  5  6  2  0  0  0  0
  5  7  1  0  0  0  0
  7  8  1  0  0  0  0
  7  9  1  0  0  0  0
  9 10  1  0  0  0  0
  9 11  1  0  0  0  0
  9 22  1  0  0  0  0
 11 12  1  0  0  0  0
 11 13  1  0  0  0  0
 11 14  1  0  0  0  0
 14 15  1  0  0  0  0
 14 16  1  0  0  0  0
 14 17  1  0  0  0  0
 17 18  1  0  0  0  0
 18 19  1  0  0  0  0
 18 20  1  0  0  0  0
 18 21  1  0  0  0  0
 22 23  2  0  0  0  0
 22 24  1  0  0  0  0
 24 25  1  0  0  0  0
 24 26  1  0  0  0  0
 26 27  1  0  0  0  0
 26 28  1  0  0  0  0
 26 29  1  0  0  0  0
M  END
$$$$

  -OEChem-01062216093D

 29 28  0     1  0  0  0  0  0999 V2000
   -3.5889   -3.0966    1.0063 H   0  0  0  0  0  0  0  0  0  0  0  0
   -3.5278   -2.0936    0.5743 C   0  0  0  0  0  0  0  0  0  0  0  0
   -4.0622   -1.3985    1.2263 H   0  0  0  0  0  0  0  0  0  0  0  0
   -4.0059   -2.1041   -0.4081 H   0  0  0  0  0  0  0  0  0  0  0  0
   -2.0772   -1.6703    0.4408 C   0  0  0  0  0  0  0  0  0  0  0  0
   -1.1930   -2.4654    0.7015 O   0  0  0  0  0  0  0  0  0  0  0  0
   -1.7816   -0.4054   -0.0316 N   0  0  0  0  0  0  0  0  0  0  0  0
   -2.5866    0.2014   -0.1589 H   0  0  0  0  0  0  0  0  0  0  0  0
   -0.4630    0.2616    0.0645 C   0  0  1  0  0  0  0  0  0  0  0  0
   -0.5954    1.2982   -0.2558 H   0  0  0  0  0  0  0  0  0  0  0  0
    0.0752    0.2871    1.5187 C   0  0  0  0  0  0  0  0  0  0  0  0
    0.1470   -0.7277    1.9192 H   0  0  0  0  0  0  0  0  0  0  0  0
    1.0911    0.6923    1.5197 H   0  0  0  0  0  0  0  0  0  0  0  0
   -0.7791    1.1511    2.4570 C   0  0  0  0  0  0  0  0  0  0  0  0
   -1.7967    0.7512    2.4951 H   0  0  0  0  0  0  0  0  0  0  0  0
   -0.3671    1.0940    3.4695 H   0  0  0  0  0  0  0  0  0  0  0  0
   -0.8431    2.9158    1.9346 S   0  0  0  0  0  0  0  0  0  0  0  0
    0.8715    3.4989    2.2473 C   0  0  0  0  0  0  0  0  0  0  0  0
    1.5797    2.9777    1.5967 H   0  0  0  0  0  0  0  0  0  0  0  0
    0.9437    4.5721    2.0479 H   0  0  0  0  0  0  0  0  0  0  0  0
    1.1507    3.3170    3.2895 H   0  0  0  0  0  0  0  0  0  0  0  0
    0.5585   -0.3201   -0.9458 C   0  0  0  0  0  0  0  0  0  0  0  0
    1.7500   -0.4133   -0.6763 O   0  0  0  0  0  0  0  0  0  0  0  0
    0.1602   -0.5462   -2.2514 N   0  0  0  0  0  0  0  0  0  0  0  0
   -0.8411   -0.5675   -2.4141 H   0  0  0  0  0  0  0  0  0  0  0  0
    1.0470   -1.1049   -3.2650 C   0  0  0  0  0  0  0  0  0  0  0  0
    1.3930   -2.0992   -2.9634 H   0  0  0  0  0  0  0  0  0  0  0  0
    0.5216   -1.1946   -4.2205 H   0  0  0  0  0  0  0  0  0  0  0  0
    1.9186   -0.4581   -3.4114 H   0  0  0  0  0  0  0  0  0  0  0  0
  1  2  1  0  0  0  0
  2  3  1  0  0  0  0
  2  4  1  0  0  0  0
  2  5  1  0  0  0  0
  5  6  2  0  0  0  0
  5  7  1  0  0  0  0
  7  8  1  0  0  0  0
  7  9  1  0  0  0  0
  9 10  1  0  0  0  0
  9 11  1  0  0  0  0
  9 22  1  0  0  0  0
 11 12  1  0  0  0  0
 11 13  1  0  0  0  0
 11 14  1  0  0  0  0
 14 15  1  0  0  0  0
 14 16  1  0  0  0  0
 14 17  1  0  0  0  0
 17 18  1  0  0  0  0
 18 19  1  0  0  0  0
 18 20  1  0  0  0  0
 18 21  1  0  0  0  0
 22 23  2  0  0  0  0
 22 24  1  0  0  0  0
 24 25  1  0  0  0  0
 24 26  1  0  0  0  0
 26 27  1  0  0  0  0
 26 28  1  0  0  0  0
 26 29  1  0  0  0  0
M  END
$$$$

  -OEChem-01062216093D

 29 28  0     1  0  0  0  0  0999 V2000
   -3.5996   -3.1057    0.9896 H   0  0  0  0  0  0  0  0  0  0  0  0
   -3.5311   -2.1058    0.5514 C   0  0  0  0  0  0  0  0  0  0  0  0
   -4.0850   -1.4075    1.1833 H   0  0  0  0  0  0  0  0  0  0  0  0
   -3.9827   -2.1262   -0.4433 H   0  0  0  0  0  0  0  0  0  0  0  0
   -2.0789   -1.6786    0.4533 C   0  0  0  0  0  0  0  0  0  0  0  0
   -1.2025   -2.4667    0.7562 O   0  0  0  0  0  0  0  0  0  0  0  0
   -1.7774   -0.4156   -0.0212 N   0  0  0  0  0  0  0  0  0  0  0  0
   -2.5818    0.1834   -0.1817 H   0  0  0  0  0  0  0  0  0  0  0  0
   -0.4606    0.2538    0.0704 C   0  0  1  0  0  0  0  0  0  0  0  0
   -0.5950    1.2900   -0.2500 H   0  0  0  0  0  0  0  0  0  0  0  0
    0.0835    0.2867    1.5216 C   0  0  0  0  0  0  0  0  0  0  0  0
    0.1583   -0.7260    1.9267 H   0  0  0  0  0  0  0  0  0  0  0  0
    1.0996    0.6918    1.5132 H   0  0  0  0  0  0  0  0  0  0  0  0
   -0.7695    1.1528    2.4587 C   0  0  0  0  0  0  0  0  0  0  0  0
   -1.7855    0.7494    2.5021 H   0  0  0  0  0  0  0  0  0  0  0  0
   -0.3544    1.1015    3.4703 H   0  0  0  0  0  0  0  0  0  0  0  0
   -0.8398    2.9148    1.9279 S   0  0  0  0  0  0  0  0  0  0  0  0
    0.8750    3.4995    2.2330 C   0  0  0  0  0  0  0  0  0  0  0  0
    1.5811    2.9743    1.5832 H   0  0  0  0  0  0  0  0  0  0  0  0
    0.9469    4.5716    2.0279 H   0  0  0  0  0  0  0  0  0  0  0  0
    1.1566    3.3228    3.2753 H   0  0  0  0  0  0  0  0  0  0  0  0
    0.5571   -0.3322   -0.9409 C   0  0  0  0  0  0  0  0  0  0  0  0
    1.6896   -0.6598   -0.6085 O   0  0  0  0  0  0  0  0  0  0  0  0
    0.2644   -0.2719   -2.2922 N   0  0  0  0  0  0  0  0  0  0  0  0
   -0.6975   -0.0660   -2.5403 H   0  0  0  0  0  0  0  0  0  0  0  0
    1.1653   -0.7705   -3.3248 C   0  0  0  0  0  0  0  0  0  0  0  0
    1.3504   -1.8411   -3.1868 H   0  0  0  0  0  0  0  0  0  0  0  0
    0.7263   -0.6189   -4.3155 H   0  0  0  0  0  0  0  0  0  0  0  0
    2.1228   -0.2402   -3.2879 H   0  0  0  0  0  0  0  0  0  0  0  0
  1  2  1  0  0  0  0
  2  3  1  0  0  0  0
  2  4  1  0  0  0  0
  2  5  1  0  0  0  0
  5  6  2  0  0  0  0
  5  7  1  0  0  0  0
  7  8  1  0  0  0  0
  7  9  1  0  0  0  0
  9 10  1  0  0  0  0
  9 11  1  0  0  0  0
  9 22  1  0  0  0  0
 11 12  1  0  0  0  0
 11 13  1  0  0  0  0
 11 14  1  0  0  0  0
 14 15  1  0  0  0  0
 14 16  1  0  0  0  0
 14 17  1  0  0  0  0
 17 18  1  0  0  0  0
 18 19  1  0  0  0  0
 18 20  1  0  0  0  0
 18 21  1  0  0  0  0
 22 23  2  0  0  0  0
 22 24  1  0  0  0  0
 24 25  1  0  0  0  0
 24 26  1  0  0  0  0
 26 27  1  0  0  0  0
 26 28  1  0  0  0  0
 26 29  1  0  0  0  0
M  END
$$$$

  -OEChem-01062216093D

 29 28  0     1  0  0  0  0  0999 V2000
   -3.6237   -3.1233    0.9526 H   0  0  0  0  0  0  0  0  0  0  0  0
   -3.5438   -2.1268    0.5089 C   0  0  0  0  0  0  0  0  0  0  0  0
   -4.1359   -1.4290    1.1057 H   0  0  0  0  0  0  0  0  0  0  0  0
   -3.9451   -2.1616   -0.5068 H   0  0  0  0  0  0  0  0  0  0  0  0
   -2.0926   -1.6853    0.4786 C   0  0  0  0  0  0  0  0  0  0  0  0
   -1.2289   -2.4605    0.8435 O   0  0  0  0  0  0  0  0  0  0  0  0
   -1.7842   -0.4245    0.0016 N   0  0  0  0  0  0  0  0  0  0  0  0
   -2.5859    0.1582   -0.2187 H   0  0  0  0  0  0  0  0  0  0  0  0
   -0.4690    0.2494    0.0790 C   0  0  1  0  0  0  0  0  0  0  0  0
   -0.6125    1.2856   -0.2370 H   0  0  0  0  0  0  0  0  0  0  0  0
    0.0976    0.2878    1.5206 C   0  0  0  0  0  0  0  0  0  0  0  0
    0.1830   -0.7232    1.9277 H   0  0  0  0  0  0  0  0  0  0  0  0
    1.1126    0.6945    1.4913 H   0  0  0  0  0  0  0  0  0  0  0  0
   -0.7437    1.1524    2.4692 C   0  0  0  0  0  0  0  0  0  0  0  0
   -1.7574    0.7447    2.5280 H   0  0  0  0  0  0  0  0  0  0  0  0
   -0.3132    1.1041    3.4745 H   0  0  0  0  0  0  0  0  0  0  0  0
   -0.8291    2.9136    1.9356 S   0  0  0  0  0  0  0  0  0  0  0  0
    0.8882    3.5057    2.2127 C   0  0  0  0  0  0  0  0  0  0  0  0
    1.5871    2.9813    1.5549 H   0  0  0  0  0  0  0  0  0  0  0  0
    0.9530    4.5775    2.0032 H   0  0  0  0  0  0  0  0  0  0  0  0
    1.1858    3.3339    3.2515 H   0  0  0  0  0  0  0  0  0  0  0  0
    0.5438   -0.3341   -0.9379 C   0  0  0  0  0  0  0  0  0  0  0  0
    1.5716   -0.8981   -0.5845 O   0  0  0  0  0  0  0  0  0  0  0  0
    0.4082   -0.0104   -2.2769 N   0  0  0  0  0  0  0  0  0  0  0  0
   -0.4589    0.4327   -2.5613 H   0  0  0  0  0  0  0  0  0  0  0  0
    1.3405   -0.4596   -3.3042 C   0  0  0  0  0  0  0  0  0  0  0  0
    1.3747   -1.5538   -3.3377 H   0  0  0  0  0  0  0  0  0  0  0  0
    1.0281   -0.0922   -4.2864 H   0  0  0  0  0  0  0  0  0  0  0  0
    2.3478   -0.0821   -3.0991 H   0  0  0  0  0  0  0  0  0  0  0  0
  1  2  1  0  0  0  0
  2  3  1  0  0  0  0
  2  4  1  0  0  0  0
  2  5  1  0  0  0  0
  5  6  2  0  0  0  0
  5  7  1  0  0  0  0
  7  8  1  0  0  0  0
  7  9  1  0  0  0  0
  9 10  1  0  0  0  0
  9 11  1  0  0  0  0
  9 22  1  0  0  0  0
 11 12  1  0  0  0  0
 11 13  1  0  0  0  0
 11 14  1  0  0  0  0
 14 15  1  0  0  0  0
 14 16  1  0  0  0  0
 14 17  1  0  0  0  0
 17 18  1  0  0  0  0
 18 19  1  0  0  0  0
 18 20  1  0  0  0  0
 18 21  1  0  0  0  0
 22 23  2  0  0  0  0
 22 24  1  0  0  0  0
 24 25  1  0  0  0  0
 24 26  1  0  0  0  0
 26 27  1  0  0  0  0
 26 28  1  0  0  0  0
 26 29  1  0  0  0  0
M  END
$$$$

  -OEChem-01062216093D

 29 28  0     1  0  0  0  0  0999 V2000
   -3.6546   -3.1540    0.8861 H   0  0  0  0  0  0  0  0  0  0  0  0
   -3.5580   -2.1580    0.4443 C   0  0  0  0  0  0  0  0  0  0  0  0
   -4.2058   -1.4681    0.9903 H   0  0  0  0  0  0  0  0  0  0  0  0
   -3.8795   -2.2044   -0.5988 H   0  0  0  0  0  0  0  0  0  0  0  0
   -2.1166   -1.6899    0.5218 C   0  0  0  0  0  0  0  0  0  0  0  0
   -1.2807   -2.4353    0.9962 O   0  0  0  0  0  0  0  0  0  0  0  0
   -1.7981   -0.4322    0.0410 N   0  0  0  0  0  0  0  0  0  0  0  0
   -2.5854    0.1119   -0.2973 H   0  0  0  0  0  0  0  0  0  0  0  0
   -0.4834    0.2456    0.0956 C   0  0  1  0  0  0  0  0  0  0  0  0
   -0.6416    1.2809   -0.2156 H   0  0  0  0  0  0  0  0  0  0  0  0
    0.1172    0.2912    1.5221 C   0  0  0  0  0  0  0  0  0  0  0  0
    0.2166   -0.7173    1.9318 H   0  0  0  0  0  0  0  0  0  0  0  0
    1.1303    0.6999    1.4652 H   0  0  0  0  0  0  0  0  0  0  0  0
   -0.7044    1.1559    2.4875 C   0  0  0  0  0  0  0  0  0  0  0  0
   -1.7151    0.7446    2.5702 H   0  0  0  0  0  0  0  0  0  0  0  0
   -0.2514    1.1123    3.4830 H   0  0  0  0  0  0  0  0  0  0  0  0
   -0.8086    2.9150    1.9495 S   0  0  0  0  0  0  0  0  0  0  0  0
    0.9124    3.5148    2.1833 C   0  0  0  0  0  0  0  0  0  0  0  0
    1.5972    2.9925    1.5090 H   0  0  0  0  0  0  0  0  0  0  0  0
    0.9667    4.5866    1.9705 H   0  0  0  0  0  0  0  0  0  0  0  0
    1.2359    3.3459    3.2147 H   0  0  0  0  0  0  0  0  0  0  0  0
    0.5232   -0.3314   -0.9309 C   0  0  0  0  0  0  0  0  0  0  0  0
    1.3953   -1.1290   -0.6139 O   0  0  0  0  0  0  0  0  0  0  0  0
    0.5782    0.2195   -2.2002 N   0  0  0  0  0  0  0  0  0  0  0  0
   -0.1342    0.8974   -2.4497 H   0  0  0  0  0  0  0  0  0  0  0  0
    1.5499   -0.1876   -3.2089 C   0  0  0  0  0  0  0  0  0  0  0  0
    1.4448   -1.2544   -3.4331 H   0  0  0  0  0  0  0  0  0  0  0  0
    1.3957    0.3771   -4.1333 H   0  0  0  0  0  0  0  0  0  0  0  0
    2.5699   -0.0010   -2.8566 H   0  0  0  0  0  0  0  0  0  0  0  0
  1  2  1  0  0  0  0
  2  3  1  0  0  0  0
  2  4  1  0  0  0  0
  2  5  1  0  0  0  0
  5  6  2  0  0  0  0
  5  7  1  0  0  0  0
  7  8  1  0  0  0  0
  7  9  1  0  0  0  0
  9 10  1  0  0  0  0
  9 11  1  0  0  0  0
  9 22  1  0  0  0  0
 11 12  1  0  0  0  0
 11 13  1  0  0  0  0
 11 14  1  0  0  0  0
 14 15  1  0  0  0  0
 14 16  1  0  0  0  0
 14 17  1  0  0  0  0
 17 18  1  0  0  0  0
 18 19  1  0  0  0  0
 18 20  1  0  0  0  0
 18 21  1  0  0  0  0
 22 23  2  0  0  0  0
 22 24  1  0  0  0  0
 24 25  1  0  0  0  0
 24 26  1  0  0  0  0
 26 27  1  0  0  0  0
 26 28  1  0  0  0  0
 26 29  1  0  0  0  0
M  END
$$$$

  -OEChem-01062216093D

 29 28  0     1  0  0  0  0  0999 V2000
   -3.6484   -3.1928    0.7861 H   0  0  0  0  0  0  0  0  0  0  0  0
   -3.5392   -2.2004    0.3393 C   0  0  0  0  0  0  0  0  0  0  0  0
   -4.2709   -1.5283    0.7939 H   0  0  0  0  0  0  0  0  0  0  0  0
   -3.7365   -2.2752   -0.7326 H   0  0  0  0  0  0  0  0  0  0  0  0
   -2.1350   -1.6743    0.5722 C   0  0  0  0  0  0  0  0  0  0  0  0
   -1.3515   -2.3607    1.2005 O   0  0  0  0  0  0  0  0  0  0  0  0
   -1.8123   -0.4181    0.0877 N   0  0  0  0  0  0  0  0  0  0  0  0
   -2.5618    0.0531   -0.4087 H   0  0  0  0  0  0  0  0  0  0  0  0
   -0.4981    0.2637    0.1238 C   0  0  1  0  0  0  0  0  0  0  0  0
   -0.6717    1.2984   -0.1797 H   0  0  0  0  0  0  0  0  0  0  0  0
    0.1438    0.3088    1.5308 C   0  0  0  0  0  0  0  0  0  0  0  0
    0.2658   -0.6985    1.9361 H   0  0  0  0  0  0  0  0  0  0  0  0
    1.1515    0.7248    1.4441 H   0  0  0  0  0  0  0  0  0  0  0  0
   -0.6558    1.1674    2.5196 C   0  0  0  0  0  0  0  0  0  0  0  0
   -1.6612    0.7484    2.6274 H   0  0  0  0  0  0  0  0  0  0  0  0
   -0.1770    1.1236    3.5029 H   0  0  0  0  0  0  0  0  0  0  0  0
   -0.7859    2.9275    1.9892 S   0  0  0  0  0  0  0  0  0  0  0  0
    0.9375    3.5362    2.1777 C   0  0  0  0  0  0  0  0  0  0  0  0
    1.6048    3.0261    1.4775 H   0  0  0  0  0  0  0  0  0  0  0  0
    0.9793    4.6108    1.9766 H   0  0  0  0  0  0  0  0  0  0  0  0
    1.2926    3.3579    3.1971 H   0  0  0  0  0  0  0  0  0  0  0  0
    0.5003   -0.3079   -0.9122 C   0  0  0  0  0  0  0  0  0  0  0  0
    1.1303   -1.3366   -0.7141 O   0  0  0  0  0  0  0  0  0  0  0  0
    0.7759    0.4155   -2.0605 N   0  0  0  0  0  0  0  0  0  0  0  0
    0.2757    1.2871   -2.2023 H   0  0  0  0  0  0  0  0  0  0  0  0
    1.7461   -0.0126   -3.0620 C   0  0  0  0  0  0  0  0  0  0  0  0
    1.4622   -0.9844   -3.4795 H   0  0  0  0  0  0  0  0  0  0  0  0
    1.7936    0.7137   -3.8790 H   0  0  0  0  0  0  0  0  0  0  0  0
    2.7435   -0.0984   -2.6179 H   0  0  0  0  0  0  0  0  0  0  0  0
  1  2  1  0  0  0  0
  2  3  1  0  0  0  0
  2  4  1  0  0  0  0
  2  5  1  0  0  0  0
  5  6  2  0  0  0  0
  5  7  1  0  0  0  0
  7  8  1  0  0  0  0
  7  9  1  0  0  0  0
  9 10  1  0  0  0  0
  9 11  1  0  0  0  0
  9 22  1  0  0  0  0
 11 12  1  0  0  0  0
 11 13  1  0  0  0  0
 11 14  1  0  0  0  0
 14 15  1  0  0  0  0
 14 16  1  0  0  0  0
 14 17  1  0  0  0  0
 17 18  1  0  0  0  0
 18 19  1  0  0  0  0
 18 20  1  0  0  0  0
 18 21  1  0  0  0  0
 22 23  2  0  0  0  0
 22 24  1  0  0  0  0
 24 25  1  0  0  0  0
 24 26  1  0  0  0  0
 26 27  1  0  0  0  0
 26 28  1  0  0  0  0
 26 29  1  0  0  0  0
M  END
$$$$

  -OEChem-01062216093D

 29 28  0     1  0  0  0  0  0999 V2000
   -3.5933   -3.2468    0.6676 H   0  0  0  0  0  0  0  0  0  0  0  0
   -3.4866   -2.2528    0.2237 C   0  0  0  0  0  0  0  0  0  0  0  0
   -4.3058   -1.6209    0.5745 H   0  0  0  0  0  0  0  0  0  0  0  0
   -3.5442   -2.3473   -0.8632 H   0  0  0  0  0  0  0  0  0  0  0  0
   -2.1546   -1.6437    0.6204 C   0  0  0  0  0  0  0  0  0  0  0  0
   -1.4464   -2.2519    1.4022 O   0  0  0  0  0  0  0  0  0  0  0  0
   -1.8348   -0.3875    0.1321 N   0  0  0  0  0  0  0  0  0  0  0  0
   -2.5152   -0.0121   -0.5206 H   0  0  0  0  0  0  0  0  0  0  0  0
   -0.5148    0.2846    0.1635 C   0  0  1  0  0  0  0  0  0  0  0  0
   -0.6919    1.3190   -0.1397 H   0  0  0  0  0  0  0  0  0  0  0  0
    0.1583    0.3281    1.5553 C   0  0  0  0  0  0  0  0  0  0  0  0
    0.2925   -0.6780    1.9585 H   0  0  0  0  0  0  0  0  0  0  0  0
    1.1635    0.7450    1.4462 H   0  0  0  0  0  0  0  0  0  0  0  0
   -0.6166    1.1908    2.5595 C   0  0  0  0  0  0  0  0  0  0  0  0
   -1.6217    0.7762    2.6866 H   0  0  0  0  0  0  0  0  0  0  0  0
   -0.1193    1.1456    3.5335 H   0  0  0  0  0  0  0  0  0  0  0  0
   -0.7504    2.9511    2.0285 S   0  0  0  0  0  0  0  0  0  0  0  0
    0.9766    3.5610    2.1770 C   0  0  0  0  0  0  0  0  0  0  0  0
    1.6304    3.0438    1.4693 H   0  0  0  0  0  0  0  0  0  0  0  0
    1.0136    4.6336    1.9642 H   0  0  0  0  0  0  0  0  0  0  0  0
    1.3512    3.3934    3.1911 H   0  0  0  0  0  0  0  0  0  0  0  0
    0.4747   -0.2913   -0.8770 C   0  0  0  0  0  0  0  0  0  0  0  0
    0.7738   -1.4761   -0.9051 O   0  0  0  0  0  0  0  0  0  0  0  0
    0.9953    0.5406   -1.8537 N   0  0  0  0  0  0  0  0  0  0  0  0
    0.7528    1.5258   -1.8141 H   0  0  0  0  0  0  0  0  0  0  0  0
    1.9305    0.0849   -2.8761 C   0  0  0  0  0  0  0  0  0  0  0  0
    1.4834   -0.7153   -3.4755 H   0  0  0  0  0  0  0  0  0  0  0  0
    2.1933    0.9107   -3.5441 H   0  0  0  0  0  0  0  0  0  0  0  0
    2.8489   -0.2928   -2.4143 H   0  0  0  0  0  0  0  0  0  0  0  0
  1  2  1  0  0  0  0
  2  3  1  0  0  0  0
  2  4  1  0  0  0  0
  2  5  1  0  0  0  0
  5  6  2  0  0  0  0
  5  7  1  0  0  0  0
  7  8  1  0  0  0  0
  7  9  1  0  0  0  0
  9 10  1  0  0  0  0
  9 11  1  0  0  0  0
  9 22  1  0  0  0  0
 11 12  1  0  0  0  0
 11 13  1  0  0  0  0
 11 14  1  0  0  0  0
 14 15  1  0  0  0  0
 14 16  1  0  0  0  0
 14 17  1  0  0  0  0
 17 18  1  0  0  0  0
 18 19  1  0  0  0  0
 18 20  1  0  0  0  0
 18 21  1  0  0  0  0
 22 23  2  0  0  0  0
 22 24  1  0  0  0  0
 24 25  1  0  0  0  0
 24 26  1  0  0  0  0
 26 27  1  0  0  0  0
 26 28  1  0  0  0  0
 26 29  1  0  0  0  0
M  END
$$$$

  -OEChem-01062216093D

 29 28  0     1  0  0  0  0  0999 V2000
   -3.5584   -3.2674    0.6322 H   0  0  0  0  0  0  0  0  0  0  0  0
   -3.4537   -2.2759    0.1824 C   0  0  0  0  0  0  0  0  0  0  0  0
   -4.3059   -1.6610    0.4811 H   0  0  0  0  0  0  0  0  0  0  0  0
   -3.4507   -2.3841   -0.9049 H   0  0  0  0  0  0  0  0  0  0  0  0
   -2.1601   -1.6281    0.6400 C   0  0  0  0  0  0  0  0  0  0  0  0
   -1.4772   -2.2079    1.4660 O   0  0  0  0  0  0  0  0  0  0  0  0
   -1.8418   -0.3725    0.1491 N   0  0  0  0  0  0  0  0  0  0  0  0
   -2.4871   -0.0366   -0.5585 H   0  0  0  0  0  0  0  0  0  0  0  0
   -0.5164    0.2893    0.1847 C   0  0  1  0  0  0  0  0  0  0  0  0
   -0.6885    1.3223   -0.1263 H   0  0  0  0  0  0  0  0  0  0  0  0
    0.1572    0.3370    1.5765 C   0  0  0  0  0  0  0  0  0  0  0  0
    0.2868   -0.6667    1.9865 H   0  0  0  0  0  0  0  0  0  0  0  0
    1.1646    0.7479    1.4658 H   0  0  0  0  0  0  0  0  0  0  0  0
   -0.6127    1.2115    2.5744 C   0  0  0  0  0  0  0  0  0  0  0  0
   -1.6205    0.8037    2.7038 H   0  0  0  0  0  0  0  0  0  0  0  0
   -0.1165    1.1696    3.5489 H   0  0  0  0  0  0  0  0  0  0  0  0
   -0.7346    2.9689    2.0318 S   0  0  0  0  0  0  0  0  0  0  0  0
    0.9960    3.5679    2.1779 C   0  0  0  0  0  0  0  0  0  0  0  0
    1.6480    3.0394    1.4770 H   0  0  0  0  0  0  0  0  0  0  0  0
    1.0405    4.6381    1.9549 H   0  0  0  0  0  0  0  0  0  0  0  0
    1.3667    3.4074    3.1947 H   0  0  0  0  0  0  0  0  0  0  0  0
    0.4735   -0.2928   -0.8527 C   0  0  0  0  0  0  0  0  0  0  0  0
    0.4986   -1.4841   -1.1301 O   0  0  0  0  0  0  0  0  0  0  0  0
    1.2376    0.5723   -1.6169 N   0  0  0  0  0  0  0  0  0  0  0  0
    1.1931    1.5623   -1.3954 H   0  0  0  0  0  0  0  0  0  0  0  0
    2.1480    0.1230   -2.6643 C   0  0  0  0  0  0  0  0  0  0  0  0
    1.6007   -0.4200   -3.4421 H   0  0  0  0  0  0  0  0  0  0  0  0
    2.6457    0.9803   -3.1276 H   0  0  0  0  0  0  0  0  0  0  0  0
    2.9145   -0.5384   -2.2466 H   0  0  0  0  0  0  0  0  0  0  0  0
  1  2  1  0  0  0  0
  2  3  1  0  0  0  0
  2  4  1  0  0  0  0
  2  5  1  0  0  0  0
  5  6  2  0  0  0  0
  5  7  1  0  0  0  0
  7  8  1  0  0  0  0
  7  9  1  0  0  0  0
  9 10  1  0  0  0  0
  9 11  1  0  0  0  0
  9 22  1  0  0  0  0
 11 12  1  0  0  0  0
 11 13  1  0  0  0  0
 11 14  1  0  0  0  0
 14 15  1  0  0  0  0
 14 16  1  0  0  0  0
 14 17  1  0  0  0  0
 17 18  1  0  0  0  0
 18 19  1  0  0  0  0
 18 20  1  0  0  0  0
 18 21  1  0  0  0  0
 22 23  2  0  0  0  0
 22 24  1  0  0  0  0
 24 25  1  0  0  0  0
 24 26  1  0  0  0  0
 26 27  1  0  0  0  0
 26 28  1  0  0  0  0
 26 29  1  0  0  0  0
M  END
$$$$

  -OEChem-01062216093D

 29 28  0     1  0  0  0  0  0999 V2000
   -3.5642   -3.2613    0.6453 H   0  0  0  0  0  0  0  0  0  0  0  0
   -3.4581   -2.2699    0.1957 C   0  0  0  0  0  0  0  0  0  0  0  0
   -4.3017   -1.6497    0.5070 H   0  0  0  0  0  0  0  0  0  0  0  0
   -3.4709   -2.3762   -0.8918 H   0  0  0  0  0  0  0  0  0  0  0  0
   -2.1540   -1.6319    0.6368 C   0  0  0  0  0  0  0  0  0  0  0  0
   -1.4527   -2.2259    1.4375 O   0  0  0  0  0  0  0  0  0  0  0  0
   -1.8358   -0.3759    0.1481 N   0  0  0  0  0  0  0  0  0  0  0  0
   -2.4728   -0.0447   -0.5693 H   0  0  0  0  0  0  0  0  0  0  0  0
   -0.5086    0.2815    0.1888 C   0  0  1  0  0  0  0  0  0  0  0  0
   -0.6757    1.3133   -0.1294 H   0  0  0  0  0  0  0  0  0  0  0  0
    0.1521    0.3341    1.5881 C   0  0  0  0  0  0  0  0  0  0  0  0
    0.2736   -0.6669    2.0064 H   0  0  0  0  0  0  0  0  0  0  0  0
    1.1619    0.7412    1.4877 H   0  0  0  0  0  0  0  0  0  0  0  0
   -0.6246    1.2174    2.5730 C   0  0  0  0  0  0  0  0  0  0  0  0
   -1.6357    0.8146    2.6931 H   0  0  0  0  0  0  0  0  0  0  0  0
   -0.1395    1.1791    3.5534 H   0  0  0  0  0  0  0  0  0  0  0  0
   -0.7343    2.9724    2.0202 S   0  0  0  0  0  0  0  0  0  0  0  0
    0.9963    3.5685    2.1800 C   0  0  0  0  0  0  0  0  0  0  0  0
    1.6538    3.0345    1.4887 H   0  0  0  0  0  0  0  0  0  0  0  0
    1.0464    4.6373    1.9513 H   0  0  0  0  0  0  0  0  0  0  0  0
    1.3566    3.4131    3.2013 H   0  0  0  0  0  0  0  0  0  0  0  0
    0.4843   -0.3010   -0.8467 C   0  0  0  0  0  0  0  0  0  0  0  0
    0.3161   -1.4010   -1.3574 O   0  0  0  0  0  0  0  0  0  0  0  0
    1.4653    0.5196   -1.3767 N   0  0  0  0  0  0  0  0  0  0  0  0
    1.5675    1.4487   -0.9804 H   0  0  0  0  0  0  0  0  0  0  0  0
    2.3842    0.0943   -2.4262 C   0  0  0  0  0  0  0  0  0  0  0  0
    1.8323   -0.1866   -3.3294 H   0  0  0  0  0  0  0  0  0  0  0  0
    3.0709    0.9072   -2.6805 H   0  0  0  0  0  0  0  0  0  0  0  0
    2.9742   -0.7658   -2.0924 H   0  0  0  0  0  0  0  0  0  0  0  0
  1  2  1  0  0  0  0
  2  3  1  0  0  0  0
  2  4  1  0  0  0  0
  2  5  1  0  0  0  0
  5  6  2  0  0  0  0
  5  7  1  0  0  0  0
  7  8  1  0  0  0  0
  7  9  1  0  0  0  0
  9 10  1  0  0  0  0
  9 11  1  0  0  0  0
  9 22  1  0  0  0  0
 11 12  1  0  0  0  0
 11 13  1  0  0  0  0
 11 14  1  0  0  0  0
 14 15  1  0  0  0  0
 14 16  1  0  0  0  0
 14 17  1  0  0  0  0
 17 18  1  0  0  0  0
 18 19  1  0  0  0  0
 18 20  1  0  0  0  0
 18 21  1  0  0  0  0
 22 23  2  0  0  0  0
 22 24  1  0  0  0  0
 24 25  1  0  0  0  0
 24 26  1  0  0  0  0
 26 27  1  0  0  0  0
 26 28  1  0  0  0  0
 26 29  1  0  0  0  0
M  END
$$$$

  -OEChem-01062216093D

 29 28  0     1  0  0  0  0  0999 V2000
   -3.5575   -3.2578    0.6452 H   0  0  0  0  0  0  0  0  0  0  0  0
   -3.4541   -2.2633    0.2022 C   0  0  0  0  0  0  0  0  0  0  0  0
   -4.2928   -1.6434    0.5271 H   0  0  0  0  0  0  0  0  0  0  0  0
   -3.4790   -2.3605   -0.8860 H   0  0  0  0  0  0  0  0  0  0  0  0
   -2.1435   -1.6317    0.6329 C   0  0  0  0  0  0  0  0  0  0  0  0
   -1.4200   -2.2442    1.3998 O   0  0  0  0  0  0  0  0  0  0  0  0
   -1.8267   -0.3735    0.1503 N   0  0  0  0  0  0  0  0  0  0  0  0
   -2.4613   -0.0403   -0.5688 H   0  0  0  0  0  0  0  0  0  0  0  0
   -0.4995    0.2830    0.1952 C   0  0  1  0  0  0  0  0  0  0  0  0
   -0.6598    1.3147   -0.1267 H   0  0  0  0  0  0  0  0  0  0  0  0
    0.1461    0.3372    1.6035 C   0  0  0  0  0  0  0  0  0  0  0  0
    0.2603   -0.6627    2.0261 H   0  0  0  0  0  0  0  0  0  0  0  0
    1.1571    0.7432    1.5187 H   0  0  0  0  0  0  0  0  0  0  0  0
   -0.6405    1.2238    2.5778 C   0  0  0  0  0  0  0  0  0  0  0  0
   -1.6538    0.8234    2.6865 H   0  0  0  0  0  0  0  0  0  0  0  0
   -0.1669    1.1866    3.5639 H   0  0  0  0  0  0  0  0  0  0  0  0
   -0.7416    2.9781    2.0217 S   0  0  0  0  0  0  0  0  0  0  0  0
    0.9864    3.5764    2.1987 C   0  0  0  0  0  0  0  0  0  0  0  0
    1.6513    3.0452    1.5124 H   0  0  0  0  0  0  0  0  0  0  0  0
    1.0359    4.6457    1.9720 H   0  0  0  0  0  0  0  0  0  0  0  0
    1.3376    3.4207    3.2231 H   0  0  0  0  0  0  0  0  0  0  0  0
    0.4876   -0.3025   -0.8460 C   0  0  0  0  0  0  0  0  0  0  0  0
    0.1796   -1.2522   -1.5564 O   0  0  0  0  0  0  0  0  0  0  0  0
    1.6486    0.3869   -1.1522 N   0  0  0  0  0  0  0  0  0  0  0  0
    1.8722    1.2037   -0.5926 H   0  0  0  0  0  0  0  0  0  0  0  0
    2.5817   -0.0345   -2.1910 C   0  0  0  0  0  0  0  0  0  0  0  0
    2.0855   -0.0577   -3.1670 H   0  0  0  0  0  0  0  0  0  0  0  0
    3.4238    0.6617   -2.2491 H   0  0  0  0  0  0  0  0  0  0  0  0
    2.9729   -1.0334   -1.9712 H   0  0  0  0  0  0  0  0  0  0  0  0
  1  2  1  0  0  0  0
  2  3  1  0  0  0  0
  2  4  1  0  0  0  0
  2  5  1  0  0  0  0
  5  6  2  0  0  0  0
  5  7  1  0  0  0  0
  7  8  1  0  0  0  0
  7  9  1  0  0  0  0
  9 10  1  0  0  0  0
  9 11  1  0  0  0  0
  9 22  1  0  0  0  0
 11 12  1  0  0  0  0
 11 13  1  0  0  0  0
 11 14  1  0  0  0  0
 14 15  1  0  0  0  0
 14 16  1  0  0  0  0
 14 17  1  0  0  0  0
 17 18  1  0  0  0  0
 18 19  1  0  0  0  0
 18 20  1  0  0  0  0
 18 21  1  0  0  0  0
 22 23  2  0  0  0  0
 22 24  1  0  0  0  0
 24 25  1  0  0  0  0
 24 26  1  0  0  0  0
 26 27  1  0  0  0  0
 26 28  1  0  0  0  0
 26 29  1  0  0  0  0
M  END
$$$$

  -OEChem-01062216093D

 29 28  0     1  0  0  0  0  0999 V2000
   -3.6253   -3.2188    0.5672 H   0  0  0  0  0  0  0  0  0  0  0  0
   -3.4842   -2.2177    0.1499 C   0  0  0  0  0  0  0  0  0  0  0  0
   -4.3037   -1.5776    0.4851 H   0  0  0  0  0  0  0  0  0  0  0  0
   -3.5054   -2.2864   -0.9406 H   0  0  0  0  0  0  0  0  0  0  0  0
   -2.1562   -1.6418    0.6053 C   0  0  0  0  0  0  0  0  0  0  0  0
   -1.4635   -2.3014    1.3611 O   0  0  0  0  0  0  0  0  0  0  0  0
   -1.7985   -0.3845    0.1506 N   0  0  0  0  0  0  0  0  0  0  0  0
   -2.4126   -0.0404   -0.5823 H   0  0  0  0  0  0  0  0  0  0  0  0
   -0.4718    0.2776    0.2061 C   0  0  1  0  0  0  0  0  0  0  0  0
   -0.6594    1.3533    0.1582 H   0  0  0  0  0  0  0  0  0  0  0  0
    0.3596    0.0176    1.4903 C   0  0  0  0  0  0  0  0  0  0  0  0
    0.5461   -1.0490    1.6318 H   0  0  0  0  0  0  0  0  0  0  0  0
    1.3440    0.4782    1.3824 H   0  0  0  0  0  0  0  0  0  0  0  0
   -0.2914    0.6178    2.7442 C   0  0  0  0  0  0  0  0  0  0  0  0
   -1.2788    0.1665    2.8862 H   0  0  0  0  0  0  0  0  0  0  0  0
    0.3114    0.3629    3.6212 H   0  0  0  0  0  0  0  0  0  0  0  0
   -0.4750    2.4490    2.6480 S   0  0  0  0  0  0  0  0  0  0  0  0
    1.2569    3.0548    2.7373 C   0  0  0  0  0  0  0  0  0  0  0  0
    1.8242    2.7325    1.8602 H   0  0  0  0  0  0  0  0  0  0  0  0
    1.2676    4.1482    2.7749 H   0  0  0  0  0  0  0  0  0  0  0  0
    1.7465    2.6702    3.6371 H   0  0  0  0  0  0  0  0  0  0  0  0
    0.3530   -0.0431   -1.0672 C   0  0  0  0  0  0  0  0  0  0  0  0
   -0.1623   -0.6276   -2.0141 O   0  0  0  0  0  0  0  0  0  0  0  0
    1.6285    0.4688   -1.2351 N   0  0  0  0  0  0  0  0  0  0  0  0
    2.0417    0.9662   -0.4527 H   0  0  0  0  0  0  0  0  0  0  0  0
    2.4311    0.2476   -2.4329 C   0  0  0  0  0  0  0  0  0  0  0  0
    1.9245    0.6531   -3.3151 H   0  0  0  0  0  0  0  0  0  0  0  0
    3.4020    0.7426   -2.3352 H   0  0  0  0  0  0  0  0  0  0  0  0
    2.6025   -0.8231   -2.5864 H   0  0  0  0  0  0  0  0  0  0  0  0
  1  2  1  0  0  0  0
  2  3  1  0  0  0  0
  2  4  1  0  0  0  0
  2  5  1  0  0  0  0
  5  6  2  0  0  0  0
  5  7  1  0  0  0  0
  7  8  1  0  0  0  0
  7  9  1  0  0  0  0
  9 10  1  0  0  0  0
  9 11  1  0  0  0  0
  9 22  1  0  0  0  0
 11 12  1  0  0  0  0
 11 13  1  0  0  0  0
 11 14  1  0  0  0  0
 14 15  1  0  0  0  0
 14 16  1  0  0  0  0
 14 17  1  0  0  0  0
 17 18  1  0  0  0  0
 18 19  1  0  0  0  0
 18 20  1  0  0  0  0
 18 21  1  0  0  0  0
 22 23  2  0  0  0  0
 22 24  1  0  0  0  0
 24 25  1  0  0  0  0
 24 26  1  0  0  0  0
 26 27  1  0  0  0  0
 26 28  1  0  0  0  0
 26 29  1  0  0  0  0
M  END
$$$$

  -OEChem-01062216093D

 29 28  0     1  0  0  0  0  0999 V2000
   -3.6174   -3.2123    0.5615 H   0  0  0  0  0  0  0  0  0  0  0  0
   -3.4757   -2.2075    0.1533 C   0  0  0  0  0  0  0  0  0  0  0  0
   -4.2807   -1.5637    0.5155 H   0  0  0  0  0  0  0  0  0  0  0  0
   -3.5229   -2.2617   -0.9372 H   0  0  0  0  0  0  0  0  0  0  0  0
   -2.1321   -1.6504    0.5848 C   0  0  0  0  0  0  0  0  0  0  0  0
   -1.4158   -2.3350    1.2948 O   0  0  0  0  0  0  0  0  0  0  0  0
   -1.7755   -0.3879    0.1462 N   0  0  0  0  0  0  0  0  0  0  0  0
   -2.3974   -0.0218   -0.5699 H   0  0  0  0  0  0  0  0  0  0  0  0
   -0.4531    0.2792    0.2169 C   0  0  1  0  0  0  0  0  0  0  0  0
   -0.6423    1.3547    0.1675 H   0  0  0  0  0  0  0  0  0  0  0  0
    0.3598    0.0253    1.5151 C   0  0  0  0  0  0  0  0  0  0  0  0
    0.5505   -1.0395    1.6629 H   0  0  0  0  0  0  0  0  0  0  0  0
    1.3410    0.4956    1.4244 H   0  0  0  0  0  0  0  0  0  0  0  0
   -0.3116    0.6265    2.7576 C   0  0  0  0  0  0  0  0  0  0  0  0
   -1.2999    0.1727    2.8855 H   0  0  0  0  0  0  0  0  0  0  0  0
    0.2786    0.3761    3.6446 H   0  0  0  0  0  0  0  0  0  0  0  0
   -0.4995    2.4566    2.6531 S   0  0  0  0  0  0  0  0  0  0  0  0
    1.2285    3.0693    2.7654 C   0  0  0  0  0  0  0  0  0  0  0  0
    1.8075    2.7520    1.8940 H   0  0  0  0  0  0  0  0  0  0  0  0
    1.2339    4.1627    2.8055 H   0  0  0  0  0  0  0  0  0  0  0  0
    1.7089    2.6840    3.6697 H   0  0  0  0  0  0  0  0  0  0  0  0
    0.3676   -0.0360   -1.0614 C   0  0  0  0  0  0  0  0  0  0  0  0
   -0.2081   -0.3802   -2.0884 O   0  0  0  0  0  0  0  0  0  0  0  0
    1.7309    0.1971   -1.1278 N   0  0  0  0  0  0  0  0  0  0  0  0
    2.2039    0.4519   -0.2669 H   0  0  0  0  0  0  0  0  0  0  0  0
    2.5319   -0.0695   -2.3169 C   0  0  0  0  0  0  0  0  0  0  0  0
    2.1716    0.5251   -3.1631 H   0  0  0  0  0  0  0  0  0  0  0  0
    3.5791    0.1903   -2.1346 H   0  0  0  0  0  0  0  0  0  0  0  0
    2.4797   -1.1303   -2.5841 H   0  0  0  0  0  0  0  0  0  0  0  0
  1  2  1  0  0  0  0
  2  3  1  0  0  0  0
  2  4  1  0  0  0  0
  2  5  1  0  0  0  0
  5  6  2  0  0  0  0
  5  7  1  0  0  0  0
  7  8  1  0  0  0  0
  7  9  1  0  0  0  0
  9 10  1  0  0  0  0
  9 11  1  0  0  0  0
  9 22  1  0  0  0  0
 11 12  1  0  0  0  0
 11 13  1  0  0  0  0
 11 14  1  0  0  0  0
 14 15  1  0  0  0  0
 14 16  1  0  0  0  0
 14 17  1  0  0  0  0
 17 18  1  0  0  0  0
 18 19  1  0  0  0  0
 18 20  1  0  0  0  0
 18 21  1  0  0  0  0
 22 23  2  0  0  0  0
 22 24  1  0  0  0  0
 24 25  1  0  0  0  0
 24 26  1  0  0  0  0
 26 27  1  0  0  0  0
 26 28  1  0  0  0  0
 26 29  1  0  0  0  0
M  END
$$$$

  -OEChem-01062216093D

 29 28  0     1  0  0  0  0  0999 V2000
   -3.6105   -3.2058    0.5635 H   0  0  0  0  0  0  0  0  0  0  0  0
   -3.4731   -2.1964    0.1657 C   0  0  0  0  0  0  0  0  0  0  0  0
   -4.2596   -1.5510    0.5640 H   0  0  0  0  0  0  0  0  0  0  0  0
   -3.5567   -2.2338   -0.9233 H   0  0  0  0  0  0  0  0  0  0  0  0
   -2.1110   -1.6580    0.5612 C   0  0  0  0  0  0  0  0  0  0  0  0
   -1.3702   -2.3650    1.2226 O   0  0  0  0  0  0  0  0  0  0  0  0
   -1.7539   -0.3923    0.1338 N   0  0  0  0  0  0  0  0  0  0  0  0
   -2.3899    0.0030   -0.5542 H   0  0  0  0  0  0  0  0  0  0  0  0
   -0.4351    0.2768    0.2222 C   0  0  1  0  0  0  0  0  0  0  0  0
   -0.6239    1.3520    0.1681 H   0  0  0  0  0  0  0  0  0  0  0  0
    0.3591    0.0316    1.5337 C   0  0  0  0  0  0  0  0  0  0  0  0
    0.5511   -1.0314    1.6917 H   0  0  0  0  0  0  0  0  0  0  0  0
    1.3386    0.5078    1.4523 H   0  0  0  0  0  0  0  0  0  0  0  0
   -0.3311    0.6370    2.7640 C   0  0  0  0  0  0  0  0  0  0  0  0
   -1.3194    0.1808    2.8813 H   0  0  0  0  0  0  0  0  0  0  0  0
    0.2481    0.3938    3.6603 H   0  0  0  0  0  0  0  0  0  0  0  0
   -0.5222    2.4660    2.6489 S   0  0  0  0  0  0  0  0  0  0  0  0
    1.2037    3.0809    2.7824 C   0  0  0  0  0  0  0  0  0  0  0  0
    1.7941    2.7592    1.9202 H   0  0  0  0  0  0  0  0  0  0  0  0
    1.2080    4.1745    2.8166 H   0  0  0  0  0  0  0  0  0  0  0  0
    1.6727    2.7009    3.6951 H   0  0  0  0  0  0  0  0  0  0  0  0
    0.3885   -0.0367   -1.0533 C   0  0  0  0  0  0  0  0  0  0  0  0
   -0.1892   -0.1363   -2.1305 O   0  0  0  0  0  0  0  0  0  0  0  0
    1.7716   -0.1035   -1.0431 N   0  0  0  0  0  0  0  0  0  0  0  0
    2.2275   -0.1120   -0.1364 H   0  0  0  0  0  0  0  0  0  0  0  0
    2.5646   -0.4120   -2.2274 C   0  0  0  0  0  0  0  0  0  0  0  0
    2.3780    0.3237   -3.0170 H   0  0  0  0  0  0  0  0  0  0  0  0
    3.6313   -0.3916   -1.9843 H   0  0  0  0  0  0  0  0  0  0  0  0
    2.3139   -1.4082   -2.6071 H   0  0  0  0  0  0  0  0  0  0  0  0
  1  2  1  0  0  0  0
  2  3  1  0  0  0  0
  2  4  1  0  0  0  0
  2  5  1  0  0  0  0
  5  6  2  0  0  0  0
  5  7  1  0  0  0  0
  7  8  1  0  0  0  0
  7  9  1  0  0  0  0
  9 10  1  0  0  0  0
  9 11  1  0  0  0  0
  9 22  1  0  0  0  0
 11 12  1  0  0  0  0
 11 13  1  0  0  0  0
 11 14  1  0  0  0  0
 14 15  1  0  0  0  0
 14 16  1  0  0  0  0
 14 17  1  0  0  0  0
 17 18  1  0  0  0  0
 18 19  1  0  0  0  0
 18 20  1  0  0  0  0
 18 21  1  0  0  0  0
 22 23  2  0  0  0  0
 22 24  1  0  0  0  0
 24 25  1  0  0  0  0
 24 26  1  0  0  0  0
 26 27  1  0  0  0  0
 26 28  1  0  0  0  0
 26 29  1  0  0  0  0
M  END
$$$$

  -OEChem-01062216093D

 29 28  0     1  0  0  0  0  0999 V2000
   -3.6192   -3.1921    0.5874 H   0  0  0  0  0  0  0  0  0  0  0  0
   -3.4811   -2.1822    0.1907 C   0  0  0  0  0  0  0  0  0  0  0  0
   -4.2399   -1.5271    0.6253 H   0  0  0  0  0  0  0  0  0  0  0  0
   -3.6101   -2.2101   -0.8941 H   0  0  0  0  0  0  0  0  0  0  0  0
   -2.0953   -1.6685    0.5339 C   0  0  0  0  0  0  0  0  0  0  0  0
   -1.3285   -2.3988    1.1381 O   0  0  0  0  0  0  0  0  0  0  0  0
   -1.7373   -0.4007    0.1153 N   0  0  0  0  0  0  0  0  0  0  0  0
   -2.3983    0.0332   -0.5243 H   0  0  0  0  0  0  0  0  0  0  0  0
   -0.4217    0.2694    0.2188 C   0  0  1  0  0  0  0  0  0  0  0  0
   -0.6130    1.3443    0.1630 H   0  0  0  0  0  0  0  0  0  0  0  0
    0.3597    0.0309    1.5389 C   0  0  0  0  0  0  0  0  0  0  0  0
    0.5482   -1.0315    1.7061 H   0  0  0  0  0  0  0  0  0  0  0  0
    1.3403    0.5074    1.4587 H   0  0  0  0  0  0  0  0  0  0  0  0
   -0.3429    0.6393    2.7604 C   0  0  0  0  0  0  0  0  0  0  0  0
   -1.3314    0.1815    2.8693 H   0  0  0  0  0  0  0  0  0  0  0  0
    0.2288    0.4003    3.6626 H   0  0  0  0  0  0  0  0  0  0  0  0
   -0.5370    2.4675    2.6381 S   0  0  0  0  0  0  0  0  0  0  0  0
    1.1862    3.0877    2.7857 C   0  0  0  0  0  0  0  0  0  0  0  0
    1.7871    2.7602    1.9329 H   0  0  0  0  0  0  0  0  0  0  0  0
    1.1881    4.1815    2.8110 H   0  0  0  0  0  0  0  0  0  0  0  0
    1.6455    2.7159    3.7065 H   0  0  0  0  0  0  0  0  0  0  0  0
    0.4114   -0.0387   -1.0490 C   0  0  0  0  0  0  0  0  0  0  0  0
   -0.1121    0.0913   -2.1497 O   0  0  0  0  0  0  0  0  0  0  0  0
    1.7454   -0.4035   -0.9867 N   0  0  0  0  0  0  0  0  0  0  0  0
    2.1118   -0.6392   -0.0694 H   0  0  0  0  0  0  0  0  0  0  0  0
    2.5306   -0.7566   -2.1636 C   0  0  0  0  0  0  0  0  0  0  0  0
    2.5459    0.0728   -2.8785 H   0  0  0  0  0  0  0  0  0  0  0  0
    3.5623   -0.9806   -1.8758 H   0  0  0  0  0  0  0  0  0  0  0  0
    2.1079   -1.6386   -2.6562 H   0  0  0  0  0  0  0  0  0  0  0  0
  1  2  1  0  0  0  0
  2  3  1  0  0  0  0
  2  4  1  0  0  0  0
  2  5  1  0  0  0  0
  5  6  2  0  0  0  0
  5  7  1  0  0  0  0
  7  8  1  0  0  0  0
  7  9  1  0  0  0  0
  9 10  1  0  0  0  0
  9 11  1  0  0  0  0
  9 22  1  0  0  0  0
 11 12  1  0  0  0  0
 11 13  1  0  0  0  0
 11 14  1  0  0  0  0
 14 15  1  0  0  0  0
 14 16  1  0  0  0  0
 14 17  1  0  0  0  0
 17 18  1  0  0  0  0
 18 19  1  0  0  0  0
 18 20  1  0  0  0  0
 18 21  1  0  0  0  0
 22 23  2  0  0  0  0
 22 24  1  0  0  0  0
 24 25  1  0  0  0  0
 24 26  1  0  0  0  0
 26 27  1  0  0  0  0
 26 28  1  0  0  0  0
 26 29  1  0  0  0  0
M  END
$$$$

  -OEChem-01062216093D

 29 28  0     1  0  0  0  0  0999 V2000
   -3.6296   -3.1719    0.6336 H   0  0  0  0  0  0  0  0  0  0  0  0
   -3.4926   -2.1647    0.2301 C   0  0  0  0  0  0  0  0  0  0  0  0
   -4.2179   -1.4968    0.7010 H   0  0  0  0  0  0  0  0  0  0  0  0
   -3.6744   -2.1897   -0.8471 H   0  0  0  0  0  0  0  0  0  0  0  0
   -2.0823   -1.6772    0.5049 C   0  0  0  0  0  0  0  0  0  0  0  0
   -1.2888   -2.4320    1.0409 O   0  0  0  0  0  0  0  0  0  0  0  0
   -1.7233   -0.4089    0.0893 N   0  0  0  0  0  0  0  0  0  0  0  0
   -2.4174    0.0718   -0.4772 H   0  0  0  0  0  0  0  0  0  0  0  0
   -0.4097    0.2603    0.2069 C   0  0  1  0  0  0  0  0  0  0  0  0
   -0.6008    1.3354    0.1475 H   0  0  0  0  0  0  0  0  0  0  0  0
    0.3581    0.0257    1.5346 C   0  0  0  0  0  0  0  0  0  0  0  0
    0.5392   -1.0365    1.7100 H   0  0  0  0  0  0  0  0  0  0  0  0
    1.3425    0.4958    1.4566 H   0  0  0  0  0  0  0  0  0  0  0  0
   -0.3561    0.6371    2.7478 C   0  0  0  0  0  0  0  0  0  0  0  0
   -1.3456    0.1800    2.8486 H   0  0  0  0  0  0  0  0  0  0  0  0
    0.2070    0.4005    3.6559 H   0  0  0  0  0  0  0  0  0  0  0  0
   -0.5494    2.4644    2.6192 S   0  0  0  0  0  0  0  0  0  0  0  0
    1.1721    3.0853    2.7815 C   0  0  0  0  0  0  0  0  0  0  0  0
    1.7831    2.7508    1.9385 H   0  0  0  0  0  0  0  0  0  0  0  0
    1.1742    4.1794    2.7979 H   0  0  0  0  0  0  0  0  0  0  0  0
    1.6208    2.7210    3.7104 H   0  0  0  0  0  0  0  0  0  0  0  0
    0.4381   -0.0456   -1.0482 C   0  0  0  0  0  0  0  0  0  0  0  0
    0.0226    0.3055   -2.1460 O   0  0  0  0  0  0  0  0  0  0  0  0
    1.6579   -0.6939   -0.9667 N   0  0  0  0  0  0  0  0  0  0  0  0
    1.8807   -1.1260   -0.0745 H   0  0  0  0  0  0  0  0  0  0  0  0
    2.4295   -1.0815   -2.1411 C   0  0  0  0  0  0  0  0  0  0  0  0
    2.6596   -0.2046   -2.7554 H   0  0  0  0  0  0  0  0  0  0  0  0
    3.3730   -1.5449   -1.8373 H   0  0  0  0  0  0  0  0  0  0  0  0
    1.8684   -1.7996   -2.7482 H   0  0  0  0  0  0  0  0  0  0  0  0
  1  2  1  0  0  0  0
  2  3  1  0  0  0  0
  2  4  1  0  0  0  0
  2  5  1  0  0  0  0
  5  6  2  0  0  0  0
  5  7  1  0  0  0  0
  7  8  1  0  0  0  0
  7  9  1  0  0  0  0
  9 10  1  0  0  0  0
  9 11  1  0  0  0  0
  9 22  1  0  0  0  0
 11 12  1  0  0  0  0
 11 13  1  0  0  0  0
 11 14  1  0  0  0  0
 14 15  1  0  0  0  0
 14 16  1  0  0  0  0
 14 17  1  0  0  0  0
 17 18  1  0  0  0  0
 18 19  1  0  0  0  0
 18 20  1  0  0  0  0
 18 21  1  0  0  0  0
 22 23  2  0  0  0  0
 22 24  1  0  0  0  0
 24 25  1  0  0  0  0
 24 26  1  0  0  0  0
 26 27  1  0  0  0  0
 26 28  1  0  0  0  0
 26 29  1  0  0  0  0
M  END
$$$$

  -OEChem-01062216093D

 29 28  0     1  0  0  0  0  0999 V2000
   -3.6305   -3.1476    0.7011 H   0  0  0  0  0  0  0  0  0  0  0  0
   -3.5008   -2.1450    0.2841 C   0  0  0  0  0  0  0  0  0  0  0  0
   -4.1833   -1.4616    0.7950 H   0  0  0  0  0  0  0  0  0  0  0  0
   -3.7493   -2.1712   -0.7796 H   0  0  0  0  0  0  0  0  0  0  0  0
   -2.0679   -1.6825    0.4693 C   0  0  0  0  0  0  0  0  0  0  0  0
   -1.2440   -2.4607    0.9203 O   0  0  0  0  0  0  0  0  0  0  0  0
   -1.7133   -0.4139    0.0527 N   0  0  0  0  0  0  0  0  0  0  0  0
   -2.4423    0.1130   -0.4210 H   0  0  0  0  0  0  0  0  0  0  0  0
   -0.4014    0.2531    0.1864 C   0  0  1  0  0  0  0  0  0  0  0  0
   -0.5913    1.3286    0.1253 H   0  0  0  0  0  0  0  0  0  0  0  0
    0.3529    0.0191    1.5212 C   0  0  0  0  0  0  0  0  0  0  0  0
    0.5282   -1.0428    1.7027 H   0  0  0  0  0  0  0  0  0  0  0  0
    1.3404    0.4836    1.4467 H   0  0  0  0  0  0  0  0  0  0  0  0
   -0.3715    0.6311    2.7282 C   0  0  0  0  0  0  0  0  0  0  0  0
   -1.3619    0.1746    2.8217 H   0  0  0  0  0  0  0  0  0  0  0  0
    0.1847    0.3951    3.6406 H   0  0  0  0  0  0  0  0  0  0  0  0
   -0.5628    2.4584    2.5989 S   0  0  0  0  0  0  0  0  0  0  0  0
    1.1587    3.0750    2.7764 C   0  0  0  0  0  0  0  0  0  0  0  0
    1.7762    2.7377    1.9391 H   0  0  0  0  0  0  0  0  0  0  0  0
    1.1635    4.1690    2.7915 H   0  0  0  0  0  0  0  0  0  0  0  0
    1.5980    2.7105    3.7097 H   0  0  0  0  0  0  0  0  0  0  0  0
    0.4633   -0.0547   -1.0539 C   0  0  0  0  0  0  0  0  0  0  0  0
    0.2145    0.5053   -2.1142 O   0  0  0  0  0  0  0  0  0  0  0  0
    1.5090   -0.9577   -0.9900 N   0  0  0  0  0  0  0  0  0  0  0  0
    1.5333   -1.5502   -0.1634 H   0  0  0  0  0  0  0  0  0  0  0  0
    2.2675   -1.3715   -2.1639 C   0  0  0  0  0  0  0  0  0  0  0  0
    2.7200   -0.5030   -2.6539 H   0  0  0  0  0  0  0  0  0  0  0  0
    3.0687   -2.0576   -1.8734 H   0  0  0  0  0  0  0  0  0  0  0  0
    1.6156   -1.8810   -2.8812 H   0  0  0  0  0  0  0  0  0  0  0  0
  1  2  1  0  0  0  0
  2  3  1  0  0  0  0
  2  4  1  0  0  0  0
  2  5  1  0  0  0  0
  5  6  2  0  0  0  0
  5  7  1  0  0  0  0
  7  8  1  0  0  0  0
  7  9  1  0  0  0  0
  9 10  1  0  0  0  0
  9 11  1  0  0  0  0
  9 22  1  0  0  0  0
 11 12  1  0  0  0  0
 11 13  1  0  0  0  0
 11 14  1  0  0  0  0
 14 15  1  0  0  0  0
 14 16  1  0  0  0  0
 14 17  1  0  0  0  0
 17 18  1  0  0  0  0
 18 19  1  0  0  0  0
 18 20  1  0  0  0  0
 18 21  1  0  0  0  0
 22 23  2  0  0  0  0
 22 24  1  0  0  0  0
 24 25  1  0  0  0  0
 24 26  1  0  0  0  0
 26 27  1  0  0  0  0
 26 28  1  0  0  0  0
 26 29  1  0  0  0  0
M  END
$$$$

  -OEChem-01062216093D

 29 28  0     1  0  0  0  0  0999 V2000
   -3.6191   -3.1195    0.7832 H   0  0  0  0  0  0  0  0  0  0  0  0
   -3.5033   -2.1223    0.3496 C   0  0  0  0  0  0  0  0  0  0  0  0
   -4.1370   -1.4239    0.9015 H   0  0  0  0  0  0  0  0  0  0  0  0
   -3.8269   -2.1517   -0.6937 H   0  0  0  0  0  0  0  0  0  0  0  0
   -2.0536   -1.6828    0.4293 C   0  0  0  0  0  0  0  0  0  0  0  0
   -1.2013   -2.4826    0.7808 O   0  0  0  0  0  0  0  0  0  0  0  0
   -1.7078   -0.4139    0.0080 N   0  0  0  0  0  0  0  0  0  0  0  0
   -2.4687    0.1552   -0.3531 H   0  0  0  0  0  0  0  0  0  0  0  0
   -0.3968    0.2505    0.1585 C   0  0  1  0  0  0  0  0  0  0  0  0
   -0.5822    1.3270    0.0963 H   0  0  0  0  0  0  0  0  0  0  0  0
    0.3466    0.0100    1.4972 C   0  0  0  0  0  0  0  0  0  0  0  0
    0.5184   -1.0529    1.6762 H   0  0  0  0  0  0  0  0  0  0  0  0
    1.3362    0.4720    1.4300 H   0  0  0  0  0  0  0  0  0  0  0  0
   -0.3873    0.6167    2.7012 C   0  0  0  0  0  0  0  0  0  0  0  0
   -1.3784    0.1600    2.7854 H   0  0  0  0  0  0  0  0  0  0  0  0
    0.1621    0.3767    3.6169 H   0  0  0  0  0  0  0  0  0  0  0  0
   -0.5774    2.4443    2.5781 S   0  0  0  0  0  0  0  0  0  0  0  0
    1.1432    3.0587    2.7721 C   0  0  0  0  0  0  0  0  0  0  0  0
    1.7661    2.7297    1.9355 H   0  0  0  0  0  0  0  0  0  0  0  0
    1.1478    4.1525    2.7979 H   0  0  0  0  0  0  0  0  0  0  0  0
    1.5765    2.6852    3.7045 H   0  0  0  0  0  0  0  0  0  0  0  0
    0.4815   -0.0647   -1.0671 C   0  0  0  0  0  0  0  0  0  0  0  0
    0.4563    0.6698   -2.0462 O   0  0  0  0  0  0  0  0  0  0  0  0
    1.3006   -1.1780   -1.0604 N   0  0  0  0  0  0  0  0  0  0  0  0
    1.1008   -1.8616   -0.3311 H   0  0  0  0  0  0  0  0  0  0  0  0
    2.0543   -1.6098   -2.2300 C   0  0  0  0  0  0  0  0  0  0  0  0
    2.7199   -0.8110   -2.5737 H   0  0  0  0  0  0  0  0  0  0  0  0
    2.6653   -2.4835   -1.9837 H   0  0  0  0  0  0  0  0  0  0  0  0
    1.3750   -1.8781   -3.0457 H   0  0  0  0  0  0  0  0  0  0  0  0
  1  2  1  0  0  0  0
  2  3  1  0  0  0  0
  2  4  1  0  0  0  0
  2  5  1  0  0  0  0
  5  6  2  0  0  0  0
  5  7  1  0  0  0  0
  7  8  1  0  0  0  0
  7  9  1  0  0  0  0
  9 10  1  0  0  0  0
  9 11  1  0  0  0  0
  9 22  1  0  0  0  0
 11 12  1  0  0  0  0
 11 13  1  0  0  0  0
 11 14  1  0  0  0  0
 14 15  1  0  0  0  0
 14 16  1  0  0  0  0
 14 17  1  0  0  0  0
 17 18  1  0  0  0  0
 18 19  1  0  0  0  0
 18 20  1  0  0  0  0
 18 21  1  0  0  0  0
 22 23  2  0  0  0  0
 22 24  1  0  0  0  0
 24 25  1  0  0  0  0
 24 26  1  0  0  0  0
 26 27  1  0  0  0  0
 26 28  1  0  0  0  0
 26 29  1  0  0  0  0
M  END
$$$$

  -OEChem-01062216093D

 29 28  0     1  0  0  0  0  0999 V2000
   -3.6089   -3.1157    0.8117 H   0  0  0  0  0  0  0  0  0  0  0  0
   -3.5148   -2.0962    0.4271 C   0  0  0  0  0  0  0  0  0  0  0  0
   -4.0806   -1.4228    1.0755 H   0  0  0  0  0  0  0  0  0  0  0  0
   -3.9351   -2.0598   -0.5810 H   0  0  0  0  0  0  0  0  0  0  0  0
   -2.0562   -1.6818    0.3958 C   0  0  0  0  0  0  0  0  0  0  0  0
   -1.1881   -2.5019    0.6508 O   0  0  0  0  0  0  0  0  0  0  0  0
   -1.7172   -0.4146   -0.0357 N   0  0  0  0  0  0  0  0  0  0  0  0
   -2.4977    0.1846   -0.2905 H   0  0  0  0  0  0  0  0  0  0  0  0
   -0.4054    0.2469    0.1250 C   0  0  1  0  0  0  0  0  0  0  0  0
   -0.5871    1.3240    0.0612 H   0  0  0  0  0  0  0  0  0  0  0  0
    0.3307   -0.0012    1.4648 C   0  0  0  0  0  0  0  0  0  0  0  0
    0.4977   -1.0665    1.6368 H   0  0  0  0  0  0  0  0  0  0  0  0
    1.3223    0.4569    1.4026 H   0  0  0  0  0  0  0  0  0  0  0  0
   -0.4055    0.5995    2.6702 C   0  0  0  0  0  0  0  0  0  0  0  0
   -1.3974    0.1442    2.7504 H   0  0  0  0  0  0  0  0  0  0  0  0
    0.1422    0.3542    3.5856 H   0  0  0  0  0  0  0  0  0  0  0  0
   -0.5913    2.4279    2.5558 S   0  0  0  0  0  0  0  0  0  0  0  0
    1.1312    3.0339    2.7578 C   0  0  0  0  0  0  0  0  0  0  0  0
    1.7517    2.7141    1.9156 H   0  0  0  0  0  0  0  0  0  0  0  0
    1.1402    4.1271    2.7987 H   0  0  0  0  0  0  0  0  0  0  0  0
    1.5641    2.6457    3.6843 H   0  0  0  0  0  0  0  0  0  0  0  0
    0.4895   -0.0759   -1.0850 C   0  0  0  0  0  0  0  0  0  0  0  0
    0.7214    0.7738   -1.9349 O   0  0  0  0  0  0  0  0  0  0  0  0
    1.0550   -1.3326   -1.1837 N   0  0  0  0  0  0  0  0  0  0  0  0
    0.6704   -2.0361   -0.5499 H   0  0  0  0  0  0  0  0  0  0  0  0
    1.8253   -1.7715   -2.3390 C   0  0  0  0  0  0  0  0  0  0  0  0
    2.6753   -1.1026   -2.5096 H   0  0  0  0  0  0  0  0  0  0  0  0
    2.2110   -2.7819   -2.1725 H   0  0  0  0  0  0  0  0  0  0  0  0
    1.1982   -1.7811   -3.2365 H   0  0  0  0  0  0  0  0  0  0  0  0
  1  2  1  0  0  0  0
  2  3  1  0  0  0  0
  2  4  1  0  0  0  0
  2  5  1  0  0  0  0
  5  6  2  0  0  0  0
  5  7  1  0  0  0  0
  7  8  1  0  0  0  0
  7  9  1  0  0  0  0
  9 10  1  0  0  0  0
  9 11  1  0  0  0  0
  9 22  1  0  0  0  0
 11 12  1  0  0  0  0
 11 13  1  0  0  0  0
 11 14  1  0  0  0  0
 14 15  1  0  0  0  0
 14 16  1  0  0  0  0
 14 17  1  0  0  0  0
 17 18  1  0  0  0  0
 18 19  1  0  0  0  0
 18 20  1  0  0  0  0
 18 21  1  0  0  0  0
 22 23  2  0  0  0  0
 22 24  1  0  0  0  0
 24 25  1  0  0  0  0
 24 26  1  0  0  0  0
 26 27  1  0  0  0  0
 26 28  1  0  0  0  0
 26 29  1  0  0  0  0
M  END
$$$$

  -OEChem-01062216093D

 29 28  0     1  0  0  0  0  0999 V2000
   -3.6478   -3.0934    0.8754 H   0  0  0  0  0  0  0  0  0  0  0  0
   -3.5540   -2.0715    0.4973 C   0  0  0  0  0  0  0  0  0  0  0  0
   -4.0751   -1.3959    1.1800 H   0  0  0  0  0  0  0  0  0  0  0  0
   -4.0229   -2.0162   -0.4881 H   0  0  0  0  0  0  0  0  0  0  0  0
   -2.0912   -1.6827    0.3984 C   0  0  0  0  0  0  0  0  0  0  0  0
   -1.2263   -2.5192    0.6049 O   0  0  0  0  0  0  0  0  0  0  0  0
   -1.7501   -0.4210   -0.0468 N   0  0  0  0  0  0  0  0  0  0  0  0
   -2.5360    0.1887   -0.2567 H   0  0  0  0  0  0  0  0  0  0  0  0
   -0.4343    0.2410    0.0978 C   0  0  1  0  0  0  0  0  0  0  0  0
   -0.6151    1.3184    0.0362 H   0  0  0  0  0  0  0  0  0  0  0  0
    0.3121   -0.0174    1.4283 C   0  0  0  0  0  0  0  0  0  0  0  0
    0.4775   -1.0850    1.5880 H   0  0  0  0  0  0  0  0  0  0  0  0
    1.3045    0.4383    1.3611 H   0  0  0  0  0  0  0  0  0  0  0  0
   -0.4101    0.5765    2.6454 C   0  0  0  0  0  0  0  0  0  0  0  0
   -1.4024    0.1239    2.7338 H   0  0  0  0  0  0  0  0  0  0  0  0
    0.1468    0.3232    3.5530 H   0  0  0  0  0  0  0  0  0  0  0  0
   -0.5912    2.4058    2.5443 S   0  0  0  0  0  0  0  0  0  0  0  0
    1.1357    3.0032    2.7325 C   0  0  0  0  0  0  0  0  0  0  0  0
    1.7453    2.6871    1.8808 H   0  0  0  0  0  0  0  0  0  0  0  0
    1.1493    4.0960    2.7815 H   0  0  0  0  0  0  0  0  0  0  0  0
    1.5777    2.6066    3.6512 H   0  0  0  0  0  0  0  0  0  0  0  0
    0.4676   -0.0832   -1.1073 C   0  0  0  0  0  0  0  0  0  0  0  0
    0.9237    0.8124   -1.8057 O   0  0  0  0  0  0  0  0  0  0  0  0
    0.7869   -1.4006   -1.3713 N   0  0  0  0  0  0  0  0  0  0  0  0
    0.3256   -2.1015   -0.7863 H   0  0  0  0  0  0  0  0  0  0  0  0
    1.6078   -1.8286   -2.4949 C   0  0  0  0  0  0  0  0  0  0  0  0
    2.5924   -1.3512   -2.4541 H   0  0  0  0  0  0  0  0  0  0  0  0
    1.7492   -2.9132   -2.4663 H   0  0  0  0  0  0  0  0  0  0  0  0
    1.1268   -1.5652   -3.4424 H   0  0  0  0  0  0  0  0  0  0  0  0
  1  2  1  0  0  0  0
  2  3  1  0  0  0  0
  2  4  1  0  0  0  0
  2  5  1  0  0  0  0
  5  6  2  0  0  0  0
  5  7  1  0  0  0  0
  7  8  1  0  0  0  0
  7  9  1  0  0  0  0
  9 10  1  0  0  0  0
  9 11  1  0  0  0  0
  9 22  1  0  0  0  0
 11 12  1  0  0  0  0
 11 13  1  0  0  0  0
 11 14  1  0  0  0  0
 14 15  1  0  0  0  0
 14 16  1  0  0  0  0
 14 17  1  0  0  0  0
 17 18  1  0  0  0  0
 18 19  1  0  0  0  0
 18 20  1  0  0  0  0
 18 21  1  0  0  0  0
 22 23  2  0  0  0  0
 22 24  1  0  0  0  0
 24 25  1  0  0  0  0
 24 26  1  0  0  0  0
 26 27  1  0  0  0  0
 26 28  1  0  0  0  0
 26 29  1  0  0  0  0
M  END
$$$$

  -OEChem-01062216093D

 29 28  0     1  0  0  0  0  0999 V2000
   -3.6809   -3.0813    0.9474 H   0  0  0  0  0  0  0  0  0  0  0  0
   -3.5927   -2.0625    0.5593 C   0  0  0  0  0  0  0  0  0  0  0  0
   -4.0865   -1.3789    1.2542 H   0  0  0  0  0  0  0  0  0  0  0  0
   -4.0929   -2.0108   -0.4110 H   0  0  0  0  0  0  0  0  0  0  0  0
   -2.1313   -1.6850    0.4104 C   0  0  0  0  0  0  0  0  0  0  0  0
   -1.2671   -2.5324    0.5669 O   0  0  0  0  0  0  0  0  0  0  0  0
   -1.7948   -0.4244   -0.0406 N   0  0  0  0  0  0  0  0  0  0  0  0
   -2.5849    0.1925   -0.2087 H   0  0  0  0  0  0  0  0  0  0  0  0
   -0.4742    0.2364    0.0778 C   0  0  1  0  0  0  0  0  0  0  0  0
   -0.6555    1.3140    0.0231 H   0  0  0  0  0  0  0  0  0  0  0  0
    0.2925   -0.0316    1.3941 C   0  0  0  0  0  0  0  0  0  0  0  0
    0.4551   -1.1014    1.5433 H   0  0  0  0  0  0  0  0  0  0  0  0
    1.2862    0.4198    1.3139 H   0  0  0  0  0  0  0  0  0  0  0  0
   -0.4074    0.5586    2.6261 C   0  0  0  0  0  0  0  0  0  0  0  0
   -1.4000    0.1098    2.7293 H   0  0  0  0  0  0  0  0  0  0  0  0
    0.1642    0.2993    3.5229 H   0  0  0  0  0  0  0  0  0  0  0  0
   -0.5825    2.3890    2.5358 S   0  0  0  0  0  0  0  0  0  0  0  0
    1.1503    2.9779    2.6981 C   0  0  0  0  0  0  0  0  0  0  0  0
    1.7418    2.6716    1.8305 H   0  0  0  0  0  0  0  0  0  0  0  0
    1.1695    4.0699    2.7616 H   0  0  0  0  0  0  0  0  0  0  0  0
    1.6087    2.5665    3.6021 H   0  0  0  0  0  0  0  0  0  0  0  0
    0.4201   -0.0771   -1.1372 C   0  0  0  0  0  0  0  0  0  0  0  0
    1.0850    0.8065   -1.6619 O   0  0  0  0  0  0  0  0  0  0  0  0
    0.5008   -1.3736   -1.6064 N   0  0  0  0  0  0  0  0  0  0  0  0
    0.0083   -2.0800   -1.0550 H   0  0  0  0  0  0  0  0  0  0  0  0
    1.3968   -1.7937   -2.6744 C   0  0  0  0  0  0  0  0  0  0  0  0
    2.4394   -1.6147   -2.3918 H   0  0  0  0  0  0  0  0  0  0  0  0
    1.2698   -2.8617   -2.8753 H   0  0  0  0  0  0  0  0  0  0  0  0
    1.1802   -1.2411   -3.5946 H   0  0  0  0  0  0  0  0  0  0  0  0
  1  2  1  0  0  0  0
  2  3  1  0  0  0  0
  2  4  1  0  0  0  0
  2  5  1  0  0  0  0
  5  6  2  0  0  0  0
  5  7  1  0  0  0  0
  7  8  1  0  0  0  0
  7  9  1  0  0  0  0
  9 10  1  0  0  0  0
  9 11  1  0  0  0  0
  9 22  1  0  0  0  0
 11 12  1  0  0  0  0
 11 13  1  0  0  0  0
 11 14  1  0  0  0  0
 14 15  1  0  0  0  0
 14 16  1  0  0  0  0
 14 17  1  0  0  0  0
 17 18  1  0  0  0  0
 18 19  1  0  0  0  0
 18 20  1  0  0  0  0
 18 21  1  0  0  0  0
 22 23  2  0  0  0  0
 22 24  1  0  0  0  0
 24 25  1  0  0  0  0
 24 26  1  0  0  0  0
 26 27  1  0  0  0  0
 26 28  1  0  0  0  0
 26 29  1  0  0  0  0
M  END
$$$$

  -OEChem-01062216093D

 29 28  0     1  0  0  0  0  0999 V2000
   -3.6777   -3.0743    1.0076 H   0  0  0  0  0  0  0  0  0  0  0  0
   -3.6005   -2.0504    0.6308 C   0  0  0  0  0  0  0  0  0  0  0  0
   -4.0485   -1.3734    1.3625 H   0  0  0  0  0  0  0  0  0  0  0  0
   -4.1531   -1.9779   -0.3092 H   0  0  0  0  0  0  0  0  0  0  0  0
   -2.1454   -1.6851    0.4068 C   0  0  0  0  0  0  0  0  0  0  0  0
   -1.2836   -2.5437    0.4936 O   0  0  0  0  0  0  0  0  0  0  0  0
   -1.8172   -0.4245   -0.0490 N   0  0  0  0  0  0  0  0  0  0  0  0
   -2.6102    0.2010   -0.1633 H   0  0  0  0  0  0  0  0  0  0  0  0
   -0.4935    0.2352    0.0577 C   0  0  1  0  0  0  0  0  0  0  0  0
   -0.6733    1.3129    0.0053 H   0  0  0  0  0  0  0  0  0  0  0  0
    0.2710   -0.0400    1.3744 C   0  0  0  0  0  0  0  0  0  0  0  0
    0.4249   -1.1118    1.5203 H   0  0  0  0  0  0  0  0  0  0  0  0
    1.2680    0.4047    1.2973 H   0  0  0  0  0  0  0  0  0  0  0  0
   -0.4261    0.5516    2.6074 C   0  0  0  0  0  0  0  0  0  0  0  0
   -1.4207    0.1079    2.7102 H   0  0  0  0  0  0  0  0  0  0  0  0
    0.1434    0.2872    3.5038 H   0  0  0  0  0  0  0  0  0  0  0  0
   -0.5900    2.3832    2.5202 S   0  0  0  0  0  0  0  0  0  0  0  0
    1.1471    2.9589    2.6847 C   0  0  0  0  0  0  0  0  0  0  0  0
    1.7378    2.6478    1.8179 H   0  0  0  0  0  0  0  0  0  0  0  0
    1.1749    4.0506    2.7483 H   0  0  0  0  0  0  0  0  0  0  0  0
    1.6013    2.5442    3.5892 H   0  0  0  0  0  0  0  0  0  0  0  0
    0.4058   -0.0684   -1.1585 C   0  0  0  0  0  0  0  0  0  0  0  0
    1.2424    0.7481   -1.5219 O   0  0  0  0  0  0  0  0  0  0  0  0
    0.2749   -1.2667   -1.8339 N   0  0  0  0  0  0  0  0  0  0  0  0
   -0.2910   -1.9716   -1.3583 H   0  0  0  0  0  0  0  0  0  0  0  0
    1.1811   -1.6895   -2.8928 C   0  0  0  0  0  0  0  0  0  0  0  0
    2.1963   -1.8123   -2.5015 H   0  0  0  0  0  0  0  0  0  0  0  0
    0.8513   -2.6450   -3.3118 H   0  0  0  0  0  0  0  0  0  0  0  0
    1.2011   -0.9491   -3.6993 H   0  0  0  0  0  0  0  0  0  0  0  0
  1  2  1  0  0  0  0
  2  3  1  0  0  0  0
  2  4  1  0  0  0  0
  2  5  1  0  0  0  0
  5  6  2  0  0  0  0
  5  7  1  0  0  0  0
  7  8  1  0  0  0  0
  7  9  1  0  0  0  0
  9 10  1  0  0  0  0
  9 11  1  0  0  0  0
  9 22  1  0  0  0  0
 11 12  1  0  0  0  0
 11 13  1  0  0  0  0
 11 14  1  0  0  0  0
 14 15  1  0  0  0  0
 14 16  1  0  0  0  0
 14 17  1  0  0  0  0
 17 18  1  0  0  0  0
 18 19  1  0  0  0  0
 18 20  1  0  0  0  0
 18 21  1  0  0  0  0
 22 23  2  0  0  0  0
 22 24  1  0  0  0  0
 24 25  1  0  0  0  0
 24 26  1  0  0  0  0
 26 27  1  0  0  0  0
 26 28  1  0  0  0  0
 26 29  1  0  0  0  0
M  END
$$$$

  -OEChem-01062216093D

 29 28  0     1  0  0  0  0  0999 V2000
   -3.6757   -3.0643    1.0580 H   0  0  0  0  0  0  0  0  0  0  0  0
   -3.6012   -2.0473    0.6625 C   0  0  0  0  0  0  0  0  0  0  0  0
   -4.0361   -1.3567    1.3892 H   0  0  0  0  0  0  0  0  0  0  0  0
   -4.1680   -1.9893   -0.2700 H   0  0  0  0  0  0  0  0  0  0  0  0
   -2.1487   -1.6904    0.4114 C   0  0  0  0  0  0  0  0  0  0  0  0
   -1.2915   -2.5539    0.4788 O   0  0  0  0  0  0  0  0  0  0  0  0
   -1.8234   -0.4295   -0.0455 N   0  0  0  0  0  0  0  0  0  0  0  0
   -2.6168    0.1995   -0.1356 H   0  0  0  0  0  0  0  0  0  0  0  0
   -0.4981    0.2295    0.0537 C   0  0  1  0  0  0  0  0  0  0  0  0
   -0.6785    1.3070    0.0014 H   0  0  0  0  0  0  0  0  0  0  0  0
    0.2619   -0.0466    1.3738 C   0  0  0  0  0  0  0  0  0  0  0  0
    0.4107   -1.1189    1.5215 H   0  0  0  0  0  0  0  0  0  0  0  0
    1.2616    0.3926    1.3020 H   0  0  0  0  0  0  0  0  0  0  0  0
   -0.4361    0.5503    2.6038 C   0  0  0  0  0  0  0  0  0  0  0  0
   -1.4325    0.1106    2.7060 H   0  0  0  0  0  0  0  0  0  0  0  0
    0.1316    0.2859    3.5017 H   0  0  0  0  0  0  0  0  0  0  0  0
   -0.5927    2.3826    2.5135 S   0  0  0  0  0  0  0  0  0  0  0  0
    1.1464    2.9509    2.6819 C   0  0  0  0  0  0  0  0  0  0  0  0
    1.7394    2.6313    1.8197 H   0  0  0  0  0  0  0  0  0  0  0  0
    1.1787    4.0430    2.7388 H   0  0  0  0  0  0  0  0  0  0  0  0
    1.5944    2.5397    3.5912 H   0  0  0  0  0  0  0  0  0  0  0  0
    0.4045   -0.0658   -1.1644 C   0  0  0  0  0  0  0  0  0  0  0  0
    1.3780    0.6421   -1.3894 O   0  0  0  0  0  0  0  0  0  0  0  0
    0.0948   -1.0952   -2.0329 N   0  0  0  0  0  0  0  0  0  0  0  0
   -0.5762   -1.7706   -1.6696 H   0  0  0  0  0  0  0  0  0  0  0  0
    0.9715   -1.5016   -3.1235 C   0  0  0  0  0  0  0  0  0  0  0  0
    1.9304   -1.8560   -2.7313 H   0  0  0  0  0  0  0  0  0  0  0  0
    0.5093   -2.3102   -3.6977 H   0  0  0  0  0  0  0  0  0  0  0  0
    1.1568   -0.6618   -3.8015 H   0  0  0  0  0  0  0  0  0  0  0  0
  1  2  1  0  0  0  0
  2  3  1  0  0  0  0
  2  4  1  0  0  0  0
  2  5  1  0  0  0  0
  5  6  2  0  0  0  0
  5  7  1  0  0  0  0
  7  8  1  0  0  0  0
  7  9  1  0  0  0  0
  9 10  1  0  0  0  0
  9 11  1  0  0  0  0
  9 22  1  0  0  0  0
 11 12  1  0  0  0  0
 11 13  1  0  0  0  0
 11 14  1  0  0  0  0
 14 15  1  0  0  0  0
 14 16  1  0  0  0  0
 14 17  1  0  0  0  0
 17 18  1  0  0  0  0
 18 19  1  0  0  0  0
 18 20  1  0  0  0  0
 18 21  1  0  0  0  0
 22 23  2  0  0  0  0
 22 24  1  0  0  0  0
 24 25  1  0  0  0  0
 24 26  1  0  0  0  0
 26 27  1  0  0  0  0
 26 28  1  0  0  0  0
 26 29  1  0  0  0  0
M  END
$$$$

  -OEChem-01062216093D

 29 28  0     1  0  0  0  0  0999 V2000
   -3.6677   -3.0861    1.0362 H   0  0  0  0  0  0  0  0  0  0  0  0
   -3.5920   -2.0617    0.6603 C   0  0  0  0  0  0  0  0  0  0  0  0
   -4.0266   -1.3850    1.4001 H   0  0  0  0  0  0  0  0  0  0  0  0
   -4.1578   -1.9859   -0.2713 H   0  0  0  0  0  0  0  0  0  0  0  0
   -2.1387   -1.7008    0.4171 C   0  0  0  0  0  0  0  0  0  0  0  0
   -1.2807   -2.5598    0.5110 O   0  0  0  0  0  0  0  0  0  0  0  0
   -1.8176   -0.4365   -0.0365 N   0  0  0  0  0  0  0  0  0  0  0  0
   -2.6130    0.1917   -0.1153 H   0  0  0  0  0  0  0  0  0  0  0  0
   -0.4919    0.2251    0.0569 C   0  0  1  0  0  0  0  0  0  0  0  0
   -0.6750    1.3018    0.0046 H   0  0  0  0  0  0  0  0  0  0  0  0
    0.2647   -0.0475    1.3821 C   0  0  0  0  0  0  0  0  0  0  0  0
    0.4143   -1.1189    1.5335 H   0  0  0  0  0  0  0  0  0  0  0  0
    1.2647    0.3914    1.3167 H   0  0  0  0  0  0  0  0  0  0  0  0
   -0.4373    0.5548    2.6073 C   0  0  0  0  0  0  0  0  0  0  0  0
   -1.4345    0.1162    2.7072 H   0  0  0  0  0  0  0  0  0  0  0  0
    0.1264    0.2924    3.5082 H   0  0  0  0  0  0  0  0  0  0  0  0
   -0.5921    2.3870    2.5099 S   0  0  0  0  0  0  0  0  0  0  0  0
    1.1470    2.9542    2.6828 C   0  0  0  0  0  0  0  0  0  0  0  0
    1.7441    2.6272    1.8262 H   0  0  0  0  0  0  0  0  0  0  0  0
    1.1810    4.0465    2.7309 H   0  0  0  0  0  0  0  0  0  0  0  0
    1.5898    2.5496    3.5978 H   0  0  0  0  0  0  0  0  0  0  0  0
    0.4063   -0.0614   -1.1694 C   0  0  0  0  0  0  0  0  0  0  0  0
    1.4948    0.4896   -1.2776 O   0  0  0  0  0  0  0  0  0  0  0  0
   -0.0482   -0.8612   -2.2012 N   0  0  0  0  0  0  0  0  0  0  0  0
   -0.8552   -1.4362   -1.9738 H   0  0  0  0  0  0  0  0  0  0  0  0
    0.7904   -1.2522   -3.3270 C   0  0  0  0  0  0  0  0  0  0  0  0
    1.6490   -1.8364   -2.9796 H   0  0  0  0  0  0  0  0  0  0  0  0
    0.2166   -1.8621   -4.0310 H   0  0  0  0  0  0  0  0  0  0  0  0
    1.1575   -0.3677   -3.8583 H   0  0  0  0  0  0  0  0  0  0  0  0
  1  2  1  0  0  0  0
  2  3  1  0  0  0  0
  2  4  1  0  0  0  0
  2  5  1  0  0  0  0
  5  6  2  0  0  0  0
  5  7  1  0  0  0  0
  7  8  1  0  0  0  0
  7  9  1  0  0  0  0
  9 10  1  0  0  0  0
  9 11  1  0  0  0  0
  9 22  1  0  0  0  0
 11 12  1  0  0  0  0
 11 13  1  0  0  0  0
 11 14  1  0  0  0  0
 14 15  1  0  0  0  0
 14 16  1  0  0  0  0
 14 17  1  0  0  0  0
 17 18  1  0  0  0  0
 18 19  1  0  0  0  0
 18 20  1  0  0  0  0
 18 21  1  0  0  0  0
 22 23  2  0  0  0  0
 22 24  1  0  0  0  0
 24 25  1  0  0  0  0
 24 26  1  0  0  0  0
 26 27  1  0  0  0  0
 26 28  1  0  0  0  0
 26 29  1  0  0  0  0
M  END
$$$$

  -OEChem-01062216093D

 29 28  0     1  0  0  0  0  0999 V2000
   -3.6533   -3.1002    1.0155 H   0  0  0  0  0  0  0  0  0  0  0  0
   -3.5756   -2.0789    0.6316 C   0  0  0  0  0  0  0  0  0  0  0  0
   -4.0296   -1.3973    1.3550 H   0  0  0  0  0  0  0  0  0  0  0  0
   -4.1215   -2.0153   -0.3127 H   0  0  0  0  0  0  0  0  0  0  0  0
   -2.1196   -1.7121    0.4156 C   0  0  0  0  0  0  0  0  0  0  0  0
   -1.2612   -2.5657    0.5438 O   0  0  0  0  0  0  0  0  0  0  0  0
   -1.8006   -0.4439   -0.0312 N   0  0  0  0  0  0  0  0  0  0  0  0
   -2.5977    0.1827   -0.1034 H   0  0  0  0  0  0  0  0  0  0  0  0
   -0.4759    0.2189    0.0647 C   0  0  1  0  0  0  0  0  0  0  0  0
   -0.6603    1.2951    0.0108 H   0  0  0  0  0  0  0  0  0  0  0  0
    0.2732   -0.0471    1.3972 C   0  0  0  0  0  0  0  0  0  0  0  0
    0.4235   -1.1173    1.5543 H   0  0  0  0  0  0  0  0  0  0  0  0
    1.2728    0.3933    1.3396 H   0  0  0  0  0  0  0  0  0  0  0  0
   -0.4367    0.5614    2.6145 C   0  0  0  0  0  0  0  0  0  0  0  0
   -1.4342    0.1228    2.7104 H   0  0  0  0  0  0  0  0  0  0  0  0
    0.1219    0.3045    3.5200 H   0  0  0  0  0  0  0  0  0  0  0  0
   -0.5906    2.3934    2.5056 S   0  0  0  0  0  0  0  0  0  0  0  0
    1.1476    2.9615    2.6867 C   0  0  0  0  0  0  0  0  0  0  0  0
    1.7516    2.6260    1.8385 H   0  0  0  0  0  0  0  0  0  0  0  0
    1.1820    4.0543    2.7249 H   0  0  0  0  0  0  0  0  0  0  0  0
    1.5829    2.5649    3.6087 H   0  0  0  0  0  0  0  0  0  0  0  0
    0.4152   -0.0647   -1.1697 C   0  0  0  0  0  0  0  0  0  0  0  0
    1.5897    0.2827   -1.1883 O   0  0  0  0  0  0  0  0  0  0  0  0
   -0.1408   -0.5884   -2.3226 N   0  0  0  0  0  0  0  0  0  0  0  0
   -1.0611   -1.0029   -2.2111 H   0  0  0  0  0  0  0  0  0  0  0  0
    0.6524   -0.9505   -3.4906 C   0  0  0  0  0  0  0  0  0  0  0  0
    1.3804   -1.7267   -3.2323 H   0  0  0  0  0  0  0  0  0  0  0  0
    0.0038   -1.3324   -4.2847 H   0  0  0  0  0  0  0  0  0  0  0  0
    1.1901   -0.0776   -3.8758 H   0  0  0  0  0  0  0  0  0  0  0  0
  1  2  1  0  0  0  0
  2  3  1  0  0  0  0
  2  4  1  0  0  0  0
  2  5  1  0  0  0  0
  5  6  2  0  0  0  0
  5  7  1  0  0  0  0
  7  8  1  0  0  0  0
  7  9  1  0  0  0  0
  9 10  1  0  0  0  0
  9 11  1  0  0  0  0
  9 22  1  0  0  0  0
 11 12  1  0  0  0  0
 11 13  1  0  0  0  0
 11 14  1  0  0  0  0
 14 15  1  0  0  0  0
 14 16  1  0  0  0  0
 14 17  1  0  0  0  0
 17 18  1  0  0  0  0
 18 19  1  0  0  0  0
 18 20  1  0  0  0  0
 18 21  1  0  0  0  0
 22 23  2  0  0  0  0
 22 24  1  0  0  0  0
 24 25  1  0  0  0  0
 24 26  1  0  0  0  0
 26 27  1  0  0  0  0
 26 28  1  0  0  0  0
 26 29  1  0  0  0  0
M  END
$$$$

  -OEChem-01062216093D

 29 28  0     1  0  0  0  0  0999 V2000
   -3.6421   -3.1038    1.0068 H   0  0  0  0  0  0  0  0  0  0  0  0
   -3.5618   -2.0919    0.5996 C   0  0  0  0  0  0  0  0  0  0  0  0
   -4.0373   -1.3964    1.2953 H   0  0  0  0  0  0  0  0  0  0  0  0
   -4.0861   -2.0559   -0.3582 H   0  0  0  0  0  0  0  0  0  0  0  0
   -2.1030   -1.7207    0.4083 C   0  0  0  0  0  0  0  0  0  0  0  0
   -1.2456   -2.5700    0.5662 O   0  0  0  0  0  0  0  0  0  0  0  0
   -1.7823   -0.4504   -0.0333 N   0  0  0  0  0  0  0  0  0  0  0  0
   -2.5800    0.1750   -0.1047 H   0  0  0  0  0  0  0  0  0  0  0  0
   -0.4582    0.2123    0.0695 C   0  0  1  0  0  0  0  0  0  0  0  0
   -0.6406    1.2885    0.0129 H   0  0  0  0  0  0  0  0  0  0  0  0
    0.2829   -0.0476    1.4085 C   0  0  0  0  0  0  0  0  0  0  0  0
    0.4355   -1.1167    1.5716 H   0  0  0  0  0  0  0  0  0  0  0  0
    1.2814    0.3955    1.3563 H   0  0  0  0  0  0  0  0  0  0  0  0
   -0.4361    0.5668    2.6176 C   0  0  0  0  0  0  0  0  0  0  0  0
   -1.4342    0.1283    2.7081 H   0  0  0  0  0  0  0  0  0  0  0  0
    0.1157    0.3138    3.5283 H   0  0  0  0  0  0  0  0  0  0  0  0
   -0.5906    2.3984    2.4998 S   0  0  0  0  0  0  0  0  0  0  0  0
    1.1458    2.9692    2.6912 C   0  0  0  0  0  0  0  0  0  0  0  0
    1.7571    2.6275    1.8508 H   0  0  0  0  0  0  0  0  0  0  0  0
    1.1792    4.0623    2.7211 H   0  0  0  0  0  0  0  0  0  0  0  0
    1.5738    2.5806    3.6201 H   0  0  0  0  0  0  0  0  0  0  0  0
    0.4258   -0.0760   -1.1695 C   0  0  0  0  0  0  0  0  0  0  0  0
    1.6446    0.0380   -1.1243 O   0  0  0  0  0  0  0  0  0  0  0  0
   -0.1696   -0.2966   -2.3986 N   0  0  0  0  0  0  0  0  0  0  0  0
   -1.1602   -0.5159   -2.3749 H   0  0  0  0  0  0  0  0  0  0  0  0
    0.5899   -0.6143   -3.6019 C   0  0  0  0  0  0  0  0  0  0  0  0
    1.1542   -1.5425   -3.4638 H   0  0  0  0  0  0  0  0  0  0  0  0
   -0.0853   -0.7410   -4.4534 H   0  0  0  0  0  0  0  0  0  0  0  0
    1.2916    0.1928   -3.8372 H   0  0  0  0  0  0  0  0  0  0  0  0
  1  2  1  0  0  0  0
  2  3  1  0  0  0  0
  2  4  1  0  0  0  0
  2  5  1  0  0  0  0
  5  6  2  0  0  0  0
  5  7  1  0  0  0  0
  7  8  1  0  0  0  0
  7  9  1  0  0  0  0
  9 10  1  0  0  0  0
  9 11  1  0  0  0  0
  9 22  1  0  0  0  0
 11 12  1  0  0  0  0
 11 13  1  0  0  0  0
 11 14  1  0  0  0  0
 14 15  1  0  0  0  0
 14 16  1  0  0  0  0
 14 17  1  0  0  0  0
 17 18  1  0  0  0  0
 18 19  1  0  0  0  0
 18 20  1  0  0  0  0
 18 21  1  0  0  0  0
 22 23  2  0  0  0  0
 22 24  1  0  0  0  0
 24 25  1  0  0  0  0
 24 26  1  0  0  0  0
 26 27  1  0  0  0  0
 26 28  1  0  0  0  0
 26 29  1  0  0  0  0
M  END
$$$$

  -OEChem-01062216093D

 29 28  0     1  0  0  0  0  0999 V2000
   -3.6465   -3.1105    0.9742 H   0  0  0  0  0  0  0  0  0  0  0  0
   -3.5559   -2.1019    0.5604 C   0  0  0  0  0  0  0  0  0  0  0  0
   -4.0558   -1.4014    1.2335 H   0  0  0  0  0  0  0  0  0  0  0  0
   -4.0486   -2.0767   -0.4145 H   0  0  0  0  0  0  0  0  0  0  0  0
   -2.0932   -1.7275    0.4121 C   0  0  0  0  0  0  0  0  0  0  0  0
   -1.2402   -2.5706    0.6178 O   0  0  0  0  0  0  0  0  0  0  0  0
   -1.7684   -0.4580   -0.0294 N   0  0  0  0  0  0  0  0  0  0  0  0
   -2.5680    0.1610   -0.1258 H   0  0  0  0  0  0  0  0  0  0  0  0
   -0.4471    0.2079    0.0738 C   0  0  1  0  0  0  0  0  0  0  0  0
   -0.6302    1.2839    0.0157 H   0  0  0  0  0  0  0  0  0  0  0  0
    0.2948   -0.0456    1.4134 C   0  0  0  0  0  0  0  0  0  0  0  0
    0.4531   -1.1135    1.5788 H   0  0  0  0  0  0  0  0  0  0  0  0
    1.2913    0.4022    1.3577 H   0  0  0  0  0  0  0  0  0  0  0  0
   -0.4262    0.5697    2.6208 C   0  0  0  0  0  0  0  0  0  0  0  0
   -1.4224    0.1269    2.7126 H   0  0  0  0  0  0  0  0  0  0  0  0
    0.1269    0.3203    3.5319 H   0  0  0  0  0  0  0  0  0  0  0  0
   -0.5881    2.4008    2.5004 S   0  0  0  0  0  0  0  0  0  0  0  0
    1.1456    2.9793    2.6912 C   0  0  0  0  0  0  0  0  0  0  0  0
    1.7606    2.6357    1.8544 H   0  0  0  0  0  0  0  0  0  0  0  0
    1.1742    4.0726    2.7163 H   0  0  0  0  0  0  0  0  0  0  0  0
    1.5725    2.5972    3.6232 H   0  0  0  0  0  0  0  0  0  0  0  0
    0.4296   -0.0879   -1.1687 C   0  0  0  0  0  0  0  0  0  0  0  0
    1.6429   -0.2329   -1.0850 O   0  0  0  0  0  0  0  0  0  0  0  0
   -0.1348   -0.0036   -2.4293 N   0  0  0  0  0  0  0  0  0  0  0  0
   -1.1483    0.0125   -2.4677 H   0  0  0  0  0  0  0  0  0  0  0  0
    0.6101   -0.2712   -3.6538 C   0  0  0  0  0  0  0  0  0  0  0  0
    0.9885   -1.2989   -3.6542 H   0  0  0  0  0  0  0  0  0  0  0  0
   -0.0355   -0.1381   -4.5271 H   0  0  0  0  0  0  0  0  0  0  0  0
    1.4576    0.4164   -3.7452 H   0  0  0  0  0  0  0  0  0  0  0  0
  1  2  1  0  0  0  0
  2  3  1  0  0  0  0
  2  4  1  0  0  0  0
  2  5  1  0  0  0  0
  5  6  2  0  0  0  0
  5  7  1  0  0  0  0
  7  8  1  0  0  0  0
  7  9  1  0  0  0  0
  9 10  1  0  0  0  0
  9 11  1  0  0  0  0
  9 22  1  0  0  0  0
 11 12  1  0  0  0  0
 11 13  1  0  0  0  0
 11 14  1  0  0  0  0
 14 15  1  0  0  0  0
 14 16  1  0  0  0  0
 14 17  1  0  0  0  0
 17 18  1  0  0  0  0
 18 19  1  0  0  0  0
 18 20  1  0  0  0  0
 18 21  1  0  0  0  0
 22 23  2  0  0  0  0
 22 24  1  0  0  0  0
 24 25  1  0  0  0  0
 24 26  1  0  0  0  0
 26 27  1  0  0  0  0
 26 28  1  0  0  0  0
 26 29  1  0  0  0  0
M  END
$$$$

  -OEChem-01062216093D

 29 28  0     1  0  0  0  0  0999 V2000
   -3.6686   -3.1274    0.9258 H   0  0  0  0  0  0  0  0  0  0  0  0
   -3.5655   -2.1204    0.5112 C   0  0  0  0  0  0  0  0  0  0  0  0
   -4.1029   -1.4202    1.1553 H   0  0  0  0  0  0  0  0  0  0  0  0
   -4.0100   -2.1042   -0.4868 H   0  0  0  0  0  0  0  0  0  0  0  0
   -2.1001   -1.7357    0.4316 C   0  0  0  0  0  0  0  0  0  0  0  0
   -1.2555   -2.5668    0.7076 O   0  0  0  0  0  0  0  0  0  0  0  0
   -1.7674   -0.4683   -0.0115 N   0  0  0  0  0  0  0  0  0  0  0  0
   -2.5666    0.1383   -0.1672 H   0  0  0  0  0  0  0  0  0  0  0  0
   -0.4481    0.2015    0.0841 C   0  0  1  0  0  0  0  0  0  0  0  0
   -0.6344    1.2767    0.0268 H   0  0  0  0  0  0  0  0  0  0  0  0
    0.3071   -0.0424    1.4173 C   0  0  0  0  0  0  0  0  0  0  0  0
    0.4725   -1.1087    1.5864 H   0  0  0  0  0  0  0  0  0  0  0  0
    1.3009    0.4093    1.3462 H   0  0  0  0  0  0  0  0  0  0  0  0
   -0.4056    0.5746    2.6287 C   0  0  0  0  0  0  0  0  0  0  0  0
   -1.3989    0.1274    2.7310 H   0  0  0  0  0  0  0  0  0  0  0  0
    0.1562    0.3318    3.5362 H   0  0  0  0  0  0  0  0  0  0  0  0
   -0.5765    2.4045    2.5003 S   0  0  0  0  0  0  0  0  0  0  0  0
    1.1571    2.9889    2.6723 C   0  0  0  0  0  0  0  0  0  0  0  0
    1.7639    2.6465    1.8291 H   0  0  0  0  0  0  0  0  0  0  0  0
    1.1825    4.0823    2.6959 H   0  0  0  0  0  0  0  0  0  0  0  0
    1.5956    2.6086    3.5996 H   0  0  0  0  0  0  0  0  0  0  0  0
    0.4216   -0.0978   -1.1621 C   0  0  0  0  0  0  0  0  0  0  0  0
    1.5726   -0.5055   -1.0701 O   0  0  0  0  0  0  0  0  0  0  0  0
   -0.0412    0.2762   -2.4119 N   0  0  0  0  0  0  0  0  0  0  0  0
   -1.0138    0.5561   -2.4779 H   0  0  0  0  0  0  0  0  0  0  0  0
    0.7163    0.0652   -3.6402 C   0  0  0  0  0  0  0  0  0  0  0  0
    0.9053   -1.0023   -3.7951 H   0  0  0  0  0  0  0  0  0  0  0  0
    0.1577    0.4472   -4.5000 H   0  0  0  0  0  0  0  0  0  0  0  0
    1.6769    0.5891   -3.5931 H   0  0  0  0  0  0  0  0  0  0  0  0
  1  2  1  0  0  0  0
  2  3  1  0  0  0  0
  2  4  1  0  0  0  0
  2  5  1  0  0  0  0
  5  6  2  0  0  0  0
  5  7  1  0  0  0  0
  7  8  1  0  0  0  0
  7  9  1  0  0  0  0
  9 10  1  0  0  0  0
  9 11  1  0  0  0  0
  9 22  1  0  0  0  0
 11 12  1  0  0  0  0
 11 13  1  0  0  0  0
 11 14  1  0  0  0  0
 14 15  1  0  0  0  0
 14 16  1  0  0  0  0
 14 17  1  0  0  0  0
 17 18  1  0  0  0  0
 18 19  1  0  0  0  0
 18 20  1  0  0  0  0
 18 21  1  0  0  0  0
 22 23  2  0  0  0  0
 22 24  1  0  0  0  0
 24 25  1  0  0  0  0
 24 26  1  0  0  0  0
 26 27  1  0  0  0  0
 26 28  1  0  0  0  0
 26 29  1  0  0  0  0
M  END
$$$$

  -OEChem-01062216093D

 29 28  0     1  0  0  0  0  0999 V2000
   -3.7044   -3.1555    0.8370 H   0  0  0  0  0  0  0  0  0  0  0  0
   -3.5832   -2.1486    0.4268 C   0  0  0  0  0  0  0  0  0  0  0  0
   -4.1892   -1.4556    1.0151 H   0  0  0  0  0  0  0  0  0  0  0  0
   -3.9365   -2.1467   -0.6071 H   0  0  0  0  0  0  0  0  0  0  0  0
   -2.1236   -1.7364    0.4772 C   0  0  0  0  0  0  0  0  0  0  0  0
   -1.3033   -2.5373    0.8842 O   0  0  0  0  0  0  0  0  0  0  0  0
   -1.7770   -0.4740    0.0281 N   0  0  0  0  0  0  0  0  0  0  0  0
   -2.5640    0.0992   -0.2586 H   0  0  0  0  0  0  0  0  0  0  0  0
   -0.4591    0.2007    0.1044 C   0  0  1  0  0  0  0  0  0  0  0  0
   -0.6518    1.2748    0.0518 H   0  0  0  0  0  0  0  0  0  0  0  0
    0.3277   -0.0350    1.4193 C   0  0  0  0  0  0  0  0  0  0  0  0
    0.5046   -1.0997    1.5869 H   0  0  0  0  0  0  0  0  0  0  0  0
    1.3172    0.4208    1.3204 H   0  0  0  0  0  0  0  0  0  0  0  0
   -0.3619    0.5790    2.6450 C   0  0  0  0  0  0  0  0  0  0  0  0
   -1.3492    0.1237    2.7687 H   0  0  0  0  0  0  0  0  0  0  0  0
    0.2211    0.3417    3.5405 H   0  0  0  0  0  0  0  0  0  0  0  0
   -0.5488    2.4079    2.5167 S   0  0  0  0  0  0  0  0  0  0  0  0
    1.1836    3.0057    2.6484 C   0  0  0  0  0  0  0  0  0  0  0  0
    1.7750    2.6636    1.7943 H   0  0  0  0  0  0  0  0  0  0  0  0
    1.2013    4.0994    2.6665 H   0  0  0  0  0  0  0  0  0  0  0  0
    1.6440    2.6332    3.5683 H   0  0  0  0  0  0  0  0  0  0  0  0
    0.3971   -0.1041   -1.1489 C   0  0  0  0  0  0  0  0  0  0  0  0
    1.4222   -0.7706   -1.0933 O   0  0  0  0  0  0  0  0  0  0  0  0
    0.0885    0.5220   -2.3446 N   0  0  0  0  0  0  0  0  0  0  0  0
   -0.7573    1.0811   -2.3775 H   0  0  0  0  0  0  0  0  0  0  0  0
    0.8768    0.3606   -3.5611 C   0  0  0  0  0  0  0  0  0  0  0  0
    0.8923   -0.6895   -3.8714 H   0  0  0  0  0  0  0  0  0  0  0  0
    0.4464    0.9552   -4.3725 H   0  0  0  0  0  0  0  0  0  0  0  0
    1.9069    0.6948   -3.3978 H   0  0  0  0  0  0  0  0  0  0  0  0
  1  2  1  0  0  0  0
  2  3  1  0  0  0  0
  2  4  1  0  0  0  0
  2  5  1  0  0  0  0
  5  6  2  0  0  0  0
  5  7  1  0  0  0  0
  7  8  1  0  0  0  0
  7  9  1  0  0  0  0
  9 10  1  0  0  0  0
  9 11  1  0  0  0  0
  9 22  1  0  0  0  0
 11 12  1  0  0  0  0
 11 13  1  0  0  0  0
 11 14  1  0  0  0  0
 14 15  1  0  0  0  0
 14 16  1  0  0  0  0
 14 17  1  0  0  0  0
 17 18  1  0  0  0  0
 18 19  1  0  0  0  0
 18 20  1  0  0  0  0
 18 21  1  0  0  0  0
 22 23  2  0  0  0  0
 22 24  1  0  0  0  0
 24 25  1  0  0  0  0
 24 26  1  0  0  0  0
 26 27  1  0  0  0  0
 26 28  1  0  0  0  0
 26 29  1  0  0  0  0
M  END
$$$$

  -OEChem-01062216093D

 29 28  0     1  0  0  0  0  0999 V2000
   -3.7144   -3.1686    0.7524 H   0  0  0  0  0  0  0  0  0  0  0  0
   -3.5718   -2.1755    0.3167 C   0  0  0  0  0  0  0  0  0  0  0  0
   -4.2637   -1.4795    0.7967 H   0  0  0  0  0  0  0  0  0  0  0  0
   -3.7955   -2.2260   -0.7516 H   0  0  0  0  0  0  0  0  0  0  0  0
   -2.1416   -1.7130    0.5252 C   0  0  0  0  0  0  0  0  0  0  0  0
   -1.3664   -2.4600    1.0922 O   0  0  0  0  0  0  0  0  0  0  0  0
   -1.7886   -0.4535    0.0708 N   0  0  0  0  0  0  0  0  0  0  0  0
   -2.5421    0.0541   -0.3814 H   0  0  0  0  0  0  0  0  0  0  0  0
   -0.4725    0.2270    0.1309 C   0  0  1  0  0  0  0  0  0  0  0  0
   -0.6730    1.3001    0.0908 H   0  0  0  0  0  0  0  0  0  0  0  0
    0.3505   -0.0148    1.4204 C   0  0  0  0  0  0  0  0  0  0  0  0
    0.5427   -1.0794    1.5715 H   0  0  0  0  0  0  0  0  0  0  0  0
    1.3324    0.4513    1.2982 H   0  0  0  0  0  0  0  0  0  0  0  0
   -0.3123    0.5813    2.6694 C   0  0  0  0  0  0  0  0  0  0  0  0
   -1.2928    0.1162    2.8123 H   0  0  0  0  0  0  0  0  0  0  0  0
    0.2942    0.3388    3.5477 H   0  0  0  0  0  0  0  0  0  0  0  0
   -0.5181    2.4099    2.5646 S   0  0  0  0  0  0  0  0  0  0  0  0
    1.2118    3.0220    2.6581 C   0  0  0  0  0  0  0  0  0  0  0  0
    1.7804    2.7053    1.7792 H   0  0  0  0  0  0  0  0  0  0  0  0
    1.2200    4.1151    2.7018 H   0  0  0  0  0  0  0  0  0  0  0  0
    1.7029    2.6330    3.5550 H   0  0  0  0  0  0  0  0  0  0  0  0
    0.3706   -0.0804   -1.1292 C   0  0  0  0  0  0  0  0  0  0  0  0
    1.1835   -0.9939   -1.1611 O   0  0  0  0  0  0  0  0  0  0  0  0
    0.2677    0.7471   -2.2344 N   0  0  0  0  0  0  0  0  0  0  0  0
   -0.3808    1.5259   -2.1834 H   0  0  0  0  0  0  0  0  0  0  0  0
    1.0552    0.5623   -3.4479 C   0  0  0  0  0  0  0  0  0  0  0  0
    0.8556   -0.4206   -3.8879 H   0  0  0  0  0  0  0  0  0  0  0  0
    0.7999    1.3290   -4.1855 H   0  0  0  0  0  0  0  0  0  0  0  0
    2.1251    0.6379   -3.2263 H   0  0  0  0  0  0  0  0  0  0  0  0
  1  2  1  0  0  0  0
  2  3  1  0  0  0  0
  2  4  1  0  0  0  0
  2  5  1  0  0  0  0
  5  6  2  0  0  0  0
  5  7  1  0  0  0  0
  7  8  1  0  0  0  0
  7  9  1  0  0  0  0
  9 10  1  0  0  0  0
  9 11  1  0  0  0  0
  9 22  1  0  0  0  0
 11 12  1  0  0  0  0
 11 13  1  0  0  0  0
 11 14  1  0  0  0  0
 14 15  1  0  0  0  0
 14 16  1  0  0  0  0
 14 17  1  0  0  0  0
 17 18  1  0  0  0  0
 18 19  1  0  0  0  0
 18 20  1  0  0  0  0
 18 21  1  0  0  0  0
 22 23  2  0  0  0  0
 22 24  1  0  0  0  0
 24 25  1  0  0  0  0
 24 26  1  0  0  0  0
 26 27  1  0  0  0  0
 26 28  1  0  0  0  0
 26 29  1  0  0  0  0
M  END
$$$$

  -OEChem-01062216093D

 29 28  0     1  0  0  0  0  0999 V2000
   -3.6806   -3.2064    0.6385 H   0  0  0  0  0  0  0  0  0  0  0  0
   -3.5412   -2.2071    0.2160 C   0  0  0  0  0  0  0  0  0  0  0  0
   -4.3138   -1.5459    0.6155 H   0  0  0  0  0  0  0  0  0  0  0  0
   -3.6466   -2.2688   -0.8697 H   0  0  0  0  0  0  0  0  0  0  0  0
   -2.1658   -1.6746    0.5737 C   0  0  0  0  0  0  0  0  0  0  0  0
   -1.4504   -2.3529    1.2882 O   0  0  0  0  0  0  0  0  0  0  0  0
   -1.8123   -0.4178    0.1105 N   0  0  0  0  0  0  0  0  0  0  0  0
   -2.5126    0.0117   -0.4853 H   0  0  0  0  0  0  0  0  0  0  0  0
   -0.4923    0.2571    0.1596 C   0  0  1  0  0  0  0  0  0  0  0  0
   -0.6918    1.3305    0.1270 H   0  0  0  0  0  0  0  0  0  0  0  0
    0.3615    0.0040    1.4253 C   0  0  0  0  0  0  0  0  0  0  0  0
    0.5584   -1.0625    1.5592 H   0  0  0  0  0  0  0  0  0  0  0  0
    1.3401    0.4714    1.2851 H   0  0  0  0  0  0  0  0  0  0  0  0
   -0.2729    0.5885    2.6941 C   0  0  0  0  0  0  0  0  0  0  0  0
   -1.2503    0.1220    2.8541 H   0  0  0  0  0  0  0  0  0  0  0  0
    0.3522    0.3388    3.5569 H   0  0  0  0  0  0  0  0  0  0  0  0
   -0.4813    2.4182    2.6072 S   0  0  0  0  0  0  0  0  0  0  0  0
    1.2494    3.0318    2.6661 C   0  0  0  0  0  0  0  0  0  0  0  0
    1.8018    2.7145    1.7774 H   0  0  0  0  0  0  0  0  0  0  0  0
    1.2572    4.1250    2.7073 H   0  0  0  0  0  0  0  0  0  0  0  0
    1.7575    2.6448    3.5545 H   0  0  0  0  0  0  0  0  0  0  0  0
    0.3394   -0.0587   -1.1041 C   0  0  0  0  0  0  0  0  0  0  0  0
    0.8675   -1.1488   -1.2721 O   0  0  0  0  0  0  0  0  0  0  0  0
    0.4863    0.9059   -2.0862 N   0  0  0  0  0  0  0  0  0  0  0  0
    0.0699    1.8170   -1.9208 H   0  0  0  0  0  0  0  0  0  0  0  0
    1.2711    0.6981   -3.2980 C   0  0  0  0  0  0  0  0  0  0  0  0
    0.8817   -0.1537   -3.8659 H   0  0  0  0  0  0  0  0  0  0  0  0
    1.2271    1.5863   -3.9355 H   0  0  0  0  0  0  0  0  0  0  0  0
    2.3192    0.5039   -3.0467 H   0  0  0  0  0  0  0  0  0  0  0  0
  1  2  1  0  0  0  0
  2  3  1  0  0  0  0
  2  4  1  0  0  0  0
  2  5  1  0  0  0  0
  5  6  2  0  0  0  0
  5  7  1  0  0  0  0
  7  8  1  0  0  0  0
  7  9  1  0  0  0  0
  9 10  1  0  0  0  0
  9 11  1  0  0  0  0
  9 22  1  0  0  0  0
 11 12  1  0  0  0  0
 11 13  1  0  0  0  0
 11 14  1  0  0  0  0
 14 15  1  0  0  0  0
 14 16  1  0  0  0  0
 14 17  1  0  0  0  0
 17 18  1  0  0  0  0
 18 19  1  0  0  0  0
 18 20  1  0  0  0  0
 18 21  1  0  0  0  0
 22 23  2  0  0  0  0
 22 24  1  0  0  0  0
 24 25  1  0  0  0  0
 24 26  1  0  0  0  0
 26 27  1  0  0  0  0
 26 28  1  0  0  0  0
 26 29  1  0  0  0  0
M  END
$$$$

  -OEChem-01062216093D

 29 28  0     1  0  0  0  0  0999 V2000
   -3.6421   -3.2254    0.5849 H   0  0  0  0  0  0  0  0  0  0  0  0
   -3.5049   -2.2292    0.1547 C   0  0  0  0  0  0  0  0  0  0  0  0
   -4.3258   -1.5877    0.4833 H   0  0  0  0  0  0  0  0  0  0  0  0
   -3.5272   -2.3132   -0.9345 H   0  0  0  0  0  0  0  0  0  0  0  0
   -2.1780   -1.6443    0.6013 C   0  0  0  0  0  0  0  0  0  0  0  0
   -1.5058   -2.2754    1.3976 O   0  0  0  0  0  0  0  0  0  0  0  0
   -1.8273   -0.3891    0.1319 N   0  0  0  0  0  0  0  0  0  0  0  0
   -2.4853   -0.0130   -0.5431 H   0  0  0  0  0  0  0  0  0  0  0  0
   -0.5028    0.2764    0.1799 C   0  0  1  0  0  0  0  0  0  0  0  0
   -0.7008    1.3502    0.1477 H   0  0  0  0  0  0  0  0  0  0  0  0
    0.3623    0.0162    1.4353 C   0  0  0  0  0  0  0  0  0  0  0  0
    0.5564   -1.0517    1.5619 H   0  0  0  0  0  0  0  0  0  0  0  0
    1.3409    0.4813    1.2880 H   0  0  0  0  0  0  0  0  0  0  0  0
   -0.2573    0.5988    2.7126 C   0  0  0  0  0  0  0  0  0  0  0  0
   -1.2357    0.1368    2.8795 H   0  0  0  0  0  0  0  0  0  0  0  0
    0.3739    0.3430    3.5694 H   0  0  0  0  0  0  0  0  0  0  0  0
   -0.4588    2.4295    2.6325 S   0  0  0  0  0  0  0  0  0  0  0  0
    1.2745    3.0362    2.6759 C   0  0  0  0  0  0  0  0  0  0  0  0
    1.8164    2.7189    1.7809 H   0  0  0  0  0  0  0  0  0  0  0  0
    1.2866    4.1293    2.7203 H   0  0  0  0  0  0  0  0  0  0  0  0
    1.7899    2.6450    3.5584 H   0  0  0  0  0  0  0  0  0  0  0  0
    0.3288   -0.0454   -1.0819 C   0  0  0  0  0  0  0  0  0  0  0  0
    0.5511   -1.1986   -1.4239 O   0  0  0  0  0  0  0  0  0  0  0  0
    0.7490    0.9824   -1.9080 N   0  0  0  0  0  0  0  0  0  0  0  0
    0.5649    1.9351   -1.6086 H   0  0  0  0  0  0  0  0  0  0  0  0
    1.5135    0.7621   -3.1303 C   0  0  0  0  0  0  0  0  0  0  0  0
    0.9528    0.1279   -3.8253 H   0  0  0  0  0  0  0  0  0  0  0  0
    1.7203    1.7159   -3.6247 H   0  0  0  0  0  0  0  0  0  0  0  0
    2.4681    0.2758   -2.9026 H   0  0  0  0  0  0  0  0  0  0  0  0
  1  2  1  0  0  0  0
  2  3  1  0  0  0  0
  2  4  1  0  0  0  0
  2  5  1  0  0  0  0
  5  6  2  0  0  0  0
  5  7  1  0  0  0  0
  7  8  1  0  0  0  0
  7  9  1  0  0  0  0
  9 10  1  0  0  0  0
  9 11  1  0  0  0  0
  9 22  1  0  0  0  0
 11 12  1  0  0  0  0
 11 13  1  0  0  0  0
 11 14  1  0  0  0  0
 14 15  1  0  0  0  0
 14 16  1  0  0  0  0
 14 17  1  0  0  0  0
 17 18  1  0  0  0  0
 18 19  1  0  0  0  0
 18 20  1  0  0  0  0
 18 21  1  0  0  0  0
 22 23  2  0  0  0  0
 22 24  1  0  0  0  0
 24 25  1  0  0  0  0
 24 26  1  0  0  0  0
 26 27  1  0  0  0  0
 26 28  1  0  0  0  0
 26 29  1  0  0  0  0
M  END
$$$$

  -OEChem-01062216093D

 29 28  0     1  0  0  0  0  0999 V2000
   -3.6228   -3.2415    0.5600 H   0  0  0  0  0  0  0  0  0  0  0  0
   -3.4938   -2.2416    0.1362 C   0  0  0  0  0  0  0  0  0  0  0  0
   -4.3340   -1.6164    0.4470 H   0  0  0  0  0  0  0  0  0  0  0  0
   -3.4880   -2.3222   -0.9535 H   0  0  0  0  0  0  0  0  0  0  0  0
   -2.1889   -1.6339    0.6161 C   0  0  0  0  0  0  0  0  0  0  0  0
   -1.5314   -2.2478    1.4385 O   0  0  0  0  0  0  0  0  0  0  0  0
   -1.8384   -0.3796    0.1439 N   0  0  0  0  0  0  0  0  0  0  0  0
   -2.4695   -0.0336   -0.5720 H   0  0  0  0  0  0  0  0  0  0  0  0
   -0.5088    0.2772    0.1894 C   0  0  1  0  0  0  0  0  0  0  0  0
   -0.7054    1.3514    0.1525 H   0  0  0  0  0  0  0  0  0  0  0  0
    0.3585    0.0164    1.4436 C   0  0  0  0  0  0  0  0  0  0  0  0
    0.5474   -1.0522    1.5728 H   0  0  0  0  0  0  0  0  0  0  0  0
    1.3396    0.4758    1.2936 H   0  0  0  0  0  0  0  0  0  0  0  0
   -0.2536    0.6072    2.7209 C   0  0  0  0  0  0  0  0  0  0  0  0
   -1.2350    0.1529    2.8920 H   0  0  0  0  0  0  0  0  0  0  0  0
    0.3777    0.3505    3.5771 H   0  0  0  0  0  0  0  0  0  0  0  0
   -0.4434    2.4386    2.6338 S   0  0  0  0  0  0  0  0  0  0  0  0
    1.2932    3.0372    2.6697 C   0  0  0  0  0  0  0  0  0  0  0  0
    1.8335    2.7075    1.7784 H   0  0  0  0  0  0  0  0  0  0  0  0
    1.3108    4.1307    2.7020 H   0  0  0  0  0  0  0  0  0  0  0  0
    1.8072    2.6535    3.5562 H   0  0  0  0  0  0  0  0  0  0  0  0
    0.3257   -0.0443   -1.0713 C   0  0  0  0  0  0  0  0  0  0  0  0
    0.2895   -1.1495   -1.5961 O   0  0  0  0  0  0  0  0  0  0  0  0
    1.0113    0.9709   -1.7153 N   0  0  0  0  0  0  0  0  0  0  0  0
    1.0176    1.8874   -1.2778 H   0  0  0  0  0  0  0  0  0  0  0  0
    1.7856    0.7654   -2.9342 C   0  0  0  0  0  0  0  0  0  0  0  0
    1.1438    0.3916   -3.7391 H   0  0  0  0  0  0  0  0  0  0  0  0
    2.2346    1.7082   -3.2614 H   0  0  0  0  0  0  0  0  0  0  0  0
    2.5889    0.0417   -2.7598 H   0  0  0  0  0  0  0  0  0  0  0  0
  1  2  1  0  0  0  0
  2  3  1  0  0  0  0
  2  4  1  0  0  0  0
  2  5  1  0  0  0  0
  5  6  2  0  0  0  0
  5  7  1  0  0  0  0
  7  8  1  0  0  0  0
  7  9  1  0  0  0  0
  9 10  1  0  0  0  0
  9 11  1  0  0  0  0
  9 22  1  0  0  0  0
 11 12  1  0  0  0  0
 11 13  1  0  0  0  0
 11 14  1  0  0  0  0
 14 15  1  0  0  0  0
 14 16  1  0  0  0  0
 14 17  1  0  0  0  0
 17 18  1  0  0  0  0
 18 19  1  0  0  0  0
 18 20  1  0  0  0  0
 18 21  1  0  0  0  0
 22 23  2  0  0  0  0
 22 24  1  0  0  0  0
 24 25  1  0  0  0  0
 24 26  1  0  0  0  0
 26 27  1  0  0  0  0
 26 28  1  0  0  0  0
 26 29  1  0  0  0  0
M  END
$$$$

  -OEChem-01062216093D

 29 28  0     1  0  0  0  0  0999 V2000
   -3.6213   -3.2407    0.5528 H   0  0  0  0  0  0  0  0  0  0  0  0
   -3.4873   -2.2416    0.1284 C   0  0  0  0  0  0  0  0  0  0  0  0
   -4.3323   -1.6158    0.4254 H   0  0  0  0  0  0  0  0  0  0  0  0
   -3.4663   -2.3246   -0.9611 H   0  0  0  0  0  0  0  0  0  0  0  0
   -2.1894   -1.6315    0.6242 C   0  0  0  0  0  0  0  0  0  0  0  0
   -1.5324   -2.2490    1.4447 O   0  0  0  0  0  0  0  0  0  0  0  0
   -1.8344   -0.3788    0.1525 N   0  0  0  0  0  0  0  0  0  0  0  0
   -2.4495   -0.0474   -0.5841 H   0  0  0  0  0  0  0  0  0  0  0  0
   -0.5023    0.2734    0.1975 C   0  0  1  0  0  0  0  0  0  0  0  0
   -0.6937    1.3485    0.1537 H   0  0  0  0  0  0  0  0  0  0  0  0
    0.3571    0.0144    1.4586 C   0  0  0  0  0  0  0  0  0  0  0  0
    0.5403   -1.0541    1.5948 H   0  0  0  0  0  0  0  0  0  0  0  0
    1.3411    0.4685    1.3150 H   0  0  0  0  0  0  0  0  0  0  0  0
   -0.2594    0.6149    2.7293 C   0  0  0  0  0  0  0  0  0  0  0  0
   -1.2439    0.1664    2.8971 H   0  0  0  0  0  0  0  0  0  0  0  0
    0.3656    0.3596    3.5905 H   0  0  0  0  0  0  0  0  0  0  0  0
   -0.4395    2.4470    2.6328 S   0  0  0  0  0  0  0  0  0  0  0  0
    1.2986    3.0409    2.6759 C   0  0  0  0  0  0  0  0  0  0  0  0
    1.8427    2.7075    1.7883 H   0  0  0  0  0  0  0  0  0  0  0  0
    1.3188    4.1345    2.7055 H   0  0  0  0  0  0  0  0  0  0  0  0
    1.8064    2.6584    3.5664 H   0  0  0  0  0  0  0  0  0  0  0  0
    0.3324   -0.0504   -1.0638 C   0  0  0  0  0  0  0  0  0  0  0  0
    0.0843   -1.0269   -1.7605 O   0  0  0  0  0  0  0  0  0  0  0  0
    1.2587    0.8688   -1.5251 N   0  0  0  0  0  0  0  0  0  0  0  0
    1.4320    1.6903   -0.9537 H   0  0  0  0  0  0  0  0  0  0  0  0
    2.0349    0.6808   -2.7457 C   0  0  0  0  0  0  0  0  0  0  0  0
    1.3718    0.5922   -3.6129 H   0  0  0  0  0  0  0  0  0  0  0  0
    2.7005    1.5342   -2.9066 H   0  0  0  0  0  0  0  0  0  0  0  0
    2.6455   -0.2257   -2.6750 H   0  0  0  0  0  0  0  0  0  0  0  0
  1  2  1  0  0  0  0
  2  3  1  0  0  0  0
  2  4  1  0  0  0  0
  2  5  1  0  0  0  0
  5  6  2  0  0  0  0
  5  7  1  0  0  0  0
  7  8  1  0  0  0  0
  7  9  1  0  0  0  0
  9 10  1  0  0  0  0
  9 11  1  0  0  0  0
  9 22  1  0  0  0  0
 11 12  1  0  0  0  0
 11 13  1  0  0  0  0
 11 14  1  0  0  0  0
 14 15  1  0  0  0  0
 14 16  1  0  0  0  0
 14 17  1  0  0  0  0
 17 18  1  0  0  0  0
 18 19  1  0  0  0  0
 18 20  1  0  0  0  0
 18 21  1  0  0  0  0
 22 23  2  0  0  0  0
 22 24  1  0  0  0  0
 24 25  1  0  0  0  0
 24 26  1  0  0  0  0
 26 27  1  0  0  0  0
 26 28  1  0  0  0  0
 26 29  1  0  0  0  0
M  END
$$$$

  -OEChem-01062216093D

 29 28  0     1  0  0  0  0  0999 V2000
   -3.6211   -3.2331    0.5536 H   0  0  0  0  0  0  0  0  0  0  0  0
   -3.4868   -2.2305    0.1377 C   0  0  0  0  0  0  0  0  0  0  0  0
   -4.3233   -1.6029    0.4539 H   0  0  0  0  0  0  0  0  0  0  0  0
   -3.4825   -2.3017   -0.9529 H   0  0  0  0  0  0  0  0  0  0  0  0
   -2.1782   -1.6333    0.6207 C   0  0  0  0  0  0  0  0  0  0  0  0
   -1.5098   -2.2659    1.4202 O   0  0  0  0  0  0  0  0  0  0  0  0
   -1.8198   -0.3806    0.1530 N   0  0  0  0  0  0  0  0  0  0  0  0
   -2.4272   -0.0516   -0.5917 H   0  0  0  0  0  0  0  0  0  0  0  0
   -0.4888    0.2733    0.2014 C   0  0  1  0  0  0  0  0  0  0  0  0
   -0.6760    1.3489    0.1530 H   0  0  0  0  0  0  0  0  0  0  0  0
    0.3582    0.0132    1.4735 C   0  0  0  0  0  0  0  0  0  0  0  0
    0.5407   -1.0546    1.6131 H   0  0  0  0  0  0  0  0  0  0  0  0
    1.3441    0.4673    1.3459 H   0  0  0  0  0  0  0  0  0  0  0  0
   -0.2733    0.6168    2.7356 C   0  0  0  0  0  0  0  0  0  0  0  0
   -1.2608    0.1699    2.8907 H   0  0  0  0  0  0  0  0  0  0  0  0
    0.3399    0.3611    3.6053 H   0  0  0  0  0  0  0  0  0  0  0  0
   -0.4508    2.4487    2.6356 S   0  0  0  0  0  0  0  0  0  0  0  0
    1.2860    3.0439    2.6992 C   0  0  0  0  0  0  0  0  0  0  0  0
    1.8403    2.7119    1.8176 H   0  0  0  0  0  0  0  0  0  0  0  0
    1.3046    4.1375    2.7297 H   0  0  0  0  0  0  0  0  0  0  0  0
    1.7845    2.6615    3.5950 H   0  0  0  0  0  0  0  0  0  0  0  0
    0.3423   -0.0538   -1.0636 C   0  0  0  0  0  0  0  0  0  0  0  0
   -0.0635   -0.8511   -1.9015 O   0  0  0  0  0  0  0  0  0  0  0  0
    1.4698    0.6920   -1.3613 N   0  0  0  0  0  0  0  0  0  0  0  0
    1.7709    1.3817   -0.6798 H   0  0  0  0  0  0  0  0  0  0  0  0
    2.2580    0.5069   -2.5744 C   0  0  0  0  0  0  0  0  0  0  0  0
    1.6410    0.6773   -3.4630 H   0  0  0  0  0  0  0  0  0  0  0  0
    3.0934    1.2132   -2.5943 H   0  0  0  0  0  0  0  0  0  0  0  0
    2.6633   -0.5097   -2.6164 H   0  0  0  0  0  0  0  0  0  0  0  0
  1  2  1  0  0  0  0
  2  3  1  0  0  0  0
  2  4  1  0  0  0  0
  2  5  1  0  0  0  0
  5  6  2  0  0  0  0
  5  7  1  0  0  0  0
  7  8  1  0  0  0  0
  7  9  1  0  0  0  0
  9 10  1  0  0  0  0
  9 11  1  0  0  0  0
  9 22  1  0  0  0  0
 11 12  1  0  0  0  0
 11 13  1  0  0  0  0
 11 14  1  0  0  0  0
 14 15  1  0  0  0  0
 14 16  1  0  0  0  0
 14 17  1  0  0  0  0
 17 18  1  0  0  0  0
 18 19  1  0  0  0  0
 18 20  1  0  0  0  0
 18 21  1  0  0  0  0
 22 23  2  0  0  0  0
 22 24  1  0  0  0  0
 24 25  1  0  0  0  0
 24 26  1  0  0  0  0
 26 27  1  0  0  0  0
 26 28  1  0  0  0  0
 26 29  1  0  0  0  0
M  END
$$$$

  -OEChem-01062216093D

 29 28  0     1  0  0  0  0  0999 V2000
   -3.7242   -3.1714    0.5419 H   0  0  0  0  0  0  0  0  0  0  0  0
   -3.5475   -2.1688    0.1421 C   0  0  0  0  0  0  0  0  0  0  0  0
   -4.3256   -1.4988    0.5156 H   0  0  0  0  0  0  0  0  0  0  0  0
   -3.6037   -2.2109   -0.9486 H   0  0  0  0  0  0  0  0  0  0  0  0
   -2.1811   -1.6662    0.5698 C   0  0  0  0  0  0  0  0  0  0  0  0
   -1.4888   -2.3904    1.2650 O   0  0  0  0  0  0  0  0  0  0  0  0
   -1.7842   -0.4130    0.1357 N   0  0  0  0  0  0  0  0  0  0  0  0
   -2.4017   -0.0275   -0.5747 H   0  0  0  0  0  0  0  0  0  0  0  0
   -0.4491    0.2336    0.1939 C   0  0  1  0  0  0  0  0  0  0  0  0
   -0.6332    1.2875    0.4176 H   0  0  0  0  0  0  0  0  0  0  0  0
    0.5343   -0.2839    1.2767 C   0  0  0  0  0  0  0  0  0  0  0  0
    0.7097   -1.3555    1.1485 H   0  0  0  0  0  0  0  0  0  0  0  0
    1.5058    0.1983    1.1484 H   0  0  0  0  0  0  0  0  0  0  0  0
    0.0610    0.0091    2.7101 C   0  0  0  0  0  0  0  0  0  0  0  0
   -0.9045   -0.4738    2.8862 H   0  0  0  0  0  0  0  0  0  0  0  0
    0.7726   -0.4225    3.4206 H   0  0  0  0  0  0  0  0  0  0  0  0
   -0.1127    1.8135    3.0431 S   0  0  0  0  0  0  0  0  0  0  0  0
    1.6230    2.4145    3.0340 C   0  0  0  0  0  0  0  0  0  0  0  0
    2.0643    2.3031    2.0403 H   0  0  0  0  0  0  0  0  0  0  0  0
    1.6526    3.4728    3.3102 H   0  0  0  0  0  0  0  0  0  0  0  0
    2.2227    1.8494    3.7538 H   0  0  0  0  0  0  0  0  0  0  0  0
    0.2082    0.2360   -1.2097 C   0  0  0  0  0  0  0  0  0  0  0  0
   -0.4277   -0.1270   -2.1937 O   0  0  0  0  0  0  0  0  0  0  0  0
    1.4625    0.7869   -1.4095 N   0  0  0  0  0  0  0  0  0  0  0  0
    1.9711    1.1063   -0.5912 H   0  0  0  0  0  0  0  0  0  0  0  0
    2.1065    0.8660   -2.7156 C   0  0  0  0  0  0  0  0  0  0  0  0
    1.4976    1.4556   -3.4092 H   0  0  0  0  0  0  0  0  0  0  0  0
    3.0868    1.3437   -2.6261 H   0  0  0  0  0  0  0  0  0  0  0  0
    2.2469   -0.1362   -3.1344 H   0  0  0  0  0  0  0  0  0  0  0  0
  1  2  1  0  0  0  0
  2  3  1  0  0  0  0
  2  4  1  0  0  0  0
  2  5  1  0  0  0  0
  5  6  2  0  0  0  0
  5  7  1  0  0  0  0
  7  8  1  0  0  0  0
  7  9  1  0  0  0  0
  9 10  1  0  0  0  0
  9 11  1  0  0  0  0
  9 22  1  0  0  0  0
 11 12  1  0  0  0  0
 11 13  1  0  0  0  0
 11 14  1  0  0  0  0
 14 15  1  0  0  0  0
 14 16  1  0  0  0  0
 14 17  1  0  0  0  0
 17 18  1  0  0  0  0
 18 19  1  0  0  0  0
 18 20  1  0  0  0  0
 18 21  1  0  0  0  0
 22 23  2  0  0  0  0
 22 24  1  0  0  0  0
 24 25  1  0  0  0  0
 24 26  1  0  0  0  0
 26 27  1  0  0  0  0
 26 28  1  0  0  0  0
 26 29  1  0  0  0  0
M  END
$$$$

  -OEChem-01062216093D

 29 28  0     1  0  0  0  0  0999 V2000
   -3.7191   -3.1627    0.5271 H   0  0  0  0  0  0  0  0  0  0  0  0
   -3.5398   -2.1558    0.1397 C   0  0  0  0  0  0  0  0  0  0  0  0
   -4.3065   -1.4851    0.5350 H   0  0  0  0  0  0  0  0  0  0  0  0
   -3.6128   -2.1808   -0.9504 H   0  0  0  0  0  0  0  0  0  0  0  0
   -2.1631   -1.6703    0.5545 C   0  0  0  0  0  0  0  0  0  0  0  0
   -1.4635   -2.4096    1.2260 O   0  0  0  0  0  0  0  0  0  0  0  0
   -1.7608   -0.4153    0.1323 N   0  0  0  0  0  0  0  0  0  0  0  0
   -2.3816   -0.0106   -0.5652 H   0  0  0  0  0  0  0  0  0  0  0  0
   -0.4282    0.2338    0.2043 C   0  0  1  0  0  0  0  0  0  0  0  0
   -0.6120    1.2883    0.4251 H   0  0  0  0  0  0  0  0  0  0  0  0
    0.5403   -0.2829    1.3024 C   0  0  0  0  0  0  0  0  0  0  0  0
    0.7233   -1.3536    1.1781 H   0  0  0  0  0  0  0  0  0  0  0  0
    1.5104    0.2064    1.1937 H   0  0  0  0  0  0  0  0  0  0  0  0
    0.0451    0.0123    2.7276 C   0  0  0  0  0  0  0  0  0  0  0  0
   -0.9223   -0.4723    2.8882 H   0  0  0  0  0  0  0  0  0  0  0  0
    0.7458   -0.4173    3.4501 H   0  0  0  0  0  0  0  0  0  0  0  0
   -0.1342    1.8170    3.0549 S   0  0  0  0  0  0  0  0  0  0  0  0
    1.6009    2.4202    3.0714 C   0  0  0  0  0  0  0  0  0  0  0  0
    2.0553    2.3157    2.0825 H   0  0  0  0  0  0  0  0  0  0  0  0
    1.6250    3.4770    3.3537 H   0  0  0  0  0  0  0  0  0  0  0  0
    2.1922    1.8518    3.7956 H   0  0  0  0  0  0  0  0  0  0  0  0
    0.2239    0.2359   -1.2030 C   0  0  0  0  0  0  0  0  0  0  0  0
   -0.4800    0.1136   -2.2003 O   0  0  0  0  0  0  0  0  0  0  0  0
    1.5721    0.4936   -1.3842 N   0  0  0  0  0  0  0  0  0  0  0  0
    2.1488    0.5781   -0.5535 H   0  0  0  0  0  0  0  0  0  0  0  0
    2.2138    0.5346   -2.6931 C   0  0  0  0  0  0  0  0  0  0  0  0
    1.7369    1.2859   -3.3316 H   0  0  0  0  0  0  0  0  0  0  0  0
    3.2713    0.7948   -2.5875 H   0  0  0  0  0  0  0  0  0  0  0  0
    2.1441   -0.4416   -3.1846 H   0  0  0  0  0  0  0  0  0  0  0  0
  1  2  1  0  0  0  0
  2  3  1  0  0  0  0
  2  4  1  0  0  0  0
  2  5  1  0  0  0  0
  5  6  2  0  0  0  0
  5  7  1  0  0  0  0
  7  8  1  0  0  0  0
  7  9  1  0  0  0  0
  9 10  1  0  0  0  0
  9 11  1  0  0  0  0
  9 22  1  0  0  0  0
 11 12  1  0  0  0  0
 11 13  1  0  0  0  0
 11 14  1  0  0  0  0
 14 15  1  0  0  0  0
 14 16  1  0  0  0  0
 14 17  1  0  0  0  0
 17 18  1  0  0  0  0
 18 19  1  0  0  0  0
 18 20  1  0  0  0  0
 18 21  1  0  0  0  0
 22 23  2  0  0  0  0
 22 24  1  0  0  0  0
 24 25  1  0  0  0  0
 24 26  1  0  0  0  0
 26 27  1  0  0  0  0
 26 28  1  0  0  0  0
 26 29  1  0  0  0  0
M  END
$$$$

  -OEChem-01062216093D

 29 28  0     1  0  0  0  0  0999 V2000
   -3.7175   -3.1518    0.5305 H   0  0  0  0  0  0  0  0  0  0  0  0
   -3.5354   -2.1448    0.1443 C   0  0  0  0  0  0  0  0  0  0  0  0
   -4.2872   -1.4684    0.5584 H   0  0  0  0  0  0  0  0  0  0  0  0
   -3.6312   -2.1634   -0.9441 H   0  0  0  0  0  0  0  0  0  0  0  0
   -2.1457   -1.6757    0.5336 C   0  0  0  0  0  0  0  0  0  0  0  0
   -1.4334   -2.4305    1.1737 O   0  0  0  0  0  0  0  0  0  0  0  0
   -1.7406   -0.4187    0.1215 N   0  0  0  0  0  0  0  0  0  0  0  0
   -2.3745    0.0153   -0.5463 H   0  0  0  0  0  0  0  0  0  0  0  0
   -0.4109    0.2321    0.2098 C   0  0  1  0  0  0  0  0  0  0  0  0
   -0.5964    1.2872    0.4274 H   0  0  0  0  0  0  0  0  0  0  0  0
    0.5467   -0.2801    1.3192 C   0  0  0  0  0  0  0  0  0  0  0  0
    0.7383   -1.3496    1.1993 H   0  0  0  0  0  0  0  0  0  0  0  0
    1.5135    0.2187    1.2204 H   0  0  0  0  0  0  0  0  0  0  0  0
    0.0345    0.0149    2.7381 C   0  0  0  0  0  0  0  0  0  0  0  0
   -0.9333   -0.4739    2.8868 H   0  0  0  0  0  0  0  0  0  0  0  0
    0.7284   -0.4110    3.4694 H   0  0  0  0  0  0  0  0  0  0  0  0
   -0.1552    1.8192    3.0622 S   0  0  0  0  0  0  0  0  0  0  0  0
    1.5770    2.4298    3.0977 C   0  0  0  0  0  0  0  0  0  0  0  0
    2.0432    2.3225    2.1146 H   0  0  0  0  0  0  0  0  0  0  0  0
    1.5934    3.4879    3.3754 H   0  0  0  0  0  0  0  0  0  0  0  0
    2.1624    1.8674    3.8311 H   0  0  0  0  0  0  0  0  0  0  0  0
    0.2432    0.2345   -1.1954 C   0  0  0  0  0  0  0  0  0  0  0  0
   -0.4705    0.3508   -2.1861 O   0  0  0  0  0  0  0  0  0  0  0  0
    1.6150    0.1866   -1.3770 N   0  0  0  0  0  0  0  0  0  0  0  0
    2.1882    0.0199   -0.5562 H   0  0  0  0  0  0  0  0  0  0  0  0
    2.2495    0.1777   -2.6899 C   0  0  0  0  0  0  0  0  0  0  0  0
    1.9573    1.0636   -3.2637 H   0  0  0  0  0  0  0  0  0  0  0  0
    3.3386    0.1811   -2.5838 H   0  0  0  0  0  0  0  0  0  0  0  0
    1.9578   -0.7170   -3.2498 H   0  0  0  0  0  0  0  0  0  0  0  0
  1  2  1  0  0  0  0
  2  3  1  0  0  0  0
  2  4  1  0  0  0  0
  2  5  1  0  0  0  0
  5  6  2  0  0  0  0
  5  7  1  0  0  0  0
  7  8  1  0  0  0  0
  7  9  1  0  0  0  0
  9 10  1  0  0  0  0
  9 11  1  0  0  0  0
  9 22  1  0  0  0  0
 11 12  1  0  0  0  0
 11 13  1  0  0  0  0
 11 14  1  0  0  0  0
 14 15  1  0  0  0  0
 14 16  1  0  0  0  0
 14 17  1  0  0  0  0
 17 18  1  0  0  0  0
 18 19  1  0  0  0  0
 18 20  1  0  0  0  0
 18 21  1  0  0  0  0
 22 23  2  0  0  0  0
 22 24  1  0  0  0  0
 24 25  1  0  0  0  0
 24 26  1  0  0  0  0
 26 27  1  0  0  0  0
 26 28  1  0  0  0  0
 26 29  1  0  0  0  0
M  END
$$$$

  -OEChem-01062216093D

 29 28  0     1  0  0  0  0  0999 V2000
   -3.7221   -3.1386    0.5520 H   0  0  0  0  0  0  0  0  0  0  0  0
   -3.5389   -2.1333    0.1624 C   0  0  0  0  0  0  0  0  0  0  0  0
   -4.2700   -1.4488    0.5994 H   0  0  0  0  0  0  0  0  0  0  0  0
   -3.6661   -2.1482   -0.9229 H   0  0  0  0  0  0  0  0  0  0  0  0
   -2.1327   -1.6825    0.5121 C   0  0  0  0  0  0  0  0  0  0  0  0
   -1.4042   -2.4530    1.1141 O   0  0  0  0  0  0  0  0  0  0  0  0
   -1.7262   -0.4246    0.1050 N   0  0  0  0  0  0  0  0  0  0  0  0
   -2.3813    0.0425   -0.5184 H   0  0  0  0  0  0  0  0  0  0  0  0
   -0.3993    0.2276    0.2068 C   0  0  1  0  0  0  0  0  0  0  0  0
   -0.5890    1.2827    0.4224 H   0  0  0  0  0  0  0  0  0  0  0  0
    0.5519   -0.2788    1.3232 C   0  0  0  0  0  0  0  0  0  0  0  0
    0.7494   -1.3478    1.2086 H   0  0  0  0  0  0  0  0  0  0  0  0
    1.5160    0.2268    1.2245 H   0  0  0  0  0  0  0  0  0  0  0  0
    0.0288    0.0154    2.7379 C   0  0  0  0  0  0  0  0  0  0  0  0
   -0.9374   -0.4787    2.8793 H   0  0  0  0  0  0  0  0  0  0  0  0
    0.7202   -0.4062    3.4740 H   0  0  0  0  0  0  0  0  0  0  0  0
   -0.1719    1.8186    3.0605 S   0  0  0  0  0  0  0  0  0  0  0  0
    1.5579    2.4361    3.1074 C   0  0  0  0  0  0  0  0  0  0  0  0
    2.0326    2.3252    2.1287 H   0  0  0  0  0  0  0  0  0  0  0  0
    1.5687    3.4959    3.3795 H   0  0  0  0  0  0  0  0  0  0  0  0
    2.1394    1.8794    3.8484 H   0  0  0  0  0  0  0  0  0  0  0  0
    0.2635    0.2296   -1.1920 C   0  0  0  0  0  0  0  0  0  0  0  0
   -0.4045    0.5689   -2.1623 O   0  0  0  0  0  0  0  0  0  0  0  0
    1.5894   -0.1175   -1.3881 N   0  0  0  0  0  0  0  0  0  0  0  0
    2.0889   -0.5033   -0.5926 H   0  0  0  0  0  0  0  0  0  0  0  0
    2.2138   -0.1766   -2.7043 C   0  0  0  0  0  0  0  0  0  0  0  0
    2.1378    0.7924   -3.2090 H   0  0  0  0  0  0  0  0  0  0  0  0
    3.2735   -0.4317   -2.6090 H   0  0  0  0  0  0  0  0  0  0  0  0
    1.7278   -0.9364   -3.3252 H   0  0  0  0  0  0  0  0  0  0  0  0
  1  2  1  0  0  0  0
  2  3  1  0  0  0  0
  2  4  1  0  0  0  0
  2  5  1  0  0  0  0
  5  6  2  0  0  0  0
  5  7  1  0  0  0  0
  7  8  1  0  0  0  0
  7  9  1  0  0  0  0
  9 10  1  0  0  0  0
  9 11  1  0  0  0  0
  9 22  1  0  0  0  0
 11 12  1  0  0  0  0
 11 13  1  0  0  0  0
 11 14  1  0  0  0  0
 14 15  1  0  0  0  0
 14 16  1  0  0  0  0
 14 17  1  0  0  0  0
 17 18  1  0  0  0  0
 18 19  1  0  0  0  0
 18 20  1  0  0  0  0
 18 21  1  0  0  0  0
 22 23  2  0  0  0  0
 22 24  1  0  0  0  0
 24 25  1  0  0  0  0
 24 26  1  0  0  0  0
 26 27  1  0  0  0  0
 26 28  1  0  0  0  0
 26 29  1  0  0  0  0
M  END
$$$$

  -OEChem-01062216093D

 29 28  0     1  0  0  0  0  0999 V2000
   -3.7291   -3.1237    0.5830 H   0  0  0  0  0  0  0  0  0  0  0  0
   -3.5459   -2.1195    0.1905 C   0  0  0  0  0  0  0  0  0  0  0  0
   -4.2503   -1.4263    0.6563 H   0  0  0  0  0  0  0  0  0  0  0  0
   -3.7135   -2.1280   -0.8893 H   0  0  0  0  0  0  0  0  0  0  0  0
   -2.1218   -1.6898    0.4903 C   0  0  0  0  0  0  0  0  0  0  0  0
   -1.3748   -2.4781    1.0444 O   0  0  0  0  0  0  0  0  0  0  0  0
   -1.7146   -0.4321    0.0841 N   0  0  0  0  0  0  0  0  0  0  0  0
   -2.3972    0.0718   -0.4774 H   0  0  0  0  0  0  0  0  0  0  0  0
   -0.3906    0.2216    0.1968 C   0  0  1  0  0  0  0  0  0  0  0  0
   -0.5831    1.2768    0.4098 H   0  0  0  0  0  0  0  0  0  0  0  0
    0.5571   -0.2802    1.3175 C   0  0  0  0  0  0  0  0  0  0  0  0
    0.7586   -1.3487    1.2086 H   0  0  0  0  0  0  0  0  0  0  0  0
    1.5205    0.2278    1.2158 H   0  0  0  0  0  0  0  0  0  0  0  0
    0.0256    0.0124    2.7291 C   0  0  0  0  0  0  0  0  0  0  0  0
   -0.9381   -0.4877    2.8651 H   0  0  0  0  0  0  0  0  0  0  0  0
    0.7154   -0.4058    3.4686 H   0  0  0  0  0  0  0  0  0  0  0  0
   -0.1855    1.8140    3.0518 S   0  0  0  0  0  0  0  0  0  0  0  0
    1.5406    2.4399    3.1076 C   0  0  0  0  0  0  0  0  0  0  0  0
    2.0209    2.3328    2.1310 H   0  0  0  0  0  0  0  0  0  0  0  0
    1.5443    3.4993    3.3808 H   0  0  0  0  0  0  0  0  0  0  0  0
    2.1210    1.8856    3.8510 H   0  0  0  0  0  0  0  0  0  0  0  0
    0.2836    0.2211   -1.1935 C   0  0  0  0  0  0  0  0  0  0  0  0
   -0.2882    0.7687   -2.1285 O   0  0  0  0  0  0  0  0  0  0  0  0
    1.4968   -0.4043   -1.4228 N   0  0  0  0  0  0  0  0  0  0  0  0
    1.8671   -0.9762   -0.6692 H   0  0  0  0  0  0  0  0  0  0  0  0
    2.1051   -0.5055   -2.7437 C   0  0  0  0  0  0  0  0  0  0  0  0
    2.2601    0.4907   -3.1714 H   0  0  0  0  0  0  0  0  0  0  0  0
    3.0762   -1.0051   -2.6751 H   0  0  0  0  0  0  0  0  0  0  0  0
    1.4639   -1.0828   -3.4179 H   0  0  0  0  0  0  0  0  0  0  0  0
  1  2  1  0  0  0  0
  2  3  1  0  0  0  0
  2  4  1  0  0  0  0
  2  5  1  0  0  0  0
  5  6  2  0  0  0  0
  5  7  1  0  0  0  0
  7  8  1  0  0  0  0
  7  9  1  0  0  0  0
  9 10  1  0  0  0  0
  9 11  1  0  0  0  0
  9 22  1  0  0  0  0
 11 12  1  0  0  0  0
 11 13  1  0  0  0  0
 11 14  1  0  0  0  0
 14 15  1  0  0  0  0
 14 16  1  0  0  0  0
 14 17  1  0  0  0  0
 17 18  1  0  0  0  0
 18 19  1  0  0  0  0
 18 20  1  0  0  0  0
 18 21  1  0  0  0  0
 22 23  2  0  0  0  0
 22 24  1  0  0  0  0
 24 25  1  0  0  0  0
 24 26  1  0  0  0  0
 26 27  1  0  0  0  0
 26 28  1  0  0  0  0
 26 29  1  0  0  0  0
M  END
$$$$

  -OEChem-01062216093D

 29 28  0     1  0  0  0  0  0999 V2000
   -3.7443   -3.1009    0.6490 H   0  0  0  0  0  0  0  0  0  0  0  0
   -3.5609   -2.1034    0.2397 C   0  0  0  0  0  0  0  0  0  0  0  0
   -4.2266   -1.3930    0.7361 H   0  0  0  0  0  0  0  0  0  0  0  0
   -3.7836   -2.1153   -0.8301 H   0  0  0  0  0  0  0  0  0  0  0  0
   -2.1149   -1.7015    0.4631 C   0  0  0  0  0  0  0  0  0  0  0  0
   -1.3454   -2.5120    0.9505 O   0  0  0  0  0  0  0  0  0  0  0  0
   -1.7087   -0.4443    0.0563 N   0  0  0  0  0  0  0  0  0  0  0  0
   -2.4207    0.0982   -0.4268 H   0  0  0  0  0  0  0  0  0  0  0  0
   -0.3863    0.2096    0.1798 C   0  0  1  0  0  0  0  0  0  0  0  0
   -0.5826    1.2647    0.3915 H   0  0  0  0  0  0  0  0  0  0  0  0
    0.5569   -0.2878    1.3055 C   0  0  0  0  0  0  0  0  0  0  0  0
    0.7618   -1.3559    1.2026 H   0  0  0  0  0  0  0  0  0  0  0  0
    1.5200    0.2201    1.2019 H   0  0  0  0  0  0  0  0  0  0  0  0
    0.0179    0.0043    2.7139 C   0  0  0  0  0  0  0  0  0  0  0  0
   -0.9444   -0.4997    2.8458 H   0  0  0  0  0  0  0  0  0  0  0  0
    0.7063   -0.4097    3.4575 H   0  0  0  0  0  0  0  0  0  0  0  0
   -0.2002    1.8058    3.0318 S   0  0  0  0  0  0  0  0  0  0  0  0
    1.5242    2.4360    3.0937 C   0  0  0  0  0  0  0  0  0  0  0  0
    2.0112    2.3202    2.1216 H   0  0  0  0  0  0  0  0  0  0  0  0
    1.5235    3.4982    3.3555 H   0  0  0  0  0  0  0  0  0  0  0  0
    2.1010    1.8902    3.8463 H   0  0  0  0  0  0  0  0  0  0  0  0
    0.3066    0.2093   -1.1986 C   0  0  0  0  0  0  0  0  0  0  0  0
   -0.1079    0.9574   -2.0749 O   0  0  0  0  0  0  0  0  0  0  0  0
    1.3478   -0.6559   -1.4848 N   0  0  0  0  0  0  0  0  0  0  0  0
    1.5415   -1.3773   -0.7952 H   0  0  0  0  0  0  0  0  0  0  0  0
    1.9406   -0.7766   -2.8112 C   0  0  0  0  0  0  0  0  0  0  0  0
    2.3274    0.1911   -3.1481 H   0  0  0  0  0  0  0  0  0  0  0  0
    2.7703   -1.4899   -2.7913 H   0  0  0  0  0  0  0  0  0  0  0  0
    1.1962   -1.1290   -3.5329 H   0  0  0  0  0  0  0  0  0  0  0  0
  1  2  1  0  0  0  0
  2  3  1  0  0  0  0
  2  4  1  0  0  0  0
  2  5  1  0  0  0  0
  5  6  2  0  0  0  0
  5  7  1  0  0  0  0
  7  8  1  0  0  0  0
  7  9  1  0  0  0  0
  9 10  1  0  0  0  0
  9 11  1  0  0  0  0
  9 22  1  0  0  0  0
 11 12  1  0  0  0  0
 11 13  1  0  0  0  0
 11 14  1  0  0  0  0
 14 15  1  0  0  0  0
 14 16  1  0  0  0  0
 14 17  1  0  0  0  0
 17 18  1  0  0  0  0
 18 19  1  0  0  0  0
 18 20  1  0  0  0  0
 18 21  1  0  0  0  0
 22 23  2  0  0  0  0
 22 24  1  0  0  0  0
 24 25  1  0  0  0  0
 24 26  1  0  0  0  0
 26 27  1  0  0  0  0
 26 28  1  0  0  0  0
 26 29  1  0  0  0  0
M  END
$$$$

  -OEChem-01062216093D

 29 28  0     1  0  0  0  0  0999 V2000
   -3.7438   -3.0778    0.7331 H   0  0  0  0  0  0  0  0  0  0  0  0
   -3.5711   -2.0881    0.3005 C   0  0  0  0  0  0  0  0  0  0  0  0
   -4.1971   -1.3623    0.8251 H   0  0  0  0  0  0  0  0  0  0  0  0
   -3.8555   -2.1102   -0.7544 H   0  0  0  0  0  0  0  0  0  0  0  0
   -2.1092   -1.7054    0.4347 C   0  0  0  0  0  0  0  0  0  0  0  0
   -1.3146   -2.5370    0.8391 O   0  0  0  0  0  0  0  0  0  0  0  0
   -1.7095   -0.4483    0.0219 N   0  0  0  0  0  0  0  0  0  0  0  0
   -2.4483    0.1275   -0.3742 H   0  0  0  0  0  0  0  0  0  0  0  0
   -0.3886    0.2064    0.1555 C   0  0  1  0  0  0  0  0  0  0  0  0
   -0.5868    1.2614    0.3668 H   0  0  0  0  0  0  0  0  0  0  0  0
    0.5526   -0.2917    1.2814 C   0  0  0  0  0  0  0  0  0  0  0  0
    0.7641   -1.3581    1.1770 H   0  0  0  0  0  0  0  0  0  0  0  0
    1.5139    0.2200    1.1790 H   0  0  0  0  0  0  0  0  0  0  0  0
    0.0090   -0.0067    2.6891 C   0  0  0  0  0  0  0  0  0  0  0  0
   -0.9515   -0.5153    2.8170 H   0  0  0  0  0  0  0  0  0  0  0  0
    0.6979   -0.4203    3.4321 H   0  0  0  0  0  0  0  0  0  0  0  0
   -0.2164    1.7924    3.0143 S   0  0  0  0  0  0  0  0  0  0  0  0
    1.5076    2.4232    3.0827 C   0  0  0  0  0  0  0  0  0  0  0  0
    1.9942    2.3183    2.1088 H   0  0  0  0  0  0  0  0  0  0  0  0
    1.5068    3.4823    3.3568 H   0  0  0  0  0  0  0  0  0  0  0  0
    2.0849    1.8691    3.8288 H   0  0  0  0  0  0  0  0  0  0  0  0
    0.3196    0.1997   -1.2127 C   0  0  0  0  0  0  0  0  0  0  0  0
    0.1203    1.1104   -2.0057 O   0  0  0  0  0  0  0  0  0  0  0  0
    1.1359   -0.8560   -1.5747 N   0  0  0  0  0  0  0  0  0  0  0  0
    1.1251   -1.6656   -0.9582 H   0  0  0  0  0  0  0  0  0  0  0  0
    1.7229   -0.9902   -2.9016 C   0  0  0  0  0  0  0  0  0  0  0  0
    2.3356   -0.1145   -3.1402 H   0  0  0  0  0  0  0  0  0  0  0  0
    2.3610   -1.8780   -2.9446 H   0  0  0  0  0  0  0  0  0  0  0  0
    0.9385   -1.0883   -3.6592 H   0  0  0  0  0  0  0  0  0  0  0  0
  1  2  1  0  0  0  0
  2  3  1  0  0  0  0
  2  4  1  0  0  0  0
  2  5  1  0  0  0  0
  5  6  2  0  0  0  0
  5  7  1  0  0  0  0
  7  8  1  0  0  0  0
  7  9  1  0  0  0  0
  9 10  1  0  0  0  0
  9 11  1  0  0  0  0
  9 22  1  0  0  0  0
 11 12  1  0  0  0  0
 11 13  1  0  0  0  0
 11 14  1  0  0  0  0
 14 15  1  0  0  0  0
 14 16  1  0  0  0  0
 14 17  1  0  0  0  0
 17 18  1  0  0  0  0
 18 19  1  0  0  0  0
 18 20  1  0  0  0  0
 18 21  1  0  0  0  0
 22 23  2  0  0  0  0
 22 24  1  0  0  0  0
 24 25  1  0  0  0  0
 24 26  1  0  0  0  0
 26 27  1  0  0  0  0
 26 28  1  0  0  0  0
 26 29  1  0  0  0  0
M  END
$$$$

  -OEChem-01062216093D

 29 28  0     1  0  0  0  0  0999 V2000
   -3.7333   -3.0659    0.7908 H   0  0  0  0  0  0  0  0  0  0  0  0
   -3.5800   -2.0659    0.3750 C   0  0  0  0  0  0  0  0  0  0  0  0
   -4.1526   -1.3485    0.9679 H   0  0  0  0  0  0  0  0  0  0  0  0
   -3.9458   -2.0521   -0.6546 H   0  0  0  0  0  0  0  0  0  0  0  0
   -2.1067   -1.7061    0.4062 C   0  0  0  0  0  0  0  0  0  0  0  0
   -1.2915   -2.5580    0.7166 O   0  0  0  0  0  0  0  0  0  0  0  0
   -1.7159   -0.4498   -0.0153 N   0  0  0  0  0  0  0  0  0  0  0  0
   -2.4757    0.1509   -0.3248 H   0  0  0  0  0  0  0  0  0  0  0  0
   -0.3964    0.2069    0.1268 C   0  0  1  0  0  0  0  0  0  0  0  0
   -0.5939    1.2622    0.3382 H   0  0  0  0  0  0  0  0  0  0  0  0
    0.5463   -0.2968    1.2479 C   0  0  0  0  0  0  0  0  0  0  0  0
    0.7637   -1.3611    1.1335 H   0  0  0  0  0  0  0  0  0  0  0  0
    1.5055    0.2201    1.1490 H   0  0  0  0  0  0  0  0  0  0  0  0
    0.0010   -0.0264    2.6575 C   0  0  0  0  0  0  0  0  0  0  0  0
   -0.9561   -0.5419    2.7809 H   0  0  0  0  0  0  0  0  0  0  0  0
    0.6924   -0.4433    3.3964 H   0  0  0  0  0  0  0  0  0  0  0  0
   -0.2340    1.7677    3.0004 S   0  0  0  0  0  0  0  0  0  0  0  0
    1.4845    2.4127    3.0766 C   0  0  0  0  0  0  0  0  0  0  0  0
    1.9735    2.3209    2.1026 H   0  0  0  0  0  0  0  0  0  0  0  0
    1.4736    3.4693    3.3602 H   0  0  0  0  0  0  0  0  0  0  0  0
    2.0660    1.8577    3.8185 H   0  0  0  0  0  0  0  0  0  0  0  0
    0.3213    0.1892   -1.2341 C   0  0  0  0  0  0  0  0  0  0  0  0
    0.3791    1.2022   -1.9181 O   0  0  0  0  0  0  0  0  0  0  0  0
    0.8747   -0.9899   -1.6964 N   0  0  0  0  0  0  0  0  0  0  0  0
    0.6730   -1.8266   -1.1509 H   0  0  0  0  0  0  0  0  0  0  0  0
    1.4725   -1.1308   -3.0175 C   0  0  0  0  0  0  0  0  0  0  0  0
    2.2877   -0.4113   -3.1482 H   0  0  0  0  0  0  0  0  0  0  0  0
    1.8800   -2.1388   -3.1418 H   0  0  0  0  0  0  0  0  0  0  0  0
    0.7230   -0.9595   -3.7972 H   0  0  0  0  0  0  0  0  0  0  0  0
  1  2  1  0  0  0  0
  2  3  1  0  0  0  0
  2  4  1  0  0  0  0
  2  5  1  0  0  0  0
  5  6  2  0  0  0  0
  5  7  1  0  0  0  0
  7  8  1  0  0  0  0
  7  9  1  0  0  0  0
  9 10  1  0  0  0  0
  9 11  1  0  0  0  0
  9 22  1  0  0  0  0
 11 12  1  0  0  0  0
 11 13  1  0  0  0  0
 11 14  1  0  0  0  0
 14 15  1  0  0  0  0
 14 16  1  0  0  0  0
 14 17  1  0  0  0  0
 17 18  1  0  0  0  0
 18 19  1  0  0  0  0
 18 20  1  0  0  0  0
 18 21  1  0  0  0  0
 22 23  2  0  0  0  0
 22 24  1  0  0  0  0
 24 25  1  0  0  0  0
 24 26  1  0  0  0  0
 26 27  1  0  0  0  0
 26 28  1  0  0  0  0
 26 29  1  0  0  0  0
M  END
$$$$

  -OEChem-01062216093D

 29 28  0     1  0  0  0  0  0999 V2000
   -3.7316   -3.0612    0.8650 H   0  0  0  0  0  0  0  0  0  0  0  0
   -3.5986   -2.0522    0.4645 C   0  0  0  0  0  0  0  0  0  0  0  0
   -4.1161   -1.3454    1.1178 H   0  0  0  0  0  0  0  0  0  0  0  0
   -4.0418   -2.0078   -0.5334 H   0  0  0  0  0  0  0  0  0  0  0  0
   -2.1231   -1.7081    0.3920 C   0  0  0  0  0  0  0  0  0  0  0  0
   -1.2951   -2.5775    0.6033 O   0  0  0  0  0  0  0  0  0  0  0  0
   -1.7453   -0.4518   -0.0394 N   0  0  0  0  0  0  0  0  0  0  0  0
   -2.5213    0.1674   -0.2587 H   0  0  0  0  0  0  0  0  0  0  0  0
   -0.4248    0.2070    0.0975 C   0  0  1  0  0  0  0  0  0  0  0  0
   -0.6212    1.2622    0.3110 H   0  0  0  0  0  0  0  0  0  0  0  0
    0.5243   -0.3031    1.2089 C   0  0  0  0  0  0  0  0  0  0  0  0
    0.7422   -1.3662    1.0838 H   0  0  0  0  0  0  0  0  0  0  0  0
    1.4824    0.2154    1.1072 H   0  0  0  0  0  0  0  0  0  0  0  0
   -0.0113   -0.0434    2.6241 C   0  0  0  0  0  0  0  0  0  0  0  0
   -0.9665   -0.5611    2.7520 H   0  0  0  0  0  0  0  0  0  0  0  0
    0.6870   -0.4636    3.3545 H   0  0  0  0  0  0  0  0  0  0  0  0
   -0.2455    1.7479    2.9814 S   0  0  0  0  0  0  0  0  0  0  0  0
    1.4741    2.3907    3.0494 C   0  0  0  0  0  0  0  0  0  0  0  0
    1.9538    2.3094    2.0698 H   0  0  0  0  0  0  0  0  0  0  0  0
    1.4674    3.4442    3.3447 H   0  0  0  0  0  0  0  0  0  0  0  0
    2.0619    1.8263    3.7794 H   0  0  0  0  0  0  0  0  0  0  0  0
    0.2981    0.1882   -1.2603 C   0  0  0  0  0  0  0  0  0  0  0  0
    0.6285    1.2309   -1.8084 O   0  0  0  0  0  0  0  0  0  0  0  0
    0.5758   -1.0275   -1.8554 N   0  0  0  0  0  0  0  0  0  0  0  0
    0.2419   -1.8591   -1.3686 H   0  0  0  0  0  0  0  0  0  0  0  0
    1.2351   -1.1666   -3.1465 C   0  0  0  0  0  0  0  0  0  0  0  0
    2.2162   -0.6804   -3.1299 H   0  0  0  0  0  0  0  0  0  0  0  0
    1.3786   -2.2249   -3.3849 H   0  0  0  0  0  0  0  0  0  0  0  0
    0.6288   -0.7116   -3.9366 H   0  0  0  0  0  0  0  0  0  0  0  0
  1  2  1  0  0  0  0
  2  3  1  0  0  0  0
  2  4  1  0  0  0  0
  2  5  1  0  0  0  0
  5  6  2  0  0  0  0
  5  7  1  0  0  0  0
  7  8  1  0  0  0  0
  7  9  1  0  0  0  0
  9 10  1  0  0  0  0
  9 11  1  0  0  0  0
  9 22  1  0  0  0  0
 11 12  1  0  0  0  0
 11 13  1  0  0  0  0
 11 14  1  0  0  0  0
 14 15  1  0  0  0  0
 14 16  1  0  0  0  0
 14 17  1  0  0  0  0
 17 18  1  0  0  0  0
 18 19  1  0  0  0  0
 18 20  1  0  0  0  0
 18 21  1  0  0  0  0
 22 23  2  0  0  0  0
 22 24  1  0  0  0  0
 24 25  1  0  0  0  0
 24 26  1  0  0  0  0
 26 27  1  0  0  0  0
 26 28  1  0  0  0  0
 26 29  1  0  0  0  0
M  END
$$$$

  -OEChem-01062216093D

 29 28  0     1  0  0  0  0  0999 V2000
   -3.7412   -3.0694    0.9280 H   0  0  0  0  0  0  0  0  0  0  0  0
   -3.6228   -2.0524    0.5435 C   0  0  0  0  0  0  0  0  0  0  0  0
   -4.0977   -1.3572    1.2402 H   0  0  0  0  0  0  0  0  0  0  0  0
   -4.1197   -1.9824   -0.4271 H   0  0  0  0  0  0  0  0  0  0  0  0
   -2.1506   -1.7160    0.3988 C   0  0  0  0  0  0  0  0  0  0  0  0
   -1.3180   -2.5922    0.5538 O   0  0  0  0  0  0  0  0  0  0  0  0
   -1.7855   -0.4581   -0.0392 N   0  0  0  0  0  0  0  0  0  0  0  0
   -2.5699    0.1644   -0.2145 H   0  0  0  0  0  0  0  0  0  0  0  0
   -0.4641    0.2064    0.0774 C   0  0  1  0  0  0  0  0  0  0  0  0
   -0.6623    1.2597    0.2971 H   0  0  0  0  0  0  0  0  0  0  0  0
    0.4985   -0.3086    1.1743 C   0  0  0  0  0  0  0  0  0  0  0  0
    0.7142   -1.3711    1.0396 H   0  0  0  0  0  0  0  0  0  0  0  0
    1.4555    0.2101    1.0635 H   0  0  0  0  0  0  0  0  0  0  0  0
   -0.0181   -0.0560    2.5978 C   0  0  0  0  0  0  0  0  0  0  0  0
   -0.9717   -0.5738    2.7369 H   0  0  0  0  0  0  0  0  0  0  0  0
    0.6901   -0.4794    3.3168 H   0  0  0  0  0  0  0  0  0  0  0  0
   -0.2462    1.7342    2.9634 S   0  0  0  0  0  0  0  0  0  0  0  0
    1.4763    2.3717    3.0093 C   0  0  0  0  0  0  0  0  0  0  0  0
    1.9386    2.3001    2.0205 H   0  0  0  0  0  0  0  0  0  0  0  0
    1.4778    3.4216    3.3168 H   0  0  0  0  0  0  0  0  0  0  0  0
    2.0747    1.7974    3.7225 H   0  0  0  0  0  0  0  0  0  0  0  0
    0.2565    0.2008   -1.2828 C   0  0  0  0  0  0  0  0  0  0  0  0
    0.8354    1.2009   -1.6851 O   0  0  0  0  0  0  0  0  0  0  0  0
    0.2708   -0.9577   -2.0357 N   0  0  0  0  0  0  0  0  0  0  0  0
   -0.1459   -1.7810   -1.6017 H   0  0  0  0  0  0  0  0  0  0  0  0
    1.0061   -1.1003   -3.2850 C   0  0  0  0  0  0  0  0  0  0  0  0
    2.0776   -0.9490   -3.1182 H   0  0  0  0  0  0  0  0  0  0  0  0
    0.8576   -2.1025   -3.6983 H   0  0  0  0  0  0  0  0  0  0  0  0
    0.6567   -0.3684   -4.0206 H   0  0  0  0  0  0  0  0  0  0  0  0
  1  2  1  0  0  0  0
  2  3  1  0  0  0  0
  2  4  1  0  0  0  0
  2  5  1  0  0  0  0
  5  6  2  0  0  0  0
  5  7  1  0  0  0  0
  7  8  1  0  0  0  0
  7  9  1  0  0  0  0
  9 10  1  0  0  0  0
  9 11  1  0  0  0  0
  9 22  1  0  0  0  0
 11 12  1  0  0  0  0
 11 13  1  0  0  0  0
 11 14  1  0  0  0  0
 14 15  1  0  0  0  0
 14 16  1  0  0  0  0
 14 17  1  0  0  0  0
 17 18  1  0  0  0  0
 18 19  1  0  0  0  0
 18 20  1  0  0  0  0
 18 21  1  0  0  0  0
 22 23  2  0  0  0  0
 22 24  1  0  0  0  0
 24 25  1  0  0  0  0
 24 26  1  0  0  0  0
 26 27  1  0  0  0  0
 26 28  1  0  0  0  0
 26 29  1  0  0  0  0
M  END
$$$$

  -OEChem-01062216093D

 29 28  0     1  0  0  0  0  0999 V2000
   -3.7548   -3.0623    0.9883 H   0  0  0  0  0  0  0  0  0  0  0  0
   -3.6368   -2.0557    0.5768 C   0  0  0  0  0  0  0  0  0  0  0  0
   -4.1072   -1.3419    1.2576 H   0  0  0  0  0  0  0  0  0  0  0  0
   -4.1392   -2.0098   -0.3926 H   0  0  0  0  0  0  0  0  0  0  0  0
   -2.1649   -1.7260    0.4154 C   0  0  0  0  0  0  0  0  0  0  0  0
   -1.3363   -2.6058    0.5653 O   0  0  0  0  0  0  0  0  0  0  0  0
   -1.8025   -0.4685   -0.0265 N   0  0  0  0  0  0  0  0  0  0  0  0
   -2.5898    0.1556   -0.1813 H   0  0  0  0  0  0  0  0  0  0  0  0
   -0.4803    0.2006    0.0728 C   0  0  1  0  0  0  0  0  0  0  0  0
   -0.6794    1.2532    0.2945 H   0  0  0  0  0  0  0  0  0  0  0  0
    0.4871   -0.3156    1.1650 C   0  0  0  0  0  0  0  0  0  0  0  0
    0.6991   -1.3786    1.0287 H   0  0  0  0  0  0  0  0  0  0  0  0
    1.4457    0.1995    1.0500 H   0  0  0  0  0  0  0  0  0  0  0  0
   -0.0211   -0.0600    2.5911 C   0  0  0  0  0  0  0  0  0  0  0  0
   -0.9745   -0.5761    2.7365 H   0  0  0  0  0  0  0  0  0  0  0  0
    0.6906   -0.4839    3.3064 H   0  0  0  0  0  0  0  0  0  0  0  0
   -0.2435    1.7310    2.9569 S   0  0  0  0  0  0  0  0  0  0  0  0
    1.4802    2.3653    2.9929 C   0  0  0  0  0  0  0  0  0  0  0  0
    1.9369    2.2910    2.0016 H   0  0  0  0  0  0  0  0  0  0  0  0
    1.4852    3.4159    3.2981 H   0  0  0  0  0  0  0  0  0  0  0  0
    2.0818    1.7915    3.7040 H   0  0  0  0  0  0  0  0  0  0  0  0
    0.2412    0.2066   -1.2895 C   0  0  0  0  0  0  0  0  0  0  0  0
    1.0113    1.1140   -1.5747 O   0  0  0  0  0  0  0  0  0  0  0  0
    0.0194   -0.8150   -2.1937 N   0  0  0  0  0  0  0  0  0  0  0  0
   -0.5048   -1.6128   -1.8390 H   0  0  0  0  0  0  0  0  0  0  0  0
    0.7505   -0.9476   -3.4470 C   0  0  0  0  0  0  0  0  0  0  0  0
    1.8207   -1.0759   -3.2545 H   0  0  0  0  0  0  0  0  0  0  0  0
    0.3908   -1.8180   -4.0040 H   0  0  0  0  0  0  0  0  0  0  0  0
    0.6089   -0.0580   -4.0695 H   0  0  0  0  0  0  0  0  0  0  0  0
  1  2  1  0  0  0  0
  2  3  1  0  0  0  0
  2  4  1  0  0  0  0
  2  5  1  0  0  0  0
  5  6  2  0  0  0  0
  5  7  1  0  0  0  0
  7  8  1  0  0  0  0
  7  9  1  0  0  0  0
  9 10  1  0  0  0  0
  9 11  1  0  0  0  0
  9 22  1  0  0  0  0
 11 12  1  0  0  0  0
 11 13  1  0  0  0  0
 11 14  1  0  0  0  0
 14 15  1  0  0  0  0
 14 16  1  0  0  0  0
 14 17  1  0  0  0  0
 17 18  1  0  0  0  0
 18 19  1  0  0  0  0
 18 20  1  0  0  0  0
 18 21  1  0  0  0  0
 22 23  2  0  0  0  0
 22 24  1  0  0  0  0
 24 25  1  0  0  0  0
 24 26  1  0  0  0  0
 26 27  1  0  0  0  0
 26 28  1  0  0  0  0
 26 29  1  0  0  0  0
M  END
$$$$

  -OEChem-01062216093D

 29 28  0     1  0  0  0  0  0999 V2000
   -3.7627   -3.0955    0.9440 H   0  0  0  0  0  0  0  0  0  0  0  0
   -3.6414   -2.0715    0.5791 C   0  0  0  0  0  0  0  0  0  0  0  0
   -4.1103   -1.3886    1.2918 H   0  0  0  0  0  0  0  0  0  0  0  0
   -4.1431   -1.9809   -0.3873 H   0  0  0  0  0  0  0  0  0  0  0  0
   -2.1684   -1.7385    0.4338 C   0  0  0  0  0  0  0  0  0  0  0  0
   -1.3424   -2.6145    0.6131 O   0  0  0  0  0  0  0  0  0  0  0  0
   -1.8081   -0.4797   -0.0100 N   0  0  0  0  0  0  0  0  0  0  0  0
   -2.5978    0.1421   -0.1620 H   0  0  0  0  0  0  0  0  0  0  0  0
   -0.4851    0.1937    0.0757 C   0  0  1  0  0  0  0  0  0  0  0  0
   -0.6866    1.2457    0.2967 H   0  0  0  0  0  0  0  0  0  0  0  0
    0.4828   -0.3185    1.1711 C   0  0  0  0  0  0  0  0  0  0  0  0
    0.6926   -1.3824    1.0397 H   0  0  0  0  0  0  0  0  0  0  0  0
    1.4436    0.1922    1.0558 H   0  0  0  0  0  0  0  0  0  0  0  0
   -0.0226   -0.0527    2.5964 C   0  0  0  0  0  0  0  0  0  0  0  0
   -0.9772   -0.5652    2.7470 H   0  0  0  0  0  0  0  0  0  0  0  0
    0.6887   -0.4736    3.3135 H   0  0  0  0  0  0  0  0  0  0  0  0
   -0.2386    1.7417    2.9493 S   0  0  0  0  0  0  0  0  0  0  0  0
    1.4889    2.3665    2.9770 C   0  0  0  0  0  0  0  0  0  0  0  0
    1.9418    2.2829    1.9848 H   0  0  0  0  0  0  0  0  0  0  0  0
    1.5013    3.4189    3.2754 H   0  0  0  0  0  0  0  0  0  0  0  0
    2.0894    1.7935    3.6893 H   0  0  0  0  0  0  0  0  0  0  0  0
    0.2362    0.2108   -1.2900 C   0  0  0  0  0  0  0  0  0  0  0  0
    1.1665    0.9822   -1.4847 O   0  0  0  0  0  0  0  0  0  0  0  0
   -0.1900   -0.6088   -2.3186 N   0  0  0  0  0  0  0  0  0  0  0  0
   -0.8519   -1.3346   -2.0560 H   0  0  0  0  0  0  0  0  0  0  0  0
    0.5104   -0.7205   -3.5918 C   0  0  0  0  0  0  0  0  0  0  0  0
    1.5213   -1.1124   -3.4389 H   0  0  0  0  0  0  0  0  0  0  0  0
   -0.0280   -1.3981   -4.2612 H   0  0  0  0  0  0  0  0  0  0  0  0
    0.5816    0.2581   -4.0780 H   0  0  0  0  0  0  0  0  0  0  0  0
  1  2  1  0  0  0  0
  2  3  1  0  0  0  0
  2  4  1  0  0  0  0
  2  5  1  0  0  0  0
  5  6  2  0  0  0  0
  5  7  1  0  0  0  0
  7  8  1  0  0  0  0
  7  9  1  0  0  0  0
  9 10  1  0  0  0  0
  9 11  1  0  0  0  0
  9 22  1  0  0  0  0
 11 12  1  0  0  0  0
 11 13  1  0  0  0  0
 11 14  1  0  0  0  0
 14 15  1  0  0  0  0
 14 16  1  0  0  0  0
 14 17  1  0  0  0  0
 17 18  1  0  0  0  0
 18 19  1  0  0  0  0
 18 20  1  0  0  0  0
 18 21  1  0  0  0  0
 22 23  2  0  0  0  0
 22 24  1  0  0  0  0
 24 25  1  0  0  0  0
 24 26  1  0  0  0  0
 26 27  1  0  0  0  0
 26 28  1  0  0  0  0
 26 29  1  0  0  0  0
M  END
$$$$

  -OEChem-01062216093D

 29 28  0     1  0  0  0  0  0999 V2000
   -3.7481   -3.0809    1.0038 H   0  0  0  0  0  0  0  0  0  0  0  0
   -3.6279   -2.0772    0.5857 C   0  0  0  0  0  0  0  0  0  0  0  0
   -4.1009   -1.3591    1.2602 H   0  0  0  0  0  0  0  0  0  0  0  0
   -4.1260   -2.0384   -0.3859 H   0  0  0  0  0  0  0  0  0  0  0  0
   -2.1551   -1.7492    0.4281 C   0  0  0  0  0  0  0  0  0  0  0  0
   -1.3320   -2.6263    0.6122 O   0  0  0  0  0  0  0  0  0  0  0  0
   -1.7971   -0.4880   -0.0126 N   0  0  0  0  0  0  0  0  0  0  0  0
   -2.5883    0.1369   -0.1425 H   0  0  0  0  0  0  0  0  0  0  0  0
   -0.4730    0.1851    0.0716 C   0  0  1  0  0  0  0  0  0  0  0  0
   -0.6744    1.2373    0.2903 H   0  0  0  0  0  0  0  0  0  0  0  0
    0.4838   -0.3270    1.1792 C   0  0  0  0  0  0  0  0  0  0  0  0
    0.6921   -1.3921    1.0556 H   0  0  0  0  0  0  0  0  0  0  0  0
    1.4484    0.1777    1.0747 H   0  0  0  0  0  0  0  0  0  0  0  0
   -0.0354   -0.0485    2.5971 C   0  0  0  0  0  0  0  0  0  0  0  0
   -0.9943   -0.5548    2.7412 H   0  0  0  0  0  0  0  0  0  0  0  0
    0.6666   -0.4689    3.3237 H   0  0  0  0  0  0  0  0  0  0  0  0
   -0.2455    1.7493    2.9372 S   0  0  0  0  0  0  0  0  0  0  0  0
    1.4860    2.3618    2.9798 C   0  0  0  0  0  0  0  0  0  0  0  0
    1.9535    2.2614    1.9957 H   0  0  0  0  0  0  0  0  0  0  0  0
    1.5020    3.4178    3.2649 H   0  0  0  0  0  0  0  0  0  0  0  0
    2.0712    1.7934    3.7087 H   0  0  0  0  0  0  0  0  0  0  0  0
    0.2467    0.2089   -1.2975 C   0  0  0  0  0  0  0  0  0  0  0  0
    1.3063    0.8075   -1.4314 O   0  0  0  0  0  0  0  0  0  0  0  0
   -0.3469   -0.3558   -2.4117 N   0  0  0  0  0  0  0  0  0  0  0  0
   -1.1384   -0.9652   -2.2264 H   0  0  0  0  0  0  0  0  0  0  0  0
    0.3055   -0.4251   -3.7133 C   0  0  0  0  0  0  0  0  0  0  0  0
    1.2226   -1.0202   -3.6503 H   0  0  0  0  0  0  0  0  0  0  0  0
   -0.3611   -0.8895   -4.4463 H   0  0  0  0  0  0  0  0  0  0  0  0
    0.5607    0.5789   -4.0687 H   0  0  0  0  0  0  0  0  0  0  0  0
  1  2  1  0  0  0  0
  2  3  1  0  0  0  0
  2  4  1  0  0  0  0
  2  5  1  0  0  0  0
  5  6  2  0  0  0  0
  5  7  1  0  0  0  0
  7  8  1  0  0  0  0
  7  9  1  0  0  0  0
  9 10  1  0  0  0  0
  9 11  1  0  0  0  0
  9 22  1  0  0  0  0
 11 12  1  0  0  0  0
 11 13  1  0  0  0  0
 11 14  1  0  0  0  0
 14 15  1  0  0  0  0
 14 16  1  0  0  0  0
 14 17  1  0  0  0  0
 17 18  1  0  0  0  0
 18 19  1  0  0  0  0
 18 20  1  0  0  0  0
 18 21  1  0  0  0  0
 22 23  2  0  0  0  0
 22 24  1  0  0  0  0
 24 25  1  0  0  0  0
 24 26  1  0  0  0  0
 26 27  1  0  0  0  0
 26 28  1  0  0  0  0
 26 29  1  0  0  0  0
M  END
$$$$

  -OEChem-01062216093D

 29 28  0     1  0  0  0  0  0999 V2000
   -3.7388   -3.0954    0.9674 H   0  0  0  0  0  0  0  0  0  0  0  0
   -3.6166   -2.0879    0.5594 C   0  0  0  0  0  0  0  0  0  0  0  0
   -4.0976   -1.3766    1.2353 H   0  0  0  0  0  0  0  0  0  0  0  0
   -4.1058   -2.0425   -0.4166 H   0  0  0  0  0  0  0  0  0  0  0  0
   -2.1425   -1.7563    0.4191 C   0  0  0  0  0  0  0  0  0  0  0  0
   -1.3209   -2.6302    0.6231 O   0  0  0  0  0  0  0  0  0  0  0  0
   -1.7849   -0.4920   -0.0147 N   0  0  0  0  0  0  0  0  0  0  0  0
   -2.5771    0.1343   -0.1293 H   0  0  0  0  0  0  0  0  0  0  0  0
   -0.4605    0.1808    0.0721 C   0  0  1  0  0  0  0  0  0  0  0  0
   -0.6629    1.2328    0.2898 H   0  0  0  0  0  0  0  0  0  0  0  0
    0.4904   -0.3287    1.1886 C   0  0  0  0  0  0  0  0  0  0  0  0
    0.6986   -1.3941    1.0693 H   0  0  0  0  0  0  0  0  0  0  0  0
    1.4563    0.1751    1.0916 H   0  0  0  0  0  0  0  0  0  0  0  0
   -0.0354   -0.0437    2.6028 C   0  0  0  0  0  0  0  0  0  0  0  0
   -0.9952   -0.5489    2.7438 H   0  0  0  0  0  0  0  0  0  0  0  0
    0.6627   -0.4619    3.3347 H   0  0  0  0  0  0  0  0  0  0  0  0
   -0.2444    1.7561    2.9342 S   0  0  0  0  0  0  0  0  0  0  0  0
    1.4876    2.3668    2.9829 C   0  0  0  0  0  0  0  0  0  0  0  0
    1.9606    2.2578    2.0027 H   0  0  0  0  0  0  0  0  0  0  0  0
    1.5039    3.4252    3.2591 H   0  0  0  0  0  0  0  0  0  0  0  0
    2.0681    1.8037    3.7196 H   0  0  0  0  0  0  0  0  0  0  0  0
    0.2530    0.2089   -1.3028 C   0  0  0  0  0  0  0  0  0  0  0  0
    1.4114    0.5922   -1.4055 O   0  0  0  0  0  0  0  0  0  0  0  0
   -0.4558   -0.0624   -2.4597 N   0  0  0  0  0  0  0  0  0  0  0  0
   -1.3580   -0.5090   -2.3292 H   0  0  0  0  0  0  0  0  0  0  0  0
    0.1609   -0.0991   -3.7804 C   0  0  0  0  0  0  0  0  0  0  0  0
    0.9339   -0.8740   -3.8205 H   0  0  0  0  0  0  0  0  0  0  0  0
   -0.5918   -0.3192   -4.5434 H   0  0  0  0  0  0  0  0  0  0  0  0
    0.6180    0.8675   -4.0178 H   0  0  0  0  0  0  0  0  0  0  0  0
  1  2  1  0  0  0  0
  2  3  1  0  0  0  0
  2  4  1  0  0  0  0
  2  5  1  0  0  0  0
  5  6  2  0  0  0  0
  5  7  1  0  0  0  0
  7  8  1  0  0  0  0
  7  9  1  0  0  0  0
  9 10  1  0  0  0  0
  9 11  1  0  0  0  0
  9 22  1  0  0  0  0
 11 12  1  0  0  0  0
 11 13  1  0  0  0  0
 11 14  1  0  0  0  0
 14 15  1  0  0  0  0
 14 16  1  0  0  0  0
 14 17  1  0  0  0  0
 17 18  1  0  0  0  0
 18 19  1  0  0  0  0
 18 20  1  0  0  0  0
 18 21  1  0  0  0  0
 22 23  2  0  0  0  0
 22 24  1  0  0  0  0
 24 25  1  0  0  0  0
 24 26  1  0  0  0  0
 26 27  1  0  0  0  0
 26 28  1  0  0  0  0
 26 29  1  0  0  0  0
M  END
$$$$

  -OEChem-01062216093D

 29 28  0     1  0  0  0  0  0999 V2000
   -3.7270   -3.1062    0.9332 H   0  0  0  0  0  0  0  0  0  0  0  0
   -3.6030   -2.0962    0.5319 C   0  0  0  0  0  0  0  0  0  0  0  0
   -4.0917   -1.3895    1.2070 H   0  0  0  0  0  0  0  0  0  0  0  0
   -4.0829   -2.0468   -0.4485 H   0  0  0  0  0  0  0  0  0  0  0  0
   -2.1282   -1.7615    0.4070 C   0  0  0  0  0  0  0  0  0  0  0  0
   -1.3090   -2.6331    0.6297 O   0  0  0  0  0  0  0  0  0  0  0  0
   -1.7701   -0.4950   -0.0216 N   0  0  0  0  0  0  0  0  0  0  0  0
   -2.5630    0.1312   -0.1259 H   0  0  0  0  0  0  0  0  0  0  0  0
   -0.4455    0.1756    0.0701 C   0  0  1  0  0  0  0  0  0  0  0  0
   -0.6469    1.2282    0.2859 H   0  0  0  0  0  0  0  0  0  0  0  0
    0.4967   -0.3301    1.1966 C   0  0  0  0  0  0  0  0  0  0  0  0
    0.7059   -1.3961    1.0838 H   0  0  0  0  0  0  0  0  0  0  0  0
    1.4635    0.1730    1.1058 H   0  0  0  0  0  0  0  0  0  0  0  0
   -0.0391   -0.0361    2.6052 C   0  0  0  0  0  0  0  0  0  0  0  0
   -1.0012   -0.5385    2.7414 H   0  0  0  0  0  0  0  0  0  0  0  0
    0.6523   -0.4524    3.3446 H   0  0  0  0  0  0  0  0  0  0  0  0
   -0.2466    1.7661    2.9265 S   0  0  0  0  0  0  0  0  0  0  0  0
    1.4869    2.3729    2.9856 C   0  0  0  0  0  0  0  0  0  0  0  0
    1.9677    2.2588    2.0098 H   0  0  0  0  0  0  0  0  0  0  0  0
    1.5035    3.4324    3.2575 H   0  0  0  0  0  0  0  0  0  0  0  0
    2.0603    1.8119    3.7295 H   0  0  0  0  0  0  0  0  0  0  0  0
    0.2615    0.2031   -1.3093 C   0  0  0  0  0  0  0  0  0  0  0  0
    1.4755    0.3312   -1.4068 O   0  0  0  0  0  0  0  0  0  0  0  0
   -0.4943    0.2453   -2.4679 N   0  0  0  0  0  0  0  0  0  0  0  0
   -1.4744    0.0028   -2.3689 H   0  0  0  0  0  0  0  0  0  0  0  0
    0.0950    0.2498   -3.8021 C   0  0  0  0  0  0  0  0  0  0  0  0
    0.6803   -0.6614   -3.9646 H   0  0  0  0  0  0  0  0  0  0  0  0
   -0.6900    0.2994   -4.5626 H   0  0  0  0  0  0  0  0  0  0  0  0
    0.7514    1.1171   -3.9297 H   0  0  0  0  0  0  0  0  0  0  0  0
  1  2  1  0  0  0  0
  2  3  1  0  0  0  0
  2  4  1  0  0  0  0
  2  5  1  0  0  0  0
  5  6  2  0  0  0  0
  5  7  1  0  0  0  0
  7  8  1  0  0  0  0
  7  9  1  0  0  0  0
  9 10  1  0  0  0  0
  9 11  1  0  0  0  0
  9 22  1  0  0  0  0
 11 12  1  0  0  0  0
 11 13  1  0  0  0  0
 11 14  1  0  0  0  0
 14 15  1  0  0  0  0
 14 16  1  0  0  0  0
 14 17  1  0  0  0  0
 17 18  1  0  0  0  0
 18 19  1  0  0  0  0
 18 20  1  0  0  0  0
 18 21  1  0  0  0  0
 22 23  2  0  0  0  0
 22 24  1  0  0  0  0
 24 25  1  0  0  0  0
 24 26  1  0  0  0  0
 26 27  1  0  0  0  0
 26 28  1  0  0  0  0
 26 29  1  0  0  0  0
M  END
$$$$

  -OEChem-01062216093D

 29 28  0     1  0  0  0  0  0999 V2000
   -3.7363   -3.1168    0.8768 H   0  0  0  0  0  0  0  0  0  0  0  0
   -3.6014   -2.1102    0.4703 C   0  0  0  0  0  0  0  0  0  0  0  0
   -4.1310   -1.4009    1.1109 H   0  0  0  0  0  0  0  0  0  0  0  0
   -4.0297   -2.0776   -0.5342 H   0  0  0  0  0  0  0  0  0  0  0  0
   -2.1255   -1.7622    0.4167 C   0  0  0  0  0  0  0  0  0  0  0  0
   -1.3144   -2.6201    0.7104 O   0  0  0  0  0  0  0  0  0  0  0  0
   -1.7606   -0.4970   -0.0113 N   0  0  0  0  0  0  0  0  0  0  0  0
   -2.5531    0.1181   -0.1666 H   0  0  0  0  0  0  0  0  0  0  0  0
   -0.4361    0.1732    0.0792 C   0  0  1  0  0  0  0  0  0  0  0  0
   -0.6357    1.2261    0.2940 H   0  0  0  0  0  0  0  0  0  0  0  0
    0.5092   -0.3270    1.2051 C   0  0  0  0  0  0  0  0  0  0  0  0
    0.7205   -1.3931    1.0949 H   0  0  0  0  0  0  0  0  0  0  0  0
    1.4741    0.1786    1.1079 H   0  0  0  0  0  0  0  0  0  0  0  0
   -0.0248   -0.0288    2.6134 C   0  0  0  0  0  0  0  0  0  0  0  0
   -0.9861   -0.5320    2.7519 H   0  0  0  0  0  0  0  0  0  0  0  0
    0.6675   -0.4422    3.3533 H   0  0  0  0  0  0  0  0  0  0  0  0
   -0.2346    1.7747    2.9284 S   0  0  0  0  0  0  0  0  0  0  0  0
    1.4981    2.3842    2.9827 C   0  0  0  0  0  0  0  0  0  0  0  0
    1.9777    2.2690    2.0063 H   0  0  0  0  0  0  0  0  0  0  0  0
    1.5139    3.4440    3.2534 H   0  0  0  0  0  0  0  0  0  0  0  0
    2.0732    1.8246    3.7263 H   0  0  0  0  0  0  0  0  0  0  0  0
    0.2616    0.1941   -1.3053 C   0  0  0  0  0  0  0  0  0  0  0  0
    1.4689    0.0312   -1.4291 O   0  0  0  0  0  0  0  0  0  0  0  0
   -0.4659    0.5446   -2.4298 N   0  0  0  0  0  0  0  0  0  0  0  0
   -1.4730    0.5951   -2.3266 H   0  0  0  0  0  0  0  0  0  0  0  0
    0.1065    0.5891   -3.7705 C   0  0  0  0  0  0  0  0  0  0  0  0
    0.4802   -0.3986   -4.0606 H   0  0  0  0  0  0  0  0  0  0  0  0
   -0.6514    0.9001   -4.4957 H   0  0  0  0  0  0  0  0  0  0  0  0
    0.9346    1.3048   -3.8105 H   0  0  0  0  0  0  0  0  0  0  0  0
  1  2  1  0  0  0  0
  2  3  1  0  0  0  0
  2  4  1  0  0  0  0
  2  5  1  0  0  0  0
  5  6  2  0  0  0  0
  5  7  1  0  0  0  0
  7  8  1  0  0  0  0
  7  9  1  0  0  0  0
  9 10  1  0  0  0  0
  9 11  1  0  0  0  0
  9 22  1  0  0  0  0
 11 12  1  0  0  0  0
 11 13  1  0  0  0  0
 11 14  1  0  0  0  0
 14 15  1  0  0  0  0
 14 16  1  0  0  0  0
 14 17  1  0  0  0  0
 17 18  1  0  0  0  0
 18 19  1  0  0  0  0
 18 20  1  0  0  0  0
 18 21  1  0  0  0  0
 22 23  2  0  0  0  0
 22 24  1  0  0  0  0
 24 25  1  0  0  0  0
 24 26  1  0  0  0  0
 26 27  1  0  0  0  0
 26 28  1  0  0  0  0
 26 29  1  0  0  0  0
M  END
$$$$

  -OEChem-01062216093D

 29 28  0     1  0  0  0  0  0999 V2000
   -3.7713   -3.1319    0.7826 H   0  0  0  0  0  0  0  0  0  0  0  0
   -3.6092   -2.1400    0.3506 C   0  0  0  0  0  0  0  0  0  0  0  0
   -4.2351   -1.4204    0.8837 H   0  0  0  0  0  0  0  0  0  0  0  0
   -3.9040   -2.1637   -0.7012 H   0  0  0  0  0  0  0  0  0  0  0  0
   -2.1475   -1.7496    0.4705 C   0  0  0  0  0  0  0  0  0  0  0  0
   -1.3670   -2.5637    0.9271 O   0  0  0  0  0  0  0  0  0  0  0  0
   -1.7674   -0.4911    0.0338 N   0  0  0  0  0  0  0  0  0  0  0  0
   -2.5413    0.0801   -0.2886 H   0  0  0  0  0  0  0  0  0  0  0  0
   -0.4425    0.1788    0.1081 C   0  0  1  0  0  0  0  0  0  0  0  0
   -0.6378    1.2317    0.3247 H   0  0  0  0  0  0  0  0  0  0  0  0
    0.5239   -0.3149    1.2163 C   0  0  0  0  0  0  0  0  0  0  0  0
    0.7326   -1.3815    1.1027 H   0  0  0  0  0  0  0  0  0  0  0  0
    1.4857    0.1916    1.0940 H   0  0  0  0  0  0  0  0  0  0  0  0
    0.0170   -0.0178    2.6348 C   0  0  0  0  0  0  0  0  0  0  0  0
   -0.9403   -0.5234    2.7926 H   0  0  0  0  0  0  0  0  0  0  0  0
    0.7250   -0.4287    3.3613 H   0  0  0  0  0  0  0  0  0  0  0  0
   -0.1924    1.7859    2.9504 S   0  0  0  0  0  0  0  0  0  0  0  0
    1.5394    2.4000    2.9689 C   0  0  0  0  0  0  0  0  0  0  0  0
    1.9968    2.2913    1.9814 H   0  0  0  0  0  0  0  0  0  0  0  0
    1.5583    3.4583    3.2454 H   0  0  0  0  0  0  0  0  0  0  0  0
    2.1329    1.8380    3.6961 H   0  0  0  0  0  0  0  0  0  0  0  0
    0.2364    0.1835   -1.2846 C   0  0  0  0  0  0  0  0  0  0  0  0
    1.3547   -0.2789   -1.4706 O   0  0  0  0  0  0  0  0  0  0  0  0
   -0.3934    0.8125   -2.3453 N   0  0  0  0  0  0  0  0  0  0  0  0
   -1.3111    1.2102   -2.1795 H   0  0  0  0  0  0  0  0  0  0  0  0
    0.1822    0.8966   -3.6829 C   0  0  0  0  0  0  0  0  0  0  0  0
    0.3494   -0.1060   -4.0909 H   0  0  0  0  0  0  0  0  0  0  0  0
   -0.4942    1.4346   -4.3539 H   0  0  0  0  0  0  0  0  0  0  0  0
    1.1386    1.4299   -3.6565 H   0  0  0  0  0  0  0  0  0  0  0  0
  1  2  1  0  0  0  0
  2  3  1  0  0  0  0
  2  4  1  0  0  0  0
  2  5  1  0  0  0  0
  5  6  2  0  0  0  0
  5  7  1  0  0  0  0
  7  8  1  0  0  0  0
  7  9  1  0  0  0  0
  9 10  1  0  0  0  0
  9 11  1  0  0  0  0
  9 22  1  0  0  0  0
 11 12  1  0  0  0  0
 11 13  1  0  0  0  0
 11 14  1  0  0  0  0
 14 15  1  0  0  0  0
 14 16  1  0  0  0  0
 14 17  1  0  0  0  0
 17 18  1  0  0  0  0
 18 19  1  0  0  0  0
 18 20  1  0  0  0  0
 18 21  1  0  0  0  0
 22 23  2  0  0  0  0
 22 24  1  0  0  0  0
 24 25  1  0  0  0  0
 24 26  1  0  0  0  0
 26 27  1  0  0  0  0
 26 28  1  0  0  0  0
 26 29  1  0  0  0  0
M  END
$$$$

  -OEChem-01062216093D

 29 28  0     1  0  0  0  0  0999 V2000
   -3.7765   -3.1549    0.7033 H   0  0  0  0  0  0  0  0  0  0  0  0
   -3.6083   -2.1586    0.2842 C   0  0  0  0  0  0  0  0  0  0  0  0
   -4.2864   -1.4543    0.7720 H   0  0  0  0  0  0  0  0  0  0  0  0
   -3.8279   -2.1871   -0.7858 H   0  0  0  0  0  0  0  0  0  0  0  0
   -2.1686   -1.7332    0.5069 C   0  0  0  0  0  0  0  0  0  0  0  0
   -1.4174   -2.5088    1.0689 O   0  0  0  0  0  0  0  0  0  0  0  0
   -1.7834   -0.4785    0.0629 N   0  0  0  0  0  0  0  0  0  0  0  0
   -2.5260    0.0409   -0.3935 H   0  0  0  0  0  0  0  0  0  0  0  0
   -0.4573    0.1875    0.1253 C   0  0  1  0  0  0  0  0  0  0  0  0
   -0.6492    1.2400    0.3471 H   0  0  0  0  0  0  0  0  0  0  0  0
    0.5268   -0.3055    1.2159 C   0  0  0  0  0  0  0  0  0  0  0  0
    0.7281   -1.3737    1.0984 H   0  0  0  0  0  0  0  0  0  0  0  0
    1.4874    0.1979    1.0733 H   0  0  0  0  0  0  0  0  0  0  0  0
    0.0429   -0.0109    2.6435 C   0  0  0  0  0  0  0  0  0  0  0  0
   -0.9121   -0.5158    2.8167 H   0  0  0  0  0  0  0  0  0  0  0  0
    0.7619   -0.4231    3.3582 H   0  0  0  0  0  0  0  0  0  0  0  0
   -0.1628    1.7930    2.9623 S   0  0  0  0  0  0  0  0  0  0  0  0
    1.5682    2.4091    2.9523 C   0  0  0  0  0  0  0  0  0  0  0  0
    2.0097    2.3011    1.9576 H   0  0  0  0  0  0  0  0  0  0  0  0
    1.5897    3.4674    3.2281 H   0  0  0  0  0  0  0  0  0  0  0  0
    2.1739    1.8482    3.6703 H   0  0  0  0  0  0  0  0  0  0  0  0
    0.2097    0.1837   -1.2707 C   0  0  0  0  0  0  0  0  0  0  0  0
    1.1645   -0.5342   -1.5372 O   0  0  0  0  0  0  0  0  0  0  0  0
   -0.2495    1.0563   -2.2428 N   0  0  0  0  0  0  0  0  0  0  0  0
   -0.9948    1.6962   -1.9885 H   0  0  0  0  0  0  0  0  0  0  0  0
    0.3514    1.1641   -3.5674 C   0  0  0  0  0  0  0  0  0  0  0  0
    0.3002    0.2034   -4.0907 H   0  0  0  0  0  0  0  0  0  0  0  0
   -0.1797    1.9112   -4.1650 H   0  0  0  0  0  0  0  0  0  0  0  0
    1.4012    1.4663   -3.4891 H   0  0  0  0  0  0  0  0  0  0  0  0
  1  2  1  0  0  0  0
  2  3  1  0  0  0  0
  2  4  1  0  0  0  0
  2  5  1  0  0  0  0
  5  6  2  0  0  0  0
  5  7  1  0  0  0  0
  7  8  1  0  0  0  0
  7  9  1  0  0  0  0
  9 10  1  0  0  0  0
  9 11  1  0  0  0  0
  9 22  1  0  0  0  0
 11 12  1  0  0  0  0
 11 13  1  0  0  0  0
 11 14  1  0  0  0  0
 14 15  1  0  0  0  0
 14 16  1  0  0  0  0
 14 17  1  0  0  0  0
 17 18  1  0  0  0  0
 18 19  1  0  0  0  0
 18 20  1  0  0  0  0
 18 21  1  0  0  0  0
 22 23  2  0  0  0  0
 22 24  1  0  0  0  0
 24 25  1  0  0  0  0
 24 26  1  0  0  0  0
 26 27  1  0  0  0  0
 26 28  1  0  0  0  0
 26 29  1  0  0  0  0
M  END
$$$$

  -OEChem-01062216093D

 29 28  0     1  0  0  0  0  0999 V2000
   -3.7698   -3.1683    0.6575 H   0  0  0  0  0  0  0  0  0  0  0  0
   -3.6029   -2.1696    0.2435 C   0  0  0  0  0  0  0  0  0  0  0  0
   -4.3146   -1.4773    0.6997 H   0  0  0  0  0  0  0  0  0  0  0  0
   -3.7757   -2.2042   -0.8348 H   0  0  0  0  0  0  0  0  0  0  0  0
   -2.1825   -1.7162    0.5261 C   0  0  0  0  0  0  0  0  0  0  0  0
   -1.4490   -2.4671    1.1432 O   0  0  0  0  0  0  0  0  0  0  0  0
   -1.7996   -0.4613    0.0805 N   0  0  0  0  0  0  0  0  0  0  0  0
   -2.5214    0.0262   -0.4405 H   0  0  0  0  0  0  0  0  0  0  0  0
   -0.4728    0.2022    0.1372 C   0  0  1  0  0  0  0  0  0  0  0  0
   -0.6663    1.2521    0.3692 H   0  0  0  0  0  0  0  0  0  0  0  0
    0.5257   -0.2942    1.2112 C   0  0  0  0  0  0  0  0  0  0  0  0
    0.7219   -1.3627    1.0853 H   0  0  0  0  0  0  0  0  0  0  0  0
    1.4849    0.2077    1.0555 H   0  0  0  0  0  0  0  0  0  0  0  0
    0.0621   -0.0095    2.6478 C   0  0  0  0  0  0  0  0  0  0  0  0
   -0.8901   -0.5152    2.8330 H   0  0  0  0  0  0  0  0  0  0  0  0
    0.7915   -0.4251    3.3496 H   0  0  0  0  0  0  0  0  0  0  0  0
   -0.1412    1.7928    2.9779 S   0  0  0  0  0  0  0  0  0  0  0  0
    1.5880    2.4129    2.9462 C   0  0  0  0  0  0  0  0  0  0  0  0
    2.0163    2.3088    1.9453 H   0  0  0  0  0  0  0  0  0  0  0  0
    1.6110    3.4705    3.2251 H   0  0  0  0  0  0  0  0  0  0  0  0
    2.2048    1.8514    3.6544 H   0  0  0  0  0  0  0  0  0  0  0  0
    0.1925    0.2020   -1.2578 C   0  0  0  0  0  0  0  0  0  0  0  0
    0.9249   -0.7066   -1.6247 O   0  0  0  0  0  0  0  0  0  0  0  0
   -0.0326    1.2608   -2.1208 N   0  0  0  0  0  0  0  0  0  0  0  0
   -0.5919    2.0368   -1.7805 H   0  0  0  0  0  0  0  0  0  0  0  0
    0.5871    1.3628   -3.4371 C   0  0  0  0  0  0  0  0  0  0  0  0
    0.3149    0.5018   -4.0567 H   0  0  0  0  0  0  0  0  0  0  0  0
    0.2516    2.2724   -3.9443 H   0  0  0  0  0  0  0  0  0  0  0  0
    1.6778    1.3993   -3.3451 H   0  0  0  0  0  0  0  0  0  0  0  0
  1  2  1  0  0  0  0
  2  3  1  0  0  0  0
  2  4  1  0  0  0  0
  2  5  1  0  0  0  0
  5  6  2  0  0  0  0
  5  7  1  0  0  0  0
  7  8  1  0  0  0  0
  7  9  1  0  0  0  0
  9 10  1  0  0  0  0
  9 11  1  0  0  0  0
  9 22  1  0  0  0  0
 11 12  1  0  0  0  0
 11 13  1  0  0  0  0
 11 14  1  0  0  0  0
 14 15  1  0  0  0  0
 14 16  1  0  0  0  0
 14 17  1  0  0  0  0
 17 18  1  0  0  0  0
 18 19  1  0  0  0  0
 18 20  1  0  0  0  0
 18 21  1  0  0  0  0
 22 23  2  0  0  0  0
 22 24  1  0  0  0  0
 24 25  1  0  0  0  0
 24 26  1  0  0  0  0
 26 27  1  0  0  0  0
 26 28  1  0  0  0  0
 26 29  1  0  0  0  0
M  END
$$$$

  -OEChem-01062216093D

 29 28  0     1  0  0  0  0  0999 V2000
   -3.7620   -3.1745    0.6278 H   0  0  0  0  0  0  0  0  0  0  0  0
   -3.5966   -2.1752    0.2151 C   0  0  0  0  0  0  0  0  0  0  0  0
   -4.3302   -1.4910    0.6482 H   0  0  0  0  0  0  0  0  0  0  0  0
   -3.7377   -2.2159   -0.8676 H   0  0  0  0  0  0  0  0  0  0  0  0
   -2.1911   -1.7017    0.5371 C   0  0  0  0  0  0  0  0  0  0  0  0
   -1.4708   -2.4355    1.1902 O   0  0  0  0  0  0  0  0  0  0  0  0
   -1.8098   -0.4459    0.0927 N   0  0  0  0  0  0  0  0  0  0  0  0
   -2.5128    0.0163   -0.4750 H   0  0  0  0  0  0  0  0  0  0  0  0
   -0.4814    0.2138    0.1474 C   0  0  1  0  0  0  0  0  0  0  0  0
   -0.6783    1.2615    0.3859 H   0  0  0  0  0  0  0  0  0  0  0  0
    0.5275   -0.2861    1.2086 C   0  0  0  0  0  0  0  0  0  0  0  0
    0.7199   -1.3548    1.0754 H   0  0  0  0  0  0  0  0  0  0  0  0
    1.4858    0.2154    1.0466 H   0  0  0  0  0  0  0  0  0  0  0  0
    0.0764   -0.0087    2.6512 C   0  0  0  0  0  0  0  0  0  0  0  0
   -0.8746   -0.5139    2.8432 H   0  0  0  0  0  0  0  0  0  0  0  0
    0.8117   -0.4273    3.3454 H   0  0  0  0  0  0  0  0  0  0  0  0
   -0.1260    1.7919    2.9909 S   0  0  0  0  0  0  0  0  0  0  0  0
    1.6013    2.4154    2.9466 C   0  0  0  0  0  0  0  0  0  0  0  0
    2.0207    2.3155    1.9417 H   0  0  0  0  0  0  0  0  0  0  0  0
    1.6246    3.4720    3.2295 H   0  0  0  0  0  0  0  0  0  0  0  0
    2.2251    1.8522    3.6471 H   0  0  0  0  0  0  0  0  0  0  0  0
    0.1855    0.2196   -1.2454 C   0  0  0  0  0  0  0  0  0  0  0  0
    0.6456   -0.8013   -1.7373 O   0  0  0  0  0  0  0  0  0  0  0  0
    0.2323    1.3915   -1.9805 N   0  0  0  0  0  0  0  0  0  0  0  0
   -0.1165    2.2383   -1.5417 H   0  0  0  0  0  0  0  0  0  0  0  0
    0.8615    1.4854   -3.2931 C   0  0  0  0  0  0  0  0  0  0  0  0
    0.3919    0.7878   -3.9947 H   0  0  0  0  0  0  0  0  0  0  0  0
    0.7558    2.4987   -3.6924 H   0  0  0  0  0  0  0  0  0  0  0  0
    1.9288    1.2497   -3.2242 H   0  0  0  0  0  0  0  0  0  0  0  0
  1  2  1  0  0  0  0
  2  3  1  0  0  0  0
  2  4  1  0  0  0  0
  2  5  1  0  0  0  0
  5  6  2  0  0  0  0
  5  7  1  0  0  0  0
  7  8  1  0  0  0  0
  7  9  1  0  0  0  0
  9 10  1  0  0  0  0
  9 11  1  0  0  0  0
  9 22  1  0  0  0  0
 11 12  1  0  0  0  0
 11 13  1  0  0  0  0
 11 14  1  0  0  0  0
 14 15  1  0  0  0  0
 14 16  1  0  0  0  0
 14 17  1  0  0  0  0
 17 18  1  0  0  0  0
 18 19  1  0  0  0  0
 18 20  1  0  0  0  0
 18 21  1  0  0  0  0
 22 23  2  0  0  0  0
 22 24  1  0  0  0  0
 24 25  1  0  0  0  0
 24 26  1  0  0  0  0
 26 27  1  0  0  0  0
 26 28  1  0  0  0  0
 26 29  1  0  0  0  0
M  END
$$$$

  -OEChem-01062216093D

 29 28  0     1  0  0  0  0  0999 V2000
   -3.7536   -3.1819    0.5995 H   0  0  0  0  0  0  0  0  0  0  0  0
   -3.5883   -2.1815    0.1891 C   0  0  0  0  0  0  0  0  0  0  0  0
   -4.3416   -1.5047    0.5992 H   0  0  0  0  0  0  0  0  0  0  0  0
   -3.6980   -2.2264   -0.8972 H   0  0  0  0  0  0  0  0  0  0  0  0
   -2.1983   -1.6901    0.5493 C   0  0  0  0  0  0  0  0  0  0  0  0
   -1.4897   -2.4102    1.2309 O   0  0  0  0  0  0  0  0  0  0  0  0
   -1.8171   -0.4345    0.1047 N   0  0  0  0  0  0  0  0  0  0  0  0
   -2.4979    0.0013   -0.5092 H   0  0  0  0  0  0  0  0  0  0  0  0
   -0.4856    0.2188    0.1573 C   0  0  1  0  0  0  0  0  0  0  0  0
   -0.6845    1.2657    0.3971 H   0  0  0  0  0  0  0  0  0  0  0  0
    0.5264   -0.2825    1.2138 C   0  0  0  0  0  0  0  0  0  0  0  0
    0.7128   -1.3518    1.0788 H   0  0  0  0  0  0  0  0  0  0  0  0
    1.4861    0.2151    1.0476 H   0  0  0  0  0  0  0  0  0  0  0  0
    0.0835   -0.0027    2.6588 C   0  0  0  0  0  0  0  0  0  0  0  0
   -0.8689   -0.5029    2.8566 H   0  0  0  0  0  0  0  0  0  0  0  0
    0.8201   -0.4231    3.3502 H   0  0  0  0  0  0  0  0  0  0  0  0
   -0.1109    1.7994    2.9962 S   0  0  0  0  0  0  0  0  0  0  0  0
    1.6187    2.4163    2.9423 C   0  0  0  0  0  0  0  0  0  0  0  0
    2.0341    2.3112    1.9364 H   0  0  0  0  0  0  0  0  0  0  0  0
    1.6467    3.4738    3.2213 H   0  0  0  0  0  0  0  0  0  0  0  0
    2.2432    1.8537    3.6428 H   0  0  0  0  0  0  0  0  0  0  0  0
    0.1860    0.2290   -1.2326 C   0  0  0  0  0  0  0  0  0  0  0  0
    0.3567   -0.8057   -1.8624 O   0  0  0  0  0  0  0  0  0  0  0  0
    0.5214    1.4333   -1.8263 N   0  0  0  0  0  0  0  0  0  0  0  0
    0.3823    2.2815   -1.2850 H   0  0  0  0  0  0  0  0  0  0  0  0
    1.1525    1.5295   -3.1374 C   0  0  0  0  0  0  0  0  0  0  0  0
    0.5262    1.0557   -3.9008 H   0  0  0  0  0  0  0  0  0  0  0  0
    1.2961    2.5788   -3.4124 H   0  0  0  0  0  0  0  0  0  0  0  0
    2.1305    1.0367   -3.1285 H   0  0  0  0  0  0  0  0  0  0  0  0
  1  2  1  0  0  0  0
  2  3  1  0  0  0  0
  2  4  1  0  0  0  0
  2  5  1  0  0  0  0
  5  6  2  0  0  0  0
  5  7  1  0  0  0  0
  7  8  1  0  0  0  0
  7  9  1  0  0  0  0
  9 10  1  0  0  0  0
  9 11  1  0  0  0  0
  9 22  1  0  0  0  0
 11 12  1  0  0  0  0
 11 13  1  0  0  0  0
 11 14  1  0  0  0  0
 14 15  1  0  0  0  0
 14 16  1  0  0  0  0
 14 17  1  0  0  0  0
 17 18  1  0  0  0  0
 18 19  1  0  0  0  0
 18 20  1  0  0  0  0
 18 21  1  0  0  0  0
 22 23  2  0  0  0  0
 22 24  1  0  0  0  0
 24 25  1  0  0  0  0
 24 26  1  0  0  0  0
 26 27  1  0  0  0  0
 26 28  1  0  0  0  0
 26 29  1  0  0  0  0
M  END
$$$$

  -OEChem-01062216093D

 29 28  0     1  0  0  0  0  0999 V2000
   -3.7393   -3.1917    0.5571 H   0  0  0  0  0  0  0  0  0  0  0  0
   -3.5725   -2.1908    0.1487 C   0  0  0  0  0  0  0  0  0  0  0  0
   -4.3557   -1.5250    0.5188 H   0  0  0  0  0  0  0  0  0  0  0  0
   -3.6304   -2.2437   -0.9413 H   0  0  0  0  0  0  0  0  0  0  0  0
   -2.2093   -1.6734    0.5690 C   0  0  0  0  0  0  0  0  0  0  0  0
   -1.5198   -2.3776    1.2865 O   0  0  0  0  0  0  0  0  0  0  0  0
   -1.8233   -0.4201    0.1232 N   0  0  0  0  0  0  0  0  0  0  0  0
   -2.4717   -0.0184   -0.5471 H   0  0  0  0  0  0  0  0  0  0  0  0
   -0.4858    0.2216    0.1736 C   0  0  1  0  0  0  0  0  0  0  0  0
   -0.6802    1.2709    0.4082 H   0  0  0  0  0  0  0  0  0  0  0  0
    0.5248   -0.2820    1.2309 C   0  0  0  0  0  0  0  0  0  0  0  0
    0.7012   -1.3538    1.1006 H   0  0  0  0  0  0  0  0  0  0  0  0
    1.4881    0.2070    1.0612 H   0  0  0  0  0  0  0  0  0  0  0  0
    0.0892    0.0070    2.6765 C   0  0  0  0  0  0  0  0  0  0  0  0
   -0.8666   -0.4840    2.8806 H   0  0  0  0  0  0  0  0  0  0  0  0
    0.8248   -0.4162    3.3674 H   0  0  0  0  0  0  0  0  0  0  0  0
   -0.0898    1.8123    3.0055 S   0  0  0  0  0  0  0  0  0  0  0  0
    1.6430    2.4199    2.9434 C   0  0  0  0  0  0  0  0  0  0  0  0
    2.0579    2.3000    1.9390 H   0  0  0  0  0  0  0  0  0  0  0  0
    1.6762    3.4807    3.2093 H   0  0  0  0  0  0  0  0  0  0  0  0
    2.2649    1.8632    3.6508 H   0  0  0  0  0  0  0  0  0  0  0  0
    0.1868    0.2290   -1.2166 C   0  0  0  0  0  0  0  0  0  0  0  0
    0.0697   -0.7184   -1.9828 O   0  0  0  0  0  0  0  0  0  0  0  0
    0.8100    1.3777   -1.6717 N   0  0  0  0  0  0  0  0  0  0  0  0
    0.8817    2.1614   -1.0294 H   0  0  0  0  0  0  0  0  0  0  0  0
    1.4273    1.4853   -2.9888 C   0  0  0  0  0  0  0  0  0  0  0  0
    0.6877    1.3053   -3.7761 H   0  0  0  0  0  0  0  0  0  0  0  0
    1.8442    2.4870   -3.1305 H   0  0  0  0  0  0  0  0  0  0  0  0
    2.2368    0.7552   -3.0930 H   0  0  0  0  0  0  0  0  0  0  0  0
  1  2  1  0  0  0  0
  2  3  1  0  0  0  0
  2  4  1  0  0  0  0
  2  5  1  0  0  0  0
  5  6  2  0  0  0  0
  5  7  1  0  0  0  0
  7  8  1  0  0  0  0
  7  9  1  0  0  0  0
  9 10  1  0  0  0  0
  9 11  1  0  0  0  0
  9 22  1  0  0  0  0
 11 12  1  0  0  0  0
 11 13  1  0  0  0  0
 11 14  1  0  0  0  0
 14 15  1  0  0  0  0
 14 16  1  0  0  0  0
 14 17  1  0  0  0  0
 17 18  1  0  0  0  0
 18 19  1  0  0  0  0
 18 20  1  0  0  0  0
 18 21  1  0  0  0  0
 22 23  2  0  0  0  0
 22 24  1  0  0  0  0
 24 25  1  0  0  0  0
 24 26  1  0  0  0  0
 26 27  1  0  0  0  0
 26 28  1  0  0  0  0
 26 29  1  0  0  0  0
M  END
$$$$

  -OEChem-01062216093D

 29 28  0     1  0  0  0  0  0999 V2000
   -3.7389   -3.1830    0.5596 H   0  0  0  0  0  0  0  0  0  0  0  0
   -3.5673   -2.1839    0.1489 C   0  0  0  0  0  0  0  0  0  0  0  0
   -4.3497   -1.5141    0.5136 H   0  0  0  0  0  0  0  0  0  0  0  0
   -3.6206   -2.2391   -0.9413 H   0  0  0  0  0  0  0  0  0  0  0  0
   -2.2044   -1.6697    0.5736 C   0  0  0  0  0  0  0  0  0  0  0  0
   -1.5161   -2.3767    1.2897 O   0  0  0  0  0  0  0  0  0  0  0  0
   -1.8142   -0.4183    0.1271 N   0  0  0  0  0  0  0  0  0  0  0  0
   -2.4472   -0.0310   -0.5666 H   0  0  0  0  0  0  0  0  0  0  0  0
   -0.4762    0.2222    0.1771 C   0  0  1  0  0  0  0  0  0  0  0  0
   -0.6669    1.2737    0.4058 H   0  0  0  0  0  0  0  0  0  0  0  0
    0.5278   -0.2851    1.2406 C   0  0  0  0  0  0  0  0  0  0  0  0
    0.7020   -1.3573    1.1128 H   0  0  0  0  0  0  0  0  0  0  0  0
    1.4942    0.1997    1.0791 H   0  0  0  0  0  0  0  0  0  0  0  0
    0.0837    0.0083    2.6829 C   0  0  0  0  0  0  0  0  0  0  0  0
   -0.8754   -0.4787    2.8809 H   0  0  0  0  0  0  0  0  0  0  0  0
    0.8129   -0.4171    3.3793 H   0  0  0  0  0  0  0  0  0  0  0  0
   -0.0907    1.8138    3.0107 S   0  0  0  0  0  0  0  0  0  0  0  0
    1.6438    2.4164    2.9607 C   0  0  0  0  0  0  0  0  0  0  0  0
    2.0660    2.2950    1.9597 H   0  0  0  0  0  0  0  0  0  0  0  0
    1.6778    3.4772    3.2267 H   0  0  0  0  0  0  0  0  0  0  0  0
    2.2580    1.8581    3.6737 H   0  0  0  0  0  0  0  0  0  0  0  0
    0.1963    0.2260   -1.2147 C   0  0  0  0  0  0  0  0  0  0  0  0
   -0.1445   -0.5643   -2.0863 O   0  0  0  0  0  0  0  0  0  0  0  0
    1.0763    1.2403   -1.5493 N   0  0  0  0  0  0  0  0  0  0  0  0
    1.3208    1.9096   -0.8257 H   0  0  0  0  0  0  0  0  0  0  0  0
    1.6974    1.3612   -2.8633 C   0  0  0  0  0  0  0  0  0  0  0  0
    0.9336    1.4609   -3.6420 H   0  0  0  0  0  0  0  0  0  0  0  0
    2.3417    2.2449   -2.8976 H   0  0  0  0  0  0  0  0  0  0  0  0
    2.3082    0.4785   -3.0805 H   0  0  0  0  0  0  0  0  0  0  0  0
  1  2  1  0  0  0  0
  2  3  1  0  0  0  0
  2  4  1  0  0  0  0
  2  5  1  0  0  0  0
  5  6  2  0  0  0  0
  5  7  1  0  0  0  0
  7  8  1  0  0  0  0
  7  9  1  0  0  0  0
  9 10  1  0  0  0  0
  9 11  1  0  0  0  0
  9 22  1  0  0  0  0
 11 12  1  0  0  0  0
 11 13  1  0  0  0  0
 11 14  1  0  0  0  0
 14 15  1  0  0  0  0
 14 16  1  0  0  0  0
 14 17  1  0  0  0  0
 17 18  1  0  0  0  0
 18 19  1  0  0  0  0
 18 20  1  0  0  0  0
 18 21  1  0  0  0  0
 22 23  2  0  0  0  0
 22 24  1  0  0  0  0
 24 25  1  0  0  0  0
 24 26  1  0  0  0  0
 26 27  1  0  0  0  0
 26 28  1  0  0  0  0
 26 29  1  0  0  0  0
M  END
$$$$

  -OEChem-01062216093D

 29 28  0     1  0  0  0  0  0999 V2000
   -3.7325   -3.1798    0.5443 H   0  0  0  0  0  0  0  0  0  0  0  0
   -3.5586   -2.1776    0.1423 C   0  0  0  0  0  0  0  0  0  0  0  0
   -4.3425   -1.5102    0.5083 H   0  0  0  0  0  0  0  0  0  0  0  0
   -3.6063   -2.2238   -0.9487 H   0  0  0  0  0  0  0  0  0  0  0  0
   -2.1978   -1.6664    0.5774 C   0  0  0  0  0  0  0  0  0  0  0  0
   -1.5119   -2.3784    1.2912 O   0  0  0  0  0  0  0  0  0  0  0  0
   -1.8028   -0.4156    0.1344 N   0  0  0  0  0  0  0  0  0  0  0  0
   -2.4220   -0.0370   -0.5774 H   0  0  0  0  0  0  0  0  0  0  0  0
   -0.4647    0.2249    0.1856 C   0  0  1  0  0  0  0  0  0  0  0  0
   -0.6503    1.2783    0.4099 H   0  0  0  0  0  0  0  0  0  0  0  0
    0.5301   -0.2873    1.2581 C   0  0  0  0  0  0  0  0  0  0  0  0
    0.7013   -1.3601    1.1323 H   0  0  0  0  0  0  0  0  0  0  0  0
    1.5005    0.1929    1.1096 H   0  0  0  0  0  0  0  0  0  0  0  0
    0.0747    0.0099    2.6963 C   0  0  0  0  0  0  0  0  0  0  0  0
   -0.8888   -0.4718    2.8862 H   0  0  0  0  0  0  0  0  0  0  0  0
    0.7949   -0.4185    3.4000 H   0  0  0  0  0  0  0  0  0  0  0  0
   -0.0945    1.8162    3.0220 S   0  0  0  0  0  0  0  0  0  0  0  0
    1.6418    2.4146    2.9877 C   0  0  0  0  0  0  0  0  0  0  0  0
    2.0709    2.2964    1.9894 H   0  0  0  0  0  0  0  0  0  0  0  0
    1.6759    3.4744    3.2576 H   0  0  0  0  0  0  0  0  0  0  0  0
    2.2496    1.8524    3.7030 H   0  0  0  0  0  0  0  0  0  0  0  0
    0.2006    0.2256   -1.2118 C   0  0  0  0  0  0  0  0  0  0  0  0
   -0.3155   -0.3612   -2.1563 O   0  0  0  0  0  0  0  0  0  0  0  0
    1.2967    1.0337   -1.4590 N   0  0  0  0  0  0  0  0  0  0  0  0
    1.6854    1.5511   -0.6766 H   0  0  0  0  0  0  0  0  0  0  0  0
    1.9288    1.1519   -2.7679 C   0  0  0  0  0  0  0  0  0  0  0  0
    1.2093    1.5111   -3.5114 H   0  0  0  0  0  0  0  0  0  0  0  0
    2.7612    1.8608   -2.7235 H   0  0  0  0  0  0  0  0  0  0  0  0
    2.3175    0.1814   -3.0942 H   0  0  0  0  0  0  0  0  0  0  0  0
  1  2  1  0  0  0  0
  2  3  1  0  0  0  0
  2  4  1  0  0  0  0
  2  5  1  0  0  0  0
  5  6  2  0  0  0  0
  5  7  1  0  0  0  0
  7  8  1  0  0  0  0
  7  9  1  0  0  0  0
  9 10  1  0  0  0  0
  9 11  1  0  0  0  0
  9 22  1  0  0  0  0
 11 12  1  0  0  0  0
 11 13  1  0  0  0  0
 11 14  1  0  0  0  0
 14 15  1  0  0  0  0
 14 16  1  0  0  0  0
 14 17  1  0  0  0  0
 17 18  1  0  0  0  0
 18 19  1  0  0  0  0
 18 20  1  0  0  0  0
 18 21  1  0  0  0  0
 22 23  2  0  0  0  0
 22 24  1  0  0  0  0
 24 25  1  0  0  0  0
 24 26  1  0  0  0  0
 26 27  1  0  0  0  0
 26 28  1  0  0  0  0
 26 29  1  0  0  0  0
M  END
$$$$

  -OEChem-01062216093D

 29 28  0     1  0  0  0  0  0999 V2000
   -3.8441   -3.1085    0.5805 H   0  0  0  0  0  0  0  0  0  0  0  0
   -3.6345   -2.1055    0.1981 C   0  0  0  0  0  0  0  0  0  0  0  0
   -4.3114   -1.3970    0.6813 H   0  0  0  0  0  0  0  0  0  0  0  0
   -3.8146   -2.0955   -0.8798 H   0  0  0  0  0  0  0  0  0  0  0  0
   -2.1941   -1.7242    0.4850 C   0  0  0  0  0  0  0  0  0  0  0  0
   -1.4642   -2.5590    0.9923 O   0  0  0  0  0  0  0  0  0  0  0  0
   -1.7617   -0.4724    0.0835 N   0  0  0  0  0  0  0  0  0  0  0  0
   -2.4215    0.0081   -0.5248 H   0  0  0  0  0  0  0  0  0  0  0  0
   -0.4192    0.1578    0.1438 C   0  0  1  0  0  0  0  0  0  0  0  0
   -0.5794    1.1265    0.6237 H   0  0  0  0  0  0  0  0  0  0  0  0
    0.6788   -0.5471    0.9848 C   0  0  0  0  0  0  0  0  0  0  0  0
    0.8122   -1.5709    0.6219 H   0  0  0  0  0  0  0  0  0  0  0  0
    1.6355   -0.0408    0.8400 H   0  0  0  0  0  0  0  0  0  0  0  0
    0.3904   -0.5688    2.4986 C   0  0  0  0  0  0  0  0  0  0  0  0
   -0.5457   -1.0912    2.7060 H   0  0  0  0  0  0  0  0  0  0  0  0
    1.1862   -1.1197    3.0091 H   0  0  0  0  0  0  0  0  0  0  0  0
    0.2703    1.1276    3.2088 S   0  0  0  0  0  0  0  0  0  0  0  0
    1.9943    1.7536    3.1061 C   0  0  0  0  0  0  0  0  0  0  0  0
    2.3064    1.8554    2.0635 H   0  0  0  0  0  0  0  0  0  0  0  0
    2.0645    2.7341    3.5867 H   0  0  0  0  0  0  0  0  0  0  0  0
    2.6769    1.0663    3.6149 H   0  0  0  0  0  0  0  0  0  0  0  0
    0.0687    0.5259   -1.2798 C   0  0  0  0  0  0  0  0  0  0  0  0
   -0.6846    0.4106   -2.2408 O   0  0  0  0  0  0  0  0  0  0  0  0
    1.2990    1.1275   -1.4815 N   0  0  0  0  0  0  0  0  0  0  0  0
    1.9029    1.2449   -0.6741 H   0  0  0  0  0  0  0  0  0  0  0  0
    1.7828    1.5480   -2.7914 C   0  0  0  0  0  0  0  0  0  0  0  0
    1.1098    2.2935   -3.2282 H   0  0  0  0  0  0  0  0  0  0  0  0
    2.7787    1.9924   -2.7024 H   0  0  0  0  0  0  0  0  0  0  0  0
    1.8464    0.6905   -3.4697 H   0  0  0  0  0  0  0  0  0  0  0  0
  1  2  1  0  0  0  0
  2  3  1  0  0  0  0
  2  4  1  0  0  0  0
  2  5  1  0  0  0  0
  5  6  2  0  0  0  0
  5  7  1  0  0  0  0
  7  8  1  0  0  0  0
  7  9  1  0  0  0  0
  9 10  1  0  0  0  0
  9 11  1  0  0  0  0
  9 22  1  0  0  0  0
 11 12  1  0  0  0  0
 11 13  1  0  0  0  0
 11 14  1  0  0  0  0
 14 15  1  0  0  0  0
 14 16  1  0  0  0  0
 14 17  1  0  0  0  0
 17 18  1  0  0  0  0
 18 19  1  0  0  0  0
 18 20  1  0  0  0  0
 18 21  1  0  0  0  0
 22 23  2  0  0  0  0
 22 24  1  0  0  0  0
 24 25  1  0  0  0  0
 24 26  1  0  0  0  0
 26 27  1  0  0  0  0
 26 28  1  0  0  0  0
 26 29  1  0  0  0  0
M  END
$$$$

  -OEChem-01062216093D

 29 28  0     1  0  0  0  0  0999 V2000
   -3.8416   -3.0916    0.5735 H   0  0  0  0  0  0  0  0  0  0  0  0
   -3.6239   -2.0910    0.1890 C   0  0  0  0  0  0  0  0  0  0  0  0
   -4.2943   -1.3758    0.6716 H   0  0  0  0  0  0  0  0  0  0  0  0
   -3.8049   -2.0812   -0.8887 H   0  0  0  0  0  0  0  0  0  0  0  0
   -2.1803   -1.7206    0.4735 C   0  0  0  0  0  0  0  0  0  0  0  0
   -1.4506   -2.5639    0.9667 O   0  0  0  0  0  0  0  0  0  0  0  0
   -1.7412   -0.4683    0.0822 N   0  0  0  0  0  0  0  0  0  0  0  0
   -2.4026    0.0311   -0.5094 H   0  0  0  0  0  0  0  0  0  0  0  0
   -0.3994    0.1605    0.1562 C   0  0  1  0  0  0  0  0  0  0  0  0
   -0.5583    1.1306    0.6340 H   0  0  0  0  0  0  0  0  0  0  0  0
    0.6866   -0.5497    1.0097 C   0  0  0  0  0  0  0  0  0  0  0  0
    0.8257   -1.5723    0.6463 H   0  0  0  0  0  0  0  0  0  0  0  0
    1.6445   -0.0413    0.8844 H   0  0  0  0  0  0  0  0  0  0  0  0
    0.3789   -0.5727    2.5192 C   0  0  0  0  0  0  0  0  0  0  0  0
   -0.5616   -1.0935    2.7119 H   0  0  0  0  0  0  0  0  0  0  0  0
    1.1660   -1.1267    3.0395 H   0  0  0  0  0  0  0  0  0  0  0  0
    0.2546    1.1227    3.2307 S   0  0  0  0  0  0  0  0  0  0  0  0
    1.9815    1.7445    3.1512 C   0  0  0  0  0  0  0  0  0  0  0  0
    2.3045    1.8533    2.1125 H   0  0  0  0  0  0  0  0  0  0  0  0
    2.0486    2.7214    3.6393 H   0  0  0  0  0  0  0  0  0  0  0  0
    2.6576    1.0520    3.6615 H   0  0  0  0  0  0  0  0  0  0  0  0
    0.0832    0.5273   -1.2706 C   0  0  0  0  0  0  0  0  0  0  0  0
   -0.7357    0.6412   -2.1770 O   0  0  0  0  0  0  0  0  0  0  0  0
    1.4043    0.8418   -1.5403 N   0  0  0  0  0  0  0  0  0  0  0  0
    2.0763    0.7337   -0.7876 H   0  0  0  0  0  0  0  0  0  0  0  0
    1.8853    1.2202   -2.8639 C   0  0  0  0  0  0  0  0  0  0  0  0
    1.3428    2.0969   -3.2334 H   0  0  0  0  0  0  0  0  0  0  0  0
    2.9505    1.4670   -2.8233 H   0  0  0  0  0  0  0  0  0  0  0  0
    1.7469    0.3958   -3.5713 H   0  0  0  0  0  0  0  0  0  0  0  0
  1  2  1  0  0  0  0
  2  3  1  0  0  0  0
  2  4  1  0  0  0  0
  2  5  1  0  0  0  0
  5  6  2  0  0  0  0
  5  7  1  0  0  0  0
  7  8  1  0  0  0  0
  7  9  1  0  0  0  0
  9 10  1  0  0  0  0
  9 11  1  0  0  0  0
  9 22  1  0  0  0  0
 11 12  1  0  0  0  0
 11 13  1  0  0  0  0
 11 14  1  0  0  0  0
 14 15  1  0  0  0  0
 14 16  1  0  0  0  0
 14 17  1  0  0  0  0
 17 18  1  0  0  0  0
 18 19  1  0  0  0  0
 18 20  1  0  0  0  0
 18 21  1  0  0  0  0
 22 23  2  0  0  0  0
 22 24  1  0  0  0  0
 24 25  1  0  0  0  0
 24 26  1  0  0  0  0
 26 27  1  0  0  0  0
 26 28  1  0  0  0  0
 26 29  1  0  0  0  0
M  END
$$$$

  -OEChem-01062216093D

 29 28  0     1  0  0  0  0  0999 V2000
   -3.8360   -3.0774    0.5814 H   0  0  0  0  0  0  0  0  0  0  0  0
   -3.6162   -2.0786    0.1940 C   0  0  0  0  0  0  0  0  0  0  0  0
   -4.2721   -1.3582    0.6888 H   0  0  0  0  0  0  0  0  0  0  0  0
   -3.8158   -2.0657   -0.8803 H   0  0  0  0  0  0  0  0  0  0  0  0
   -2.1646   -1.7213    0.4539 C   0  0  0  0  0  0  0  0  0  0  0  0
   -1.4287   -2.5741    0.9213 O   0  0  0  0  0  0  0  0  0  0  0  0
   -1.7226   -0.4677    0.0711 N   0  0  0  0  0  0  0  0  0  0  0  0
   -2.3961    0.0600   -0.4813 H   0  0  0  0  0  0  0  0  0  0  0  0
   -0.3827    0.1609    0.1614 C   0  0  1  0  0  0  0  0  0  0  0  0
   -0.5445    1.1311    0.6384 H   0  0  0  0  0  0  0  0  0  0  0  0
    0.6960   -0.5488    1.0237 C   0  0  0  0  0  0  0  0  0  0  0  0
    0.8461   -1.5695    0.6591 H   0  0  0  0  0  0  0  0  0  0  0  0
    1.6510   -0.0306    0.9122 H   0  0  0  0  0  0  0  0  0  0  0  0
    0.3712   -0.5757    2.5291 C   0  0  0  0  0  0  0  0  0  0  0  0
   -0.5701   -1.1006    2.7075 H   0  0  0  0  0  0  0  0  0  0  0  0
    1.1539   -1.1288    3.0574 H   0  0  0  0  0  0  0  0  0  0  0  0
    0.2341    1.1172    3.2440 S   0  0  0  0  0  0  0  0  0  0  0  0
    1.9595    1.7452    3.1863 C   0  0  0  0  0  0  0  0  0  0  0  0
    2.2949    1.8553    2.1515 H   0  0  0  0  0  0  0  0  0  0  0  0
    2.0165    2.7226    3.6746 H   0  0  0  0  0  0  0  0  0  0  0  0
    2.6318    1.0556    3.7054 H   0  0  0  0  0  0  0  0  0  0  0  0
    0.1019    0.5267   -1.2639 C   0  0  0  0  0  0  0  0  0  0  0  0
   -0.7234    0.8653   -2.1059 O   0  0  0  0  0  0  0  0  0  0  0  0
    1.4421    0.5476   -1.6112 N   0  0  0  0  0  0  0  0  0  0  0  0
    2.1068    0.1988   -0.9279 H   0  0  0  0  0  0  0  0  0  0  0  0
    1.9168    0.8689   -2.9519 C   0  0  0  0  0  0  0  0  0  0  0  0
    1.5677    1.8617   -3.2552 H   0  0  0  0  0  0  0  0  0  0  0  0
    3.0107    0.8671   -2.9763 H   0  0  0  0  0  0  0  0  0  0  0  0
    1.5520    0.1310   -3.6743 H   0  0  0  0  0  0  0  0  0  0  0  0
  1  2  1  0  0  0  0
  2  3  1  0  0  0  0
  2  4  1  0  0  0  0
  2  5  1  0  0  0  0
  5  6  2  0  0  0  0
  5  7  1  0  0  0  0
  7  8  1  0  0  0  0
  7  9  1  0  0  0  0
  9 10  1  0  0  0  0
  9 11  1  0  0  0  0
  9 22  1  0  0  0  0
 11 12  1  0  0  0  0
 11 13  1  0  0  0  0
 11 14  1  0  0  0  0
 14 15  1  0  0  0  0
 14 16  1  0  0  0  0
 14 17  1  0  0  0  0
 17 18  1  0  0  0  0
 18 19  1  0  0  0  0
 18 20  1  0  0  0  0
 18 21  1  0  0  0  0
 22 23  2  0  0  0  0
 22 24  1  0  0  0  0
 24 25  1  0  0  0  0
 24 26  1  0  0  0  0
 26 27  1  0  0  0  0
 26 28  1  0  0  0  0
 26 29  1  0  0  0  0
M  END
$$$$

  -OEChem-01062216093D

 29 28  0     1  0  0  0  0  0999 V2000
   -3.8307   -3.0641    0.6088 H   0  0  0  0  0  0  0  0  0  0  0  0
   -3.6138   -2.0675    0.2140 C   0  0  0  0  0  0  0  0  0  0  0  0
   -4.2514   -1.3419    0.7248 H   0  0  0  0  0  0  0  0  0  0  0  0
   -3.8413   -2.0547   -0.8548 H   0  0  0  0  0  0  0  0  0  0  0  0
   -2.1531   -1.7216    0.4351 C   0  0  0  0  0  0  0  0  0  0  0  0
   -1.4083   -2.5826    0.8723 O   0  0  0  0  0  0  0  0  0  0  0  0
   -1.7109   -0.4680    0.0531 N   0  0  0  0  0  0  0  0  0  0  0  0
   -2.4012    0.0866   -0.4496 H   0  0  0  0  0  0  0  0  0  0  0  0
   -0.3732    0.1609    0.1573 C   0  0  1  0  0  0  0  0  0  0  0  0
   -0.5381    1.1318    0.6322 H   0  0  0  0  0  0  0  0  0  0  0  0
    0.7017   -0.5464    1.0249 C   0  0  0  0  0  0  0  0  0  0  0  0
    0.8595   -1.5659    0.6607 H   0  0  0  0  0  0  0  0  0  0  0  0
    1.6536   -0.0202    0.9166 H   0  0  0  0  0  0  0  0  0  0  0  0
    0.3661   -0.5782    2.5274 C   0  0  0  0  0  0  0  0  0  0  0  0
   -0.5738   -1.1091    2.6958 H   0  0  0  0  0  0  0  0  0  0  0  0
    1.1476   -1.1290    3.0597 H   0  0  0  0  0  0  0  0  0  0  0  0
    0.2161    1.1110    3.2477 S   0  0  0  0  0  0  0  0  0  0  0  0
    1.9394    1.7455    3.2045 C   0  0  0  0  0  0  0  0  0  0  0  0
    2.2823    1.8572    2.1723 H   0  0  0  0  0  0  0  0  0  0  0  0
    1.9889    2.7230    3.6937 H   0  0  0  0  0  0  0  0  0  0  0  0
    2.6100    1.0578    3.7284 H   0  0  0  0  0  0  0  0  0  0  0  0
    0.1218    0.5206   -1.2635 C   0  0  0  0  0  0  0  0  0  0  0  0
   -0.6548    1.0652   -2.0401 O   0  0  0  0  0  0  0  0  0  0  0  0
    1.4116    0.2549   -1.6907 N   0  0  0  0  0  0  0  0  0  0  0  0
    1.9996   -0.2966   -1.0732 H   0  0  0  0  0  0  0  0  0  0  0  0
    1.8759    0.5242   -3.0464 C   0  0  0  0  0  0  0  0  0  0  0  0
    1.7484    1.5837   -3.2922 H   0  0  0  0  0  0  0  0  0  0  0  0
    2.9374    0.2755   -3.1391 H   0  0  0  0  0  0  0  0  0  0  0  0
    1.3141   -0.0757   -3.7700 H   0  0  0  0  0  0  0  0  0  0  0  0
  1  2  1  0  0  0  0
  2  3  1  0  0  0  0
  2  4  1  0  0  0  0
  2  5  1  0  0  0  0
  5  6  2  0  0  0  0
  5  7  1  0  0  0  0
  7  8  1  0  0  0  0
  7  9  1  0  0  0  0
  9 10  1  0  0  0  0
  9 11  1  0  0  0  0
  9 22  1  0  0  0  0
 11 12  1  0  0  0  0
 11 13  1  0  0  0  0
 11 14  1  0  0  0  0
 14 15  1  0  0  0  0
 14 16  1  0  0  0  0
 14 17  1  0  0  0  0
 17 18  1  0  0  0  0
 18 19  1  0  0  0  0
 18 20  1  0  0  0  0
 18 21  1  0  0  0  0
 22 23  2  0  0  0  0
 22 24  1  0  0  0  0
 24 25  1  0  0  0  0
 24 26  1  0  0  0  0
 26 27  1  0  0  0  0
 26 28  1  0  0  0  0
 26 29  1  0  0  0  0
M  END
$$$$

  -OEChem-01062216093D

 29 28  0     1  0  0  0  0  0999 V2000
   -3.8321   -3.0470    0.6573 H   0  0  0  0  0  0  0  0  0  0  0  0
   -3.6160   -2.0574    0.2449 C   0  0  0  0  0  0  0  0  0  0  0  0
   -4.2287   -1.3187    0.7670 H   0  0  0  0  0  0  0  0  0  0  0  0
   -3.8766   -2.0533   -0.8163 H   0  0  0  0  0  0  0  0  0  0  0  0
   -2.1456   -1.7258    0.4180 C   0  0  0  0  0  0  0  0  0  0  0  0
   -1.3927   -2.5957    0.8227 O   0  0  0  0  0  0  0  0  0  0  0  0
   -1.7038   -0.4731    0.0329 N   0  0  0  0  0  0  0  0  0  0  0  0
   -2.4123    0.1076   -0.4109 H   0  0  0  0  0  0  0  0  0  0  0  0
   -0.3676    0.1558    0.1463 C   0  0  1  0  0  0  0  0  0  0  0  0
   -0.5355    1.1277    0.6188 H   0  0  0  0  0  0  0  0  0  0  0  0
    0.7040   -0.5487    1.0188 C   0  0  0  0  0  0  0  0  0  0  0  0
    0.8668   -1.5690    0.6596 H   0  0  0  0  0  0  0  0  0  0  0  0
    1.6545   -0.0194    0.9078 H   0  0  0  0  0  0  0  0  0  0  0  0
    0.3597   -0.5811    2.5192 C   0  0  0  0  0  0  0  0  0  0  0  0
   -0.5799   -1.1153    2.6804 H   0  0  0  0  0  0  0  0  0  0  0  0
    1.1391   -1.1299    3.0568 H   0  0  0  0  0  0  0  0  0  0  0  0
    0.2013    1.1072    3.2393 S   0  0  0  0  0  0  0  0  0  0  0  0
    1.9235    1.7454    3.2059 C   0  0  0  0  0  0  0  0  0  0  0  0
    2.2746    1.8540    2.1761 H   0  0  0  0  0  0  0  0  0  0  0  0
    1.9665    2.7248    3.6915 H   0  0  0  0  0  0  0  0  0  0  0  0
    2.5916    1.0619    3.7379 H   0  0  0  0  0  0  0  0  0  0  0  0
    0.1413    0.5092   -1.2684 C   0  0  0  0  0  0  0  0  0  0  0  0
   -0.5368    1.2467   -1.9734 O   0  0  0  0  0  0  0  0  0  0  0  0
    1.3125   -0.0190   -1.7828 N   0  0  0  0  0  0  0  0  0  0  0  0
    1.7752   -0.7358   -1.2314 H   0  0  0  0  0  0  0  0  0  0  0  0
    1.7615    0.2163   -3.1498 C   0  0  0  0  0  0  0  0  0  0  0  0
    1.8673    1.2896   -3.3400 H   0  0  0  0  0  0  0  0  0  0  0  0
    2.7330   -0.2589   -3.3156 H   0  0  0  0  0  0  0  0  0  0  0  0
    1.0444   -0.1989   -3.8655 H   0  0  0  0  0  0  0  0  0  0  0  0
  1  2  1  0  0  0  0
  2  3  1  0  0  0  0
  2  4  1  0  0  0  0
  2  5  1  0  0  0  0
  5  6  2  0  0  0  0
  5  7  1  0  0  0  0
  7  8  1  0  0  0  0
  7  9  1  0  0  0  0
  9 10  1  0  0  0  0
  9 11  1  0  0  0  0
  9 22  1  0  0  0  0
 11 12  1  0  0  0  0
 11 13  1  0  0  0  0
 11 14  1  0  0  0  0
 14 15  1  0  0  0  0
 14 16  1  0  0  0  0
 14 17  1  0  0  0  0
 17 18  1  0  0  0  0
 18 19  1  0  0  0  0
 18 20  1  0  0  0  0
 18 21  1  0  0  0  0
 22 23  2  0  0  0  0
 22 24  1  0  0  0  0
 24 25  1  0  0  0  0
 24 26  1  0  0  0  0
 26 27  1  0  0  0  0
 26 28  1  0  0  0  0
 26 29  1  0  0  0  0
M  END
$$$$

  -OEChem-01062216093D

 29 28  0     1  0  0  0  0  0999 V2000
   -3.8176   -3.0518    0.6629 H   0  0  0  0  0  0  0  0  0  0  0  0
   -3.6162   -2.0487    0.2764 C   0  0  0  0  0  0  0  0  0  0  0  0
   -4.2072   -1.3283    0.8470 H   0  0  0  0  0  0  0  0  0  0  0  0
   -3.9180   -2.0084   -0.7729 H   0  0  0  0  0  0  0  0  0  0  0  0
   -2.1393   -1.7249    0.4035 C   0  0  0  0  0  0  0  0  0  0  0  0
   -1.3758   -2.6014    0.7725 O   0  0  0  0  0  0  0  0  0  0  0  0
   -1.7013   -0.4734    0.0109 N   0  0  0  0  0  0  0  0  0  0  0  0
   -2.4256    0.1259   -0.3788 H   0  0  0  0  0  0  0  0  0  0  0  0
   -0.3667    0.1573    0.1336 C   0  0  1  0  0  0  0  0  0  0  0  0
   -0.5374    1.1298    0.6045 H   0  0  0  0  0  0  0  0  0  0  0  0
    0.7056   -0.5446    1.0065 C   0  0  0  0  0  0  0  0  0  0  0  0
    0.8744   -1.5635    0.6468 H   0  0  0  0  0  0  0  0  0  0  0  0
    1.6541   -0.0113    0.8937 H   0  0  0  0  0  0  0  0  0  0  0  0
    0.3578   -0.5842    2.5055 C   0  0  0  0  0  0  0  0  0  0  0  0
   -0.5784   -1.1258    2.6617 H   0  0  0  0  0  0  0  0  0  0  0  0
    1.1398   -1.1301    3.0421 H   0  0  0  0  0  0  0  0  0  0  0  0
    0.1882    1.0995    3.2331 S   0  0  0  0  0  0  0  0  0  0  0  0
    1.9081    1.7448    3.2063 C   0  0  0  0  0  0  0  0  0  0  0  0
    2.2639    1.8510    2.1780 H   0  0  0  0  0  0  0  0  0  0  0  0
    1.9458    2.7259    3.6888 H   0  0  0  0  0  0  0  0  0  0  0  0
    2.5761    1.0650    3.7434 H   0  0  0  0  0  0  0  0  0  0  0  0
    0.1573    0.4999   -1.2758 C   0  0  0  0  0  0  0  0  0  0  0  0
   -0.3720    1.4077   -1.9043 O   0  0  0  0  0  0  0  0  0  0  0  0
    1.1490   -0.2519   -1.8803 N   0  0  0  0  0  0  0  0  0  0  0  0
    1.4460   -1.0934   -1.3938 H   0  0  0  0  0  0  0  0  0  0  0  0
    1.5703   -0.0527   -3.2614 C   0  0  0  0  0  0  0  0  0  0  0  0
    1.9200    0.9742   -3.4108 H   0  0  0  0  0  0  0  0  0  0  0  0
    2.3895   -0.7344   -3.5093 H   0  0  0  0  0  0  0  0  0  0  0  0
    0.7384   -0.2451   -3.9470 H   0  0  0  0  0  0  0  0  0  0  0  0
  1  2  1  0  0  0  0
  2  3  1  0  0  0  0
  2  4  1  0  0  0  0
  2  5  1  0  0  0  0
  5  6  2  0  0  0  0
  5  7  1  0  0  0  0
  7  8  1  0  0  0  0
  7  9  1  0  0  0  0
  9 10  1  0  0  0  0
  9 11  1  0  0  0  0
  9 22  1  0  0  0  0
 11 12  1  0  0  0  0
 11 13  1  0  0  0  0
 11 14  1  0  0  0  0
 14 15  1  0  0  0  0
 14 16  1  0  0  0  0
 14 17  1  0  0  0  0
 17 18  1  0  0  0  0
 18 19  1  0  0  0  0
 18 20  1  0  0  0  0
 18 21  1  0  0  0  0
 22 23  2  0  0  0  0
 22 24  1  0  0  0  0
 24 25  1  0  0  0  0
 24 26  1  0  0  0  0
 26 27  1  0  0  0  0
 26 28  1  0  0  0  0
 26 29  1  0  0  0  0
M  END
$$$$

  -OEChem-01062216093D

 29 28  0     1  0  0  0  0  0999 V2000
   -3.8167   -3.0324    0.7473 H   0  0  0  0  0  0  0  0  0  0  0  0
   -3.6226   -2.0386    0.3339 C   0  0  0  0  0  0  0  0  0  0  0  0
   -4.1786   -1.3019    0.9189 H   0  0  0  0  0  0  0  0  0  0  0  0
   -3.9730   -2.0126   -0.7008 H   0  0  0  0  0  0  0  0  0  0  0  0
   -2.1380   -1.7299    0.3859 C   0  0  0  0  0  0  0  0  0  0  0  0
   -1.3619   -2.6172    0.6978 O   0  0  0  0  0  0  0  0  0  0  0  0
   -1.7065   -0.4793   -0.0157 N   0  0  0  0  0  0  0  0  0  0  0  0
   -2.4482    0.1398   -0.3337 H   0  0  0  0  0  0  0  0  0  0  0  0
   -0.3737    0.1537    0.1139 C   0  0  1  0  0  0  0  0  0  0  0  0
   -0.5478    1.1259    0.5848 H   0  0  0  0  0  0  0  0  0  0  0  0
    0.7023   -0.5465    0.9823 C   0  0  0  0  0  0  0  0  0  0  0  0
    0.8789   -1.5623    0.6179 H   0  0  0  0  0  0  0  0  0  0  0  0
    1.6475   -0.0069    0.8700 H   0  0  0  0  0  0  0  0  0  0  0  0
    0.3537   -0.5960    2.4803 C   0  0  0  0  0  0  0  0  0  0  0  0
   -0.5785   -1.1462    2.6316 H   0  0  0  0  0  0  0  0  0  0  0  0
    1.1393   -1.1390    3.0147 H   0  0  0  0  0  0  0  0  0  0  0  0
    0.1728    1.0829    3.2163 S   0  0  0  0  0  0  0  0  0  0  0  0
    1.8882    1.7401    3.1940 C   0  0  0  0  0  0  0  0  0  0  0  0
    2.2442    1.8497    2.1658 H   0  0  0  0  0  0  0  0  0  0  0  0
    1.9183    2.7213    3.6770 H   0  0  0  0  0  0  0  0  0  0  0  0
    2.5603    1.0650    3.7318 H   0  0  0  0  0  0  0  0  0  0  0  0
    0.1656    0.4869   -1.2901 C   0  0  0  0  0  0  0  0  0  0  0  0
   -0.1482    1.5415   -1.8258 O   0  0  0  0  0  0  0  0  0  0  0  0
    0.9261   -0.4327   -1.9889 N   0  0  0  0  0  0  0  0  0  0  0  0
    1.0218   -1.3549   -1.5708 H   0  0  0  0  0  0  0  0  0  0  0  0
    1.3411   -0.2388   -3.3726 C   0  0  0  0  0  0  0  0  0  0  0  0
    1.9243    0.6826   -3.4731 H   0  0  0  0  0  0  0  0  0  0  0  0
    1.9632   -1.0767   -3.7016 H   0  0  0  0  0  0  0  0  0  0  0  0
    0.4670   -0.1756   -4.0289 H   0  0  0  0  0  0  0  0  0  0  0  0
  1  2  1  0  0  0  0
  2  3  1  0  0  0  0
  2  4  1  0  0  0  0
  2  5  1  0  0  0  0
  5  6  2  0  0  0  0
  5  7  1  0  0  0  0
  7  8  1  0  0  0  0
  7  9  1  0  0  0  0
  9 10  1  0  0  0  0
  9 11  1  0  0  0  0
  9 22  1  0  0  0  0
 11 12  1  0  0  0  0
 11 13  1  0  0  0  0
 11 14  1  0  0  0  0
 14 15  1  0  0  0  0
 14 16  1  0  0  0  0
 14 17  1  0  0  0  0
 17 18  1  0  0  0  0
 18 19  1  0  0  0  0
 18 20  1  0  0  0  0
 18 21  1  0  0  0  0
 22 23  2  0  0  0  0
 22 24  1  0  0  0  0
 24 25  1  0  0  0  0
 24 26  1  0  0  0  0
 26 27  1  0  0  0  0
 26 28  1  0  0  0  0
 26 29  1  0  0  0  0
M  END
$$$$

  -OEChem-01062216093D

 29 28  0     1  0  0  0  0  0999 V2000
   -3.8075   -3.0539    0.7567 H   0  0  0  0  0  0  0  0  0  0  0  0
   -3.6329   -2.0334    0.4041 C   0  0  0  0  0  0  0  0  0  0  0  0
   -4.1428   -1.3388    1.0762 H   0  0  0  0  0  0  0  0  0  0  0  0
   -4.0513   -1.9321   -0.6002 H   0  0  0  0  0  0  0  0  0  0  0  0
   -2.1458   -1.7336    0.3801 C   0  0  0  0  0  0  0  0  0  0  0  0
   -1.3580   -2.6280    0.6368 O   0  0  0  0  0  0  0  0  0  0  0  0
   -1.7257   -0.4844   -0.0370 N   0  0  0  0  0  0  0  0  0  0  0  0
   -2.4824    0.1452   -0.2923 H   0  0  0  0  0  0  0  0  0  0  0  0
   -0.3947    0.1550    0.0917 C   0  0  1  0  0  0  0  0  0  0  0  0
   -0.5700    1.1278    0.5611 H   0  0  0  0  0  0  0  0  0  0  0  0
    0.6891   -0.5433    0.9500 C   0  0  0  0  0  0  0  0  0  0  0  0
    0.8741   -1.5543    0.5762 H   0  0  0  0  0  0  0  0  0  0  0  0
    1.6292    0.0048    0.8368 H   0  0  0  0  0  0  0  0  0  0  0  0
    0.3485   -0.6052    2.4489 C   0  0  0  0  0  0  0  0  0  0  0  0
   -0.5784   -1.1638    2.6010 H   0  0  0  0  0  0  0  0  0  0  0  0
    1.1410   -1.1456    2.9754 H   0  0  0  0  0  0  0  0  0  0  0  0
    0.1598    1.0670    3.1970 S   0  0  0  0  0  0  0  0  0  0  0  0
    1.8711    1.7340    3.1695 C   0  0  0  0  0  0  0  0  0  0  0  0
    2.2122    1.8741    2.1398 H   0  0  0  0  0  0  0  0  0  0  0  0
    1.9025    2.7016    3.6790 H   0  0  0  0  0  0  0  0  0  0  0  0
    2.5542    1.0481    3.6790 H   0  0  0  0  0  0  0  0  0  0  0  0
    0.1528    0.4752   -1.3107 C   0  0  0  0  0  0  0  0  0  0  0  0
    0.1090    1.6181   -1.7452 O   0  0  0  0  0  0  0  0  0  0  0  0
    0.6442   -0.5433   -2.1053 N   0  0  0  0  0  0  0  0  0  0  0  0
    0.5498   -1.4898   -1.7435 H   0  0  0  0  0  0  0  0  0  0  0  0
    1.0913   -0.3474   -3.4782 C   0  0  0  0  0  0  0  0  0  0  0  0
    1.8907    0.4000   -3.5179 H   0  0  0  0  0  0  0  0  0  0  0  0
    1.4772   -1.2859   -3.8874 H   0  0  0  0  0  0  0  0  0  0  0  0
    0.2611   -0.0094   -4.1070 H   0  0  0  0  0  0  0  0  0  0  0  0
  1  2  1  0  0  0  0
  2  3  1  0  0  0  0
  2  4  1  0  0  0  0
  2  5  1  0  0  0  0
  5  6  2  0  0  0  0
  5  7  1  0  0  0  0
  7  8  1  0  0  0  0
  7  9  1  0  0  0  0
  9 10  1  0  0  0  0
  9 11  1  0  0  0  0
  9 22  1  0  0  0  0
 11 12  1  0  0  0  0
 11 13  1  0  0  0  0
 11 14  1  0  0  0  0
 14 15  1  0  0  0  0
 14 16  1  0  0  0  0
 14 17  1  0  0  0  0
 17 18  1  0  0  0  0
 18 19  1  0  0  0  0
 18 20  1  0  0  0  0
 18 21  1  0  0  0  0
 22 23  2  0  0  0  0
 22 24  1  0  0  0  0
 24 25  1  0  0  0  0
 24 26  1  0  0  0  0
 26 27  1  0  0  0  0
 26 28  1  0  0  0  0
 26 29  1  0  0  0  0
M  END
$$$$

  -OEChem-01062216093D

 29 28  0     1  0  0  0  0  0999 V2000
   -3.8060   -3.0556    0.8411 H   0  0  0  0  0  0  0  0  0  0  0  0
   -3.6464   -2.0385    0.4717 C   0  0  0  0  0  0  0  0  0  0  0  0
   -4.1280   -1.3375    1.1579 H   0  0  0  0  0  0  0  0  0  0  0  0
   -4.1056   -1.9462   -0.5155 H   0  0  0  0  0  0  0  0  0  0  0  0
   -2.1616   -1.7402    0.3842 C   0  0  0  0  0  0  0  0  0  0  0  0
   -1.3641   -2.6382    0.5920 O   0  0  0  0  0  0  0  0  0  0  0  0
   -1.7562   -0.4899   -0.0432 N   0  0  0  0  0  0  0  0  0  0  0  0
   -2.5245    0.1424   -0.2520 H   0  0  0  0  0  0  0  0  0  0  0  0
   -0.4273    0.1584    0.0759 C   0  0  1  0  0  0  0  0  0  0  0  0
   -0.6031    1.1295    0.5486 H   0  0  0  0  0  0  0  0  0  0  0  0
    0.6692   -0.5396    0.9163 C   0  0  0  0  0  0  0  0  0  0  0  0
    0.8566   -1.5453    0.5297 H   0  0  0  0  0  0  0  0  0  0  0  0
    1.6045    0.0155    0.7968 H   0  0  0  0  0  0  0  0  0  0  0  0
    0.3465   -0.6171    2.4183 C   0  0  0  0  0  0  0  0  0  0  0  0
   -0.5740   -1.1845    2.5770 H   0  0  0  0  0  0  0  0  0  0  0  0
    1.1497   -1.1561    2.9302 H   0  0  0  0  0  0  0  0  0  0  0  0
    0.1558    1.0478    3.1820 S   0  0  0  0  0  0  0  0  0  0  0  0
    1.8632    1.7239    3.1383 C   0  0  0  0  0  0  0  0  0  0  0  0
    2.1888    1.8754    2.1052 H   0  0  0  0  0  0  0  0  0  0  0  0
    1.8968    2.6867    3.6566 H   0  0  0  0  0  0  0  0  0  0  0  0
    2.5569    1.0366    3.6315 H   0  0  0  0  0  0  0  0  0  0  0  0
    0.1185    0.4777   -1.3268 C   0  0  0  0  0  0  0  0  0  0  0  0
    0.3635    1.6310   -1.6526 O   0  0  0  0  0  0  0  0  0  0  0  0
    0.3218   -0.5510   -2.2266 N   0  0  0  0  0  0  0  0  0  0  0  0
    0.0789   -1.4885   -1.9129 H   0  0  0  0  0  0  0  0  0  0  0  0
    0.8293   -0.3552   -3.5780 C   0  0  0  0  0  0  0  0  0  0  0  0
    1.8100    0.1313   -3.5521 H   0  0  0  0  0  0  0  0  0  0  0  0
    0.9357   -1.3191   -4.0848 H   0  0  0  0  0  0  0  0  0  0  0  0
    0.1417    0.2681   -4.1591 H   0  0  0  0  0  0  0  0  0  0  0  0
  1  2  1  0  0  0  0
  2  3  1  0  0  0  0
  2  4  1  0  0  0  0
  2  5  1  0  0  0  0
  5  6  2  0  0  0  0
  5  7  1  0  0  0  0
  7  8  1  0  0  0  0
  7  9  1  0  0  0  0
  9 10  1  0  0  0  0
  9 11  1  0  0  0  0
  9 22  1  0  0  0  0
 11 12  1  0  0  0  0
 11 13  1  0  0  0  0
 11 14  1  0  0  0  0
 14 15  1  0  0  0  0
 14 16  1  0  0  0  0
 14 17  1  0  0  0  0
 17 18  1  0  0  0  0
 18 19  1  0  0  0  0
 18 20  1  0  0  0  0
 18 21  1  0  0  0  0
 22 23  2  0  0  0  0
 22 24  1  0  0  0  0
 24 25  1  0  0  0  0
 24 26  1  0  0  0  0
 26 27  1  0  0  0  0
 26 28  1  0  0  0  0
 26 29  1  0  0  0  0
M  END
$$$$

  -OEChem-01062216093D

 29 28  0     1  0  0  0  0  0999 V2000
   -3.8068   -3.0648    0.9009 H   0  0  0  0  0  0  0  0  0  0  0  0
   -3.6589   -2.0499    0.5208 C   0  0  0  0  0  0  0  0  0  0  0  0
   -4.1258   -1.3453    1.2134 H   0  0  0  0  0  0  0  0  0  0  0  0
   -4.1416   -1.9656   -0.4559 H   0  0  0  0  0  0  0  0  0  0  0  0
   -2.1774   -1.7488    0.3962 C   0  0  0  0  0  0  0  0  0  0  0  0
   -1.3739   -2.6470    0.5756 O   0  0  0  0  0  0  0  0  0  0  0  0
   -1.7865   -0.4954   -0.0359 N   0  0  0  0  0  0  0  0  0  0  0  0
   -2.5638    0.1353   -0.2138 H   0  0  0  0  0  0  0  0  0  0  0  0
   -0.4596    0.1635    0.0681 C   0  0  1  0  0  0  0  0  0  0  0  0
   -0.6354    1.1319    0.5463 H   0  0  0  0  0  0  0  0  0  0  0  0
    0.6506   -0.5349    0.8896 C   0  0  0  0  0  0  0  0  0  0  0  0
    0.8386   -1.5358    0.4910 H   0  0  0  0  0  0  0  0  0  0  0  0
    1.5817    0.0259    0.7635 H   0  0  0  0  0  0  0  0  0  0  0  0
    0.3478   -0.6254    2.3950 C   0  0  0  0  0  0  0  0  0  0  0  0
   -0.5668   -1.1996    2.5621 H   0  0  0  0  0  0  0  0  0  0  0  0
    1.1612   -1.1629    2.8919 H   0  0  0  0  0  0  0  0  0  0  0  0
    0.1582    1.0329    3.1730 S   0  0  0  0  0  0  0  0  0  0  0  0
    1.8618    1.7162    3.1110 C   0  0  0  0  0  0  0  0  0  0  0  0
    2.1721    1.8787    2.0747 H   0  0  0  0  0  0  0  0  0  0  0  0
    1.8988    2.6743    3.6376 H   0  0  0  0  0  0  0  0  0  0  0  0
    2.5655    1.0272    3.5875 H   0  0  0  0  0  0  0  0  0  0  0  0
    0.0796    0.4925   -1.3361 C   0  0  0  0  0  0  0  0  0  0  0  0
    0.5906    1.5797   -1.5670 O   0  0  0  0  0  0  0  0  0  0  0  0
   -0.0011   -0.4563   -2.3376 N   0  0  0  0  0  0  0  0  0  0  0  0
   -0.3675   -1.3672   -2.0699 H   0  0  0  0  0  0  0  0  0  0  0  0
    0.5592   -0.2737   -3.6700 C   0  0  0  0  0  0  0  0  0  0  0  0
    1.6404   -0.1105   -3.6113 H   0  0  0  0  0  0  0  0  0  0  0  0
    0.3758   -1.1622   -4.2819 H   0  0  0  0  0  0  0  0  0  0  0  0
    0.0987    0.5876   -4.1651 H   0  0  0  0  0  0  0  0  0  0  0  0
  1  2  1  0  0  0  0
  2  3  1  0  0  0  0
  2  4  1  0  0  0  0
  2  5  1  0  0  0  0
  5  6  2  0  0  0  0
  5  7  1  0  0  0  0
  7  8  1  0  0  0  0
  7  9  1  0  0  0  0
  9 10  1  0  0  0  0
  9 11  1  0  0  0  0
  9 22  1  0  0  0  0
 11 12  1  0  0  0  0
 11 13  1  0  0  0  0
 11 14  1  0  0  0  0
 14 15  1  0  0  0  0
 14 16  1  0  0  0  0
 14 17  1  0  0  0  0
 17 18  1  0  0  0  0
 18 19  1  0  0  0  0
 18 20  1  0  0  0  0
 18 21  1  0  0  0  0
 22 23  2  0  0  0  0
 22 24  1  0  0  0  0
 24 25  1  0  0  0  0
 24 26  1  0  0  0  0
 26 27  1  0  0  0  0
 26 28  1  0  0  0  0
 26 29  1  0  0  0  0
M  END
$$$$

  -OEChem-01062216093D

 29 28  0     1  0  0  0  0  0999 V2000
   -3.8106   -3.0808    0.9302 H   0  0  0  0  0  0  0  0  0  0  0  0
   -3.6672   -2.0650    0.5505 C   0  0  0  0  0  0  0  0  0  0  0  0
   -4.1268   -1.3625    1.2503 H   0  0  0  0  0  0  0  0  0  0  0  0
   -4.1614   -1.9791   -0.4203 H   0  0  0  0  0  0  0  0  0  0  0  0
   -2.1870   -1.7632    0.4098 C   0  0  0  0  0  0  0  0  0  0  0  0
   -1.3826   -2.6608    0.5856 O   0  0  0  0  0  0  0  0  0  0  0  0
   -1.8028   -0.5080   -0.0256 N   0  0  0  0  0  0  0  0  0  0  0  0
   -2.5846    0.1218   -0.1861 H   0  0  0  0  0  0  0  0  0  0  0  0
   -0.4756    0.1564    0.0649 C   0  0  1  0  0  0  0  0  0  0  0  0
   -0.6531    1.1238    0.5441 H   0  0  0  0  0  0  0  0  0  0  0  0
    0.6377   -0.5406    0.8838 C   0  0  0  0  0  0  0  0  0  0  0  0
    0.8230   -1.5429    0.4870 H   0  0  0  0  0  0  0  0  0  0  0  0
    1.5698    0.0173    0.7533 H   0  0  0  0  0  0  0  0  0  0  0  0
    0.3420   -0.6245    2.3906 C   0  0  0  0  0  0  0  0  0  0  0  0
   -0.5728   -1.1966    2.5646 H   0  0  0  0  0  0  0  0  0  0  0  0
    1.1570   -1.1612    2.8859 H   0  0  0  0  0  0  0  0  0  0  0  0
    0.1590    1.0387    3.1602 S   0  0  0  0  0  0  0  0  0  0  0  0
    1.8642    1.7180    3.0858 C   0  0  0  0  0  0  0  0  0  0  0  0
    2.1673    1.8791    2.0471 H   0  0  0  0  0  0  0  0  0  0  0  0
    1.9077    2.6763    3.6116 H   0  0  0  0  0  0  0  0  0  0  0  0
    2.5697    1.0276    3.5571 H   0  0  0  0  0  0  0  0  0  0  0  0
    0.0675    0.4977   -1.3369 C   0  0  0  0  0  0  0  0  0  0  0  0
    0.7981    1.4662   -1.4963 O   0  0  0  0  0  0  0  0  0  0  0  0
   -0.2681   -0.2899   -2.4221 N   0  0  0  0  0  0  0  0  0  0  0  0
   -0.7727   -1.1482   -2.2141 H   0  0  0  0  0  0  0  0  0  0  0  0
    0.2859   -0.0951   -3.7557 C   0  0  0  0  0  0  0  0  0  0  0  0
    1.3725   -0.2300   -3.7425 H   0  0  0  0  0  0  0  0  0  0  0  0
   -0.1455   -0.8187   -4.4538 H   0  0  0  0  0  0  0  0  0  0  0  0
    0.0598    0.9123   -4.1209 H   0  0  0  0  0  0  0  0  0  0  0  0
  1  2  1  0  0  0  0
  2  3  1  0  0  0  0
  2  4  1  0  0  0  0
  2  5  1  0  0  0  0
  5  6  2  0  0  0  0
  5  7  1  0  0  0  0
  7  8  1  0  0  0  0
  7  9  1  0  0  0  0
  9 10  1  0  0  0  0
  9 11  1  0  0  0  0
  9 22  1  0  0  0  0
 11 12  1  0  0  0  0
 11 13  1  0  0  0  0
 11 14  1  0  0  0  0
 14 15  1  0  0  0  0
 14 16  1  0  0  0  0
 14 17  1  0  0  0  0
 17 18  1  0  0  0  0
 18 19  1  0  0  0  0
 18 20  1  0  0  0  0
 18 21  1  0  0  0  0
 22 23  2  0  0  0  0
 22 24  1  0  0  0  0
 24 25  1  0  0  0  0
 24 26  1  0  0  0  0
 26 27  1  0  0  0  0
 26 28  1  0  0  0  0
 26 29  1  0  0  0  0
M  END
$$$$

  -OEChem-01062216093D

 29 28  0     1  0  0  0  0  0999 V2000
   -3.8029   -3.1037    0.9086 H   0  0  0  0  0  0  0  0  0  0  0  0
   -3.6621   -2.0778    0.5561 C   0  0  0  0  0  0  0  0  0  0  0  0
   -4.1160   -1.3951    1.2787 H   0  0  0  0  0  0  0  0  0  0  0  0
   -4.1641   -1.9655   -0.4080 H   0  0  0  0  0  0  0  0  0  0  0  0
   -2.1828   -1.7725    0.4119 C   0  0  0  0  0  0  0  0  0  0  0  0
   -1.3783   -2.6694    0.5879 O   0  0  0  0  0  0  0  0  0  0  0  0
   -1.8037   -0.5142   -0.0212 N   0  0  0  0  0  0  0  0  0  0  0  0
   -2.5886    0.1174   -0.1579 H   0  0  0  0  0  0  0  0  0  0  0  0
   -0.4762    0.1541    0.0619 C   0  0  1  0  0  0  0  0  0  0  0  0
   -0.6537    1.1208    0.5415 H   0  0  0  0  0  0  0  0  0  0  0  0
    0.6349   -0.5439    0.8857 C   0  0  0  0  0  0  0  0  0  0  0  0
    0.8184   -1.5478    0.4927 H   0  0  0  0  0  0  0  0  0  0  0  0
    1.5704    0.0085    0.7574 H   0  0  0  0  0  0  0  0  0  0  0  0
    0.3357   -0.6196    2.3924 C   0  0  0  0  0  0  0  0  0  0  0  0
   -0.5815   -1.1872    2.5669 H   0  0  0  0  0  0  0  0  0  0  0  0
    1.1476   -1.1572    2.8917 H   0  0  0  0  0  0  0  0  0  0  0  0
    0.1573    1.0475    3.1553 S   0  0  0  0  0  0  0  0  0  0  0  0
    1.8659    1.7189    3.0812 C   0  0  0  0  0  0  0  0  0  0  0  0
    2.1725    1.8734    2.0424 H   0  0  0  0  0  0  0  0  0  0  0  0
    1.9130    2.6793    3.6028 H   0  0  0  0  0  0  0  0  0  0  0  0
    2.5665    1.0272    3.5577 H   0  0  0  0  0  0  0  0  0  0  0  0
    0.0634    0.5063   -1.3417 C   0  0  0  0  0  0  0  0  0  0  0  0
    0.9663    1.3226   -1.4700 O   0  0  0  0  0  0  0  0  0  0  0  0
   -0.4975   -0.0633   -2.4701 N   0  0  0  0  0  0  0  0  0  0  0  0
   -1.1364   -0.8362   -2.3045 H   0  0  0  0  0  0  0  0  0  0  0  0
    0.0257    0.1456   -3.8145 C   0  0  0  0  0  0  0  0  0  0  0  0
    1.0483   -0.2384   -3.8910 H   0  0  0  0  0  0  0  0  0  0  0  0
   -0.5974   -0.3755   -4.5478 H   0  0  0  0  0  0  0  0  0  0  0  0
    0.0306    1.2121   -4.0630 H   0  0  0  0  0  0  0  0  0  0  0  0
  1  2  1  0  0  0  0
  2  3  1  0  0  0  0
  2  4  1  0  0  0  0
  2  5  1  0  0  0  0
  5  6  2  0  0  0  0
  5  7  1  0  0  0  0
  7  8  1  0  0  0  0
  7  9  1  0  0  0  0
  9 10  1  0  0  0  0
  9 11  1  0  0  0  0
  9 22  1  0  0  0  0
 11 12  1  0  0  0  0
 11 13  1  0  0  0  0
 11 14  1  0  0  0  0
 14 15  1  0  0  0  0
 14 16  1  0  0  0  0
 14 17  1  0  0  0  0
 17 18  1  0  0  0  0
 18 19  1  0  0  0  0
 18 20  1  0  0  0  0
 18 21  1  0  0  0  0
 22 23  2  0  0  0  0
 22 24  1  0  0  0  0
 24 25  1  0  0  0  0
 24 26  1  0  0  0  0
 26 27  1  0  0  0  0
 26 28  1  0  0  0  0
 26 29  1  0  0  0  0
M  END
$$$$

  -OEChem-01062216093D

 29 28  0     1  0  0  0  0  0999 V2000
   -3.7926   -3.1095    0.9114 H   0  0  0  0  0  0  0  0  0  0  0  0
   -3.6529   -2.0848    0.5546 C   0  0  0  0  0  0  0  0  0  0  0  0
   -4.1054   -1.3992    1.2753 H   0  0  0  0  0  0  0  0  0  0  0  0
   -4.1572   -1.9767   -0.4086 H   0  0  0  0  0  0  0  0  0  0  0  0
   -2.1739   -1.7801    0.4059 C   0  0  0  0  0  0  0  0  0  0  0  0
   -1.3706   -2.6769    0.5861 O   0  0  0  0  0  0  0  0  0  0  0  0
   -1.7980   -0.5193   -0.0245 N   0  0  0  0  0  0  0  0  0  0  0  0
   -2.5850    0.1140   -0.1376 H   0  0  0  0  0  0  0  0  0  0  0  0
   -0.4704    0.1514    0.0567 C   0  0  1  0  0  0  0  0  0  0  0  0
   -0.6492    1.1183    0.5355 H   0  0  0  0  0  0  0  0  0  0  0  0
    0.6345   -0.5492    0.8903 C   0  0  0  0  0  0  0  0  0  0  0  0
    0.8173   -1.5543    0.5004 H   0  0  0  0  0  0  0  0  0  0  0  0
    1.5742   -0.0024    0.7703 H   0  0  0  0  0  0  0  0  0  0  0  0
    0.3274   -0.6175    2.3958 C   0  0  0  0  0  0  0  0  0  0  0  0
   -0.5924   -1.1813    2.5689 H   0  0  0  0  0  0  0  0  0  0  0  0
    1.1354   -1.1556    2.9013 H   0  0  0  0  0  0  0  0  0  0  0  0
    0.1530    1.0543    3.1493 S   0  0  0  0  0  0  0  0  0  0  0  0
    1.8658    1.7160    3.0794 C   0  0  0  0  0  0  0  0  0  0  0  0
    2.1801    1.8566    2.0410 H   0  0  0  0  0  0  0  0  0  0  0  0
    1.9148    2.6824    3.5897 H   0  0  0  0  0  0  0  0  0  0  0  0
    2.5599    1.0261    3.5682 H   0  0  0  0  0  0  0  0  0  0  0  0
    0.0679    0.5110   -1.3488 C   0  0  0  0  0  0  0  0  0  0  0  0
    1.1030    1.1522   -1.4756 O   0  0  0  0  0  0  0  0  0  0  0  0
   -0.6667    0.2033   -2.4800 N   0  0  0  0  0  0  0  0  0  0  0  0
   -1.4290   -0.4538   -2.3440 H   0  0  0  0  0  0  0  0  0  0  0  0
   -0.1830    0.4478   -3.8334 C   0  0  0  0  0  0  0  0  0  0  0  0
    0.7321   -0.1236   -4.0221 H   0  0  0  0  0  0  0  0  0  0  0  0
   -0.9383    0.1459   -4.5653 H   0  0  0  0  0  0  0  0  0  0  0  0
    0.0305    1.5121   -3.9787 H   0  0  0  0  0  0  0  0  0  0  0  0
  1  2  1  0  0  0  0
  2  3  1  0  0  0  0
  2  4  1  0  0  0  0
  2  5  1  0  0  0  0
  5  6  2  0  0  0  0
  5  7  1  0  0  0  0
  7  8  1  0  0  0  0
  7  9  1  0  0  0  0
  9 10  1  0  0  0  0
  9 11  1  0  0  0  0
  9 22  1  0  0  0  0
 11 12  1  0  0  0  0
 11 13  1  0  0  0  0
 11 14  1  0  0  0  0
 14 15  1  0  0  0  0
 14 16  1  0  0  0  0
 14 17  1  0  0  0  0
 17 18  1  0  0  0  0
 18 19  1  0  0  0  0
 18 20  1  0  0  0  0
 18 21  1  0  0  0  0
 22 23  2  0  0  0  0
 22 24  1  0  0  0  0
 24 25  1  0  0  0  0
 24 26  1  0  0  0  0
 26 27  1  0  0  0  0
 26 28  1  0  0  0  0
 26 29  1  0  0  0  0
M  END
$$$$

  -OEChem-01062216093D

 29 28  0     1  0  0  0  0  0999 V2000
   -3.7795   -3.0996    0.9339 H   0  0  0  0  0  0  0  0  0  0  0  0
   -3.6387   -2.0858    0.5480 C   0  0  0  0  0  0  0  0  0  0  0  0
   -4.0897   -1.3798    1.2497 H   0  0  0  0  0  0  0  0  0  0  0  0
   -4.1433   -2.0047   -0.4176 H   0  0  0  0  0  0  0  0  0  0  0  0
   -2.1594   -1.7872    0.3891 C   0  0  0  0  0  0  0  0  0  0  0  0
   -1.3590   -2.6861    0.5717 O   0  0  0  0  0  0  0  0  0  0  0  0
   -1.7834   -0.5247   -0.0374 N   0  0  0  0  0  0  0  0  0  0  0  0
   -2.5709    0.1115   -0.1253 H   0  0  0  0  0  0  0  0  0  0  0  0
   -0.4550    0.1446    0.0470 C   0  0  1  0  0  0  0  0  0  0  0  0
   -0.6338    1.1125    0.5226 H   0  0  0  0  0  0  0  0  0  0  0  0
    0.6404   -0.5572    0.8946 C   0  0  0  0  0  0  0  0  0  0  0  0
    0.8249   -1.5645    0.5112 H   0  0  0  0  0  0  0  0  0  0  0  0
    1.5836   -0.0150    0.7848 H   0  0  0  0  0  0  0  0  0  0  0  0
    0.3176   -0.6140    2.3973 C   0  0  0  0  0  0  0  0  0  0  0  0
   -0.6063   -1.1732    2.5638 H   0  0  0  0  0  0  0  0  0  0  0  0
    1.1176   -1.1531    2.9140 H   0  0  0  0  0  0  0  0  0  0  0  0
    0.1434    1.0625    3.1406 S   0  0  0  0  0  0  0  0  0  0  0  0
    1.8596    1.7162    3.0858 C   0  0  0  0  0  0  0  0  0  0  0  0
    2.1905    1.8428    2.0508 H   0  0  0  0  0  0  0  0  0  0  0  0
    1.9059    2.6885    3.5850 H   0  0  0  0  0  0  0  0  0  0  0  0
    2.5430    1.0290    3.5931 H   0  0  0  0  0  0  0  0  0  0  0  0
    0.0796    0.5062   -1.3620 C   0  0  0  0  0  0  0  0  0  0  0  0
    1.2149    0.9376   -1.5171 O   0  0  0  0  0  0  0  0  0  0  0  0
   -0.7703    0.4892   -2.4543 N   0  0  0  0  0  0  0  0  0  0  0  0
   -1.6436   -0.0116   -2.3266 H   0  0  0  0  0  0  0  0  0  0  0  0
   -0.3279    0.7891   -3.8112 C   0  0  0  0  0  0  0  0  0  0  0  0
    0.4338    0.0714   -4.1336 H   0  0  0  0  0  0  0  0  0  0  0  0
   -1.1724    0.7350   -4.5050 H   0  0  0  0  0  0  0  0  0  0  0  0
    0.0950    1.7980   -3.8631 H   0  0  0  0  0  0  0  0  0  0  0  0
  1  2  1  0  0  0  0
  2  3  1  0  0  0  0
  2  4  1  0  0  0  0
  2  5  1  0  0  0  0
  5  6  2  0  0  0  0
  5  7  1  0  0  0  0
  7  8  1  0  0  0  0
  7  9  1  0  0  0  0
  9 10  1  0  0  0  0
  9 11  1  0  0  0  0
  9 22  1  0  0  0  0
 11 12  1  0  0  0  0
 11 13  1  0  0  0  0
 11 14  1  0  0  0  0
 14 15  1  0  0  0  0
 14 16  1  0  0  0  0
 14 17  1  0  0  0  0
 17 18  1  0  0  0  0
 18 19  1  0  0  0  0
 18 20  1  0  0  0  0
 18 21  1  0  0  0  0
 22 23  2  0  0  0  0
 22 24  1  0  0  0  0
 24 25  1  0  0  0  0
 24 26  1  0  0  0  0
 26 27  1  0  0  0  0
 26 28  1  0  0  0  0
 26 29  1  0  0  0  0
M  END
$$$$

  -OEChem-01062216093D

 29 28  0     1  0  0  0  0  0999 V2000
   -3.7728   -3.1107    0.8938 H   0  0  0  0  0  0  0  0  0  0  0  0
   -3.6293   -2.0917    0.5223 C   0  0  0  0  0  0  0  0  0  0  0  0
   -4.0825   -1.3948    1.2316 H   0  0  0  0  0  0  0  0  0  0  0  0
   -4.1297   -1.9971   -0.4444 H   0  0  0  0  0  0  0  0  0  0  0  0
   -2.1490   -1.7924    0.3742 C   0  0  0  0  0  0  0  0  0  0  0  0
   -1.3508   -2.6893    0.5748 O   0  0  0  0  0  0  0  0  0  0  0  0
   -1.7722   -0.5274   -0.0458 N   0  0  0  0  0  0  0  0  0  0  0  0
   -2.5604    0.1077   -0.1258 H   0  0  0  0  0  0  0  0  0  0  0  0
   -0.4425    0.1384    0.0411 C   0  0  1  0  0  0  0  0  0  0  0  0
   -0.6209    1.1065    0.5161 H   0  0  0  0  0  0  0  0  0  0  0  0
    0.6463   -0.5616    0.9002 C   0  0  0  0  0  0  0  0  0  0  0  0
    0.8327   -1.5709    0.5229 H   0  0  0  0  0  0  0  0  0  0  0  0
    1.5910   -0.0212    0.7955 H   0  0  0  0  0  0  0  0  0  0  0  0
    0.3138   -0.6070    2.4012 C   0  0  0  0  0  0  0  0  0  0  0  0
   -0.6131   -1.1623    2.5646 H   0  0  0  0  0  0  0  0  0  0  0  0
    1.1089   -1.1458    2.9260 H   0  0  0  0  0  0  0  0  0  0  0  0
    0.1403    1.0744    3.1344 S   0  0  0  0  0  0  0  0  0  0  0  0
    1.8590    1.7228    3.0871 C   0  0  0  0  0  0  0  0  0  0  0  0
    2.1977    1.8382    2.0534 H   0  0  0  0  0  0  0  0  0  0  0  0
    1.9045    2.6996    3.5776 H   0  0  0  0  0  0  0  0  0  0  0  0
    2.5370    1.0390    3.6064 H   0  0  0  0  0  0  0  0  0  0  0  0
    0.0855    0.5046   -1.3710 C   0  0  0  0  0  0  0  0  0  0  0  0
    1.2786    0.6731   -1.5889 O   0  0  0  0  0  0  0  0  0  0  0  0
   -0.8071    0.7963   -2.3886 N   0  0  0  0  0  0  0  0  0  0  0  0
   -1.7703    0.5193   -2.2348 H   0  0  0  0  0  0  0  0  0  0  0  0
   -0.3850    1.1337   -3.7436 C   0  0  0  0  0  0  0  0  0  0  0  0
    0.1733    0.3033   -4.1885 H   0  0  0  0  0  0  0  0  0  0  0  0
   -1.2566    1.3424   -4.3711 H   0  0  0  0  0  0  0  0  0  0  0  0
    0.2534    2.0235   -3.7362 H   0  0  0  0  0  0  0  0  0  0  0  0
  1  2  1  0  0  0  0
  2  3  1  0  0  0  0
  2  4  1  0  0  0  0
  2  5  1  0  0  0  0
  5  6  2  0  0  0  0
  5  7  1  0  0  0  0
  7  8  1  0  0  0  0
  7  9  1  0  0  0  0
  9 10  1  0  0  0  0
  9 11  1  0  0  0  0
  9 22  1  0  0  0  0
 11 12  1  0  0  0  0
 11 13  1  0  0  0  0
 11 14  1  0  0  0  0
 14 15  1  0  0  0  0
 14 16  1  0  0  0  0
 14 17  1  0  0  0  0
 17 18  1  0  0  0  0
 18 19  1  0  0  0  0
 18 20  1  0  0  0  0
 18 21  1  0  0  0  0
 22 23  2  0  0  0  0
 22 24  1  0  0  0  0
 24 25  1  0  0  0  0
 24 26  1  0  0  0  0
 26 27  1  0  0  0  0
 26 28  1  0  0  0  0
 26 29  1  0  0  0  0
M  END
$$$$

  -OEChem-01062216093D

 29 28  0     1  0  0  0  0  0999 V2000
   -3.7901   -3.1208    0.8194 H   0  0  0  0  0  0  0  0  0  0  0  0
   -3.6351   -2.1039    0.4472 C   0  0  0  0  0  0  0  0  0  0  0  0
   -4.1393   -1.4054    1.1193 H   0  0  0  0  0  0  0  0  0  0  0  0
   -4.0748   -2.0247   -0.5500 H   0  0  0  0  0  0  0  0  0  0  0  0
   -2.1518   -1.7898    0.3872 C   0  0  0  0  0  0  0  0  0  0  0  0
   -1.3611   -2.6748    0.6581 O   0  0  0  0  0  0  0  0  0  0  0  0
   -1.7652   -0.5268   -0.0310 N   0  0  0  0  0  0  0  0  0  0  0  0
   -2.5519    0.0955   -0.1820 H   0  0  0  0  0  0  0  0  0  0  0  0
   -0.4337    0.1341    0.0513 C   0  0  1  0  0  0  0  0  0  0  0  0
   -0.6080    1.1030    0.5259 H   0  0  0  0  0  0  0  0  0  0  0  0
    0.6565   -0.5606    0.9119 C   0  0  0  0  0  0  0  0  0  0  0  0
    0.8374   -1.5736    0.5417 H   0  0  0  0  0  0  0  0  0  0  0  0
    1.6009   -0.0216    0.7954 H   0  0  0  0  0  0  0  0  0  0  0  0
    0.3295   -0.5955    2.4150 C   0  0  0  0  0  0  0  0  0  0  0  0
   -0.5982   -1.1469    2.5858 H   0  0  0  0  0  0  0  0  0  0  0  0
    1.1251   -1.1328    2.9403 H   0  0  0  0  0  0  0  0  0  0  0  0
    0.1604    1.0908    3.1390 S   0  0  0  0  0  0  0  0  0  0  0  0
    1.8798    1.7357    3.0812 C   0  0  0  0  0  0  0  0  0  0  0  0
    2.2138    1.8478    2.0456 H   0  0  0  0  0  0  0  0  0  0  0  0
    1.9290    2.7134    3.5696 H   0  0  0  0  0  0  0  0  0  0  0  0
    2.5585    1.0515    3.5991 H   0  0  0  0  0  0  0  0  0  0  0  0
    0.0828    0.4963   -1.3660 C   0  0  0  0  0  0  0  0  0  0  0  0
    1.2567    0.3600   -1.6863 O   0  0  0  0  0  0  0  0  0  0  0  0
   -0.7732    1.0858   -2.2816 N   0  0  0  0  0  0  0  0  0  0  0  0
   -1.7526    1.1502   -2.0304 H   0  0  0  0  0  0  0  0  0  0  0  0
   -0.3678    1.4534   -3.6338 C   0  0  0  0  0  0  0  0  0  0  0  0
   -0.0262    0.5705   -4.1845 H   0  0  0  0  0  0  0  0  0  0  0  0
   -1.2098    1.8949   -4.1754 H   0  0  0  0  0  0  0  0  0  0  0  0
    0.4455    2.1864   -3.6046 H   0  0  0  0  0  0  0  0  0  0  0  0
  1  2  1  0  0  0  0
  2  3  1  0  0  0  0
  2  4  1  0  0  0  0
  2  5  1  0  0  0  0
  5  6  2  0  0  0  0
  5  7  1  0  0  0  0
  7  8  1  0  0  0  0
  7  9  1  0  0  0  0
  9 10  1  0  0  0  0
  9 11  1  0  0  0  0
  9 22  1  0  0  0  0
 11 12  1  0  0  0  0
 11 13  1  0  0  0  0
 11 14  1  0  0  0  0
 14 15  1  0  0  0  0
 14 16  1  0  0  0  0
 14 17  1  0  0  0  0
 17 18  1  0  0  0  0
 18 19  1  0  0  0  0
 18 20  1  0  0  0  0
 18 21  1  0  0  0  0
 22 23  2  0  0  0  0
 22 24  1  0  0  0  0
 24 25  1  0  0  0  0
 24 26  1  0  0  0  0
 26 27  1  0  0  0  0
 26 28  1  0  0  0  0
 26 29  1  0  0  0  0
M  END
$$$$

  -OEChem-01062216093D

 29 28  0     1  0  0  0  0  0999 V2000
   -3.8332   -3.1240    0.7615 H   0  0  0  0  0  0  0  0  0  0  0  0
   -3.6547   -2.1242    0.3552 C   0  0  0  0  0  0  0  0  0  0  0  0
   -4.2323   -1.4022    0.9373 H   0  0  0  0  0  0  0  0  0  0  0  0
   -3.9935   -2.1025   -0.6834 H   0  0  0  0  0  0  0  0  0  0  0  0
   -2.1769   -1.7861    0.4261 C   0  0  0  0  0  0  0  0  0  0  0  0
   -1.4048   -2.6465    0.8084 O   0  0  0  0  0  0  0  0  0  0  0  0
   -1.7740   -0.5302    0.0019 N   0  0  0  0  0  0  0  0  0  0  0  0
   -2.5403    0.0542   -0.3141 H   0  0  0  0  0  0  0  0  0  0  0  0
   -0.4390    0.1217    0.0697 C   0  0  1  0  0  0  0  0  0  0  0  0
   -0.6068    1.0927    0.5416 H   0  0  0  0  0  0  0  0  0  0  0  0
    0.6606   -0.5612    0.9248 C   0  0  0  0  0  0  0  0  0  0  0  0
    0.8279   -1.5814    0.5668 H   0  0  0  0  0  0  0  0  0  0  0  0
    1.6045   -0.0275    0.7801 H   0  0  0  0  0  0  0  0  0  0  0  0
    0.3562   -0.5792    2.4334 C   0  0  0  0  0  0  0  0  0  0  0  0
   -0.5703   -1.1247    2.6269 H   0  0  0  0  0  0  0  0  0  0  0  0
    1.1583   -1.1120    2.9532 H   0  0  0  0  0  0  0  0  0  0  0  0
    0.1987    1.1170    3.1371 S   0  0  0  0  0  0  0  0  0  0  0  0
    1.9175    1.7597    3.0448 C   0  0  0  0  0  0  0  0  0  0  0  0
    2.2341    1.8615    2.0029 H   0  0  0  0  0  0  0  0  0  0  0  0
    1.9755    2.7422    3.5227 H   0  0  0  0  0  0  0  0  0  0  0  0
    2.6047    1.0800    3.5576 H   0  0  0  0  0  0  0  0  0  0  0  0
    0.0622    0.4713   -1.3528 C   0  0  0  0  0  0  0  0  0  0  0  0
    1.1252    0.0527   -1.7925 O   0  0  0  0  0  0  0  0  0  0  0  0
   -0.6826    1.3286   -2.1457 N   0  0  0  0  0  0  0  0  0  0  0  0
   -1.5237    1.7298   -1.7459 H   0  0  0  0  0  0  0  0  0  0  0  0
   -0.2617    1.7554   -3.4755 C   0  0  0  0  0  0  0  0  0  0  0  0
   -0.1399    0.8895   -4.1351 H   0  0  0  0  0  0  0  0  0  0  0  0
   -1.0112    2.4206   -3.9150 H   0  0  0  0  0  0  0  0  0  0  0  0
    0.6904    2.2938   -3.4217 H   0  0  0  0  0  0  0  0  0  0  0  0
  1  2  1  0  0  0  0
  2  3  1  0  0  0  0
  2  4  1  0  0  0  0
  2  5  1  0  0  0  0
  5  6  2  0  0  0  0
  5  7  1  0  0  0  0
  7  8  1  0  0  0  0
  7  9  1  0  0  0  0
  9 10  1  0  0  0  0
  9 11  1  0  0  0  0
  9 22  1  0  0  0  0
 11 12  1  0  0  0  0
 11 13  1  0  0  0  0
 11 14  1  0  0  0  0
 14 15  1  0  0  0  0
 14 16  1  0  0  0  0
 14 17  1  0  0  0  0
 17 18  1  0  0  0  0
 18 19  1  0  0  0  0
 18 20  1  0  0  0  0
 18 21  1  0  0  0  0
 22 23  2  0  0  0  0
 22 24  1  0  0  0  0
 24 25  1  0  0  0  0
 24 26  1  0  0  0  0
 26 27  1  0  0  0  0
 26 28  1  0  0  0  0
 26 29  1  0  0  0  0
M  END
$$$$

  -OEChem-01062216093D

 29 28  0     1  0  0  0  0  0999 V2000
   -3.8465   -3.1204    0.7321 H   0  0  0  0  0  0  0  0  0  0  0  0
   -3.6593   -2.1293    0.3087 C   0  0  0  0  0  0  0  0  0  0  0  0
   -4.2729   -1.3998    0.8425 H   0  0  0  0  0  0  0  0  0  0  0  0
   -3.9466   -2.1383   -0.7455 H   0  0  0  0  0  0  0  0  0  0  0  0
   -2.1902   -1.7721    0.4416 C   0  0  0  0  0  0  0  0  0  0  0  0
   -1.4275   -2.6195    0.8695 O   0  0  0  0  0  0  0  0  0  0  0  0
   -1.7836   -0.5167    0.0191 N   0  0  0  0  0  0  0  0  0  0  0  0
   -2.5347    0.0451   -0.3679 H   0  0  0  0  0  0  0  0  0  0  0  0
   -0.4483    0.1324    0.0829 C   0  0  1  0  0  0  0  0  0  0  0  0
   -0.6140    1.1001    0.5623 H   0  0  0  0  0  0  0  0  0  0  0  0
    0.6604   -0.5492    0.9246 C   0  0  0  0  0  0  0  0  0  0  0  0
    0.8209   -1.5697    0.5636 H   0  0  0  0  0  0  0  0  0  0  0  0
    1.6019   -0.0157    0.7652 H   0  0  0  0  0  0  0  0  0  0  0  0
    0.3733   -0.5743    2.4368 C   0  0  0  0  0  0  0  0  0  0  0  0
   -0.5506   -1.1201    2.6413 H   0  0  0  0  0  0  0  0  0  0  0  0
    1.1818   -1.1079    2.9458 H   0  0  0  0  0  0  0  0  0  0  0  0
    0.2200    1.1206    3.1450 S   0  0  0  0  0  0  0  0  0  0  0  0
    1.9367    1.7665    3.0337 C   0  0  0  0  0  0  0  0  0  0  0  0
    2.2407    1.8739    1.9887 H   0  0  0  0  0  0  0  0  0  0  0  0
    1.9994    2.7463    3.5158 H   0  0  0  0  0  0  0  0  0  0  0  0
    2.6309    1.0857    3.5351 H   0  0  0  0  0  0  0  0  0  0  0  0
    0.0471    0.4829   -1.3390 C   0  0  0  0  0  0  0  0  0  0  0  0
    0.9376   -0.1497   -1.8903 O   0  0  0  0  0  0  0  0  0  0  0  0
   -0.5081    1.5616   -2.0066 N   0  0  0  0  0  0  0  0  0  0  0  0
   -1.1875    2.1267   -1.5075 H   0  0  0  0  0  0  0  0  0  0  0  0
   -0.0717    1.9906   -3.3306 C   0  0  0  0  0  0  0  0  0  0  0  0
   -0.2015    1.1817   -4.0575 H   0  0  0  0  0  0  0  0  0  0  0  0
   -0.6603    2.8507   -3.6638 H   0  0  0  0  0  0  0  0  0  0  0  0
    0.9843    2.2799   -3.3112 H   0  0  0  0  0  0  0  0  0  0  0  0
  1  2  1  0  0  0  0
  2  3  1  0  0  0  0
  2  4  1  0  0  0  0
  2  5  1  0  0  0  0
  5  6  2  0  0  0  0
  5  7  1  0  0  0  0
  7  8  1  0  0  0  0
  7  9  1  0  0  0  0
  9 10  1  0  0  0  0
  9 11  1  0  0  0  0
  9 22  1  0  0  0  0
 11 12  1  0  0  0  0
 11 13  1  0  0  0  0
 11 14  1  0  0  0  0
 14 15  1  0  0  0  0
 14 16  1  0  0  0  0
 14 17  1  0  0  0  0
 17 18  1  0  0  0  0
 18 19  1  0  0  0  0
 18 20  1  0  0  0  0
 18 21  1  0  0  0  0
 22 23  2  0  0  0  0
 22 24  1  0  0  0  0
 24 25  1  0  0  0  0
 24 26  1  0  0  0  0
 26 27  1  0  0  0  0
 26 28  1  0  0  0  0
 26 29  1  0  0  0  0
M  END
$$$$

  -OEChem-01062216093D

 29 28  0     1  0  0  0  0  0999 V2000
   -3.8525   -3.1177    0.7085 H   0  0  0  0  0  0  0  0  0  0  0  0
   -3.6618   -2.1269    0.2860 C   0  0  0  0  0  0  0  0  0  0  0  0
   -4.2893   -1.3983    0.8048 H   0  0  0  0  0  0  0  0  0  0  0  0
   -3.9275   -2.1407   -0.7738 H   0  0  0  0  0  0  0  0  0  0  0  0
   -2.1978   -1.7612    0.4477 C   0  0  0  0  0  0  0  0  0  0  0  0
   -1.4394   -2.6017    0.8968 O   0  0  0  0  0  0  0  0  0  0  0  0
   -1.7908   -0.5053    0.0283 N   0  0  0  0  0  0  0  0  0  0  0  0
   -2.5329    0.0449   -0.3924 H   0  0  0  0  0  0  0  0  0  0  0  0
   -0.4562    0.1427    0.0914 C   0  0  1  0  0  0  0  0  0  0  0  0
   -0.6248    1.1054    0.5795 H   0  0  0  0  0  0  0  0  0  0  0  0
    0.6616   -0.5378    0.9198 C   0  0  0  0  0  0  0  0  0  0  0  0
    0.8185   -1.5569    0.5523 H   0  0  0  0  0  0  0  0  0  0  0  0
    1.6004   -0.0025    0.7524 H   0  0  0  0  0  0  0  0  0  0  0  0
    0.3880   -0.5734    2.4348 C   0  0  0  0  0  0  0  0  0  0  0  0
   -0.5313   -1.1238    2.6455 H   0  0  0  0  0  0  0  0  0  0  0  0
    1.2038   -1.1058    2.9336 H   0  0  0  0  0  0  0  0  0  0  0  0
    0.2331    1.1166    3.1548 S   0  0  0  0  0  0  0  0  0  0  0  0
    1.9455    1.7704    3.0320 C   0  0  0  0  0  0  0  0  0  0  0  0
    2.2401    1.8833    1.9849 H   0  0  0  0  0  0  0  0  0  0  0  0
    2.0079    2.7486    3.5178 H   0  0  0  0  0  0  0  0  0  0  0  0
    2.6467    1.0901    3.5245 H   0  0  0  0  0  0  0  0  0  0  0  0
    0.0394    0.4982   -1.3274 C   0  0  0  0  0  0  0  0  0  0  0  0
    0.7049   -0.2859   -1.9897 O   0  0  0  0  0  0  0  0  0  0  0  0
   -0.2680    1.7335   -1.8712 N   0  0  0  0  0  0  0  0  0  0  0  0
   -0.7689    2.3958   -1.2871 H   0  0  0  0  0  0  0  0  0  0  0  0
    0.1848    2.1590   -3.1907 C   0  0  0  0  0  0  0  0  0  0  0  0
   -0.1776    1.4694   -3.9606 H   0  0  0  0  0  0  0  0  0  0  0  0
   -0.1956    3.1596   -3.4177 H   0  0  0  0  0  0  0  0  0  0  0  0
    1.2789    2.1871   -3.2300 H   0  0  0  0  0  0  0  0  0  0  0  0
  1  2  1  0  0  0  0
  2  3  1  0  0  0  0
  2  4  1  0  0  0  0
  2  5  1  0  0  0  0
  5  6  2  0  0  0  0
  5  7  1  0  0  0  0
  7  8  1  0  0  0  0
  7  9  1  0  0  0  0
  9 10  1  0  0  0  0
  9 11  1  0  0  0  0
  9 22  1  0  0  0  0
 11 12  1  0  0  0  0
 11 13  1  0  0  0  0
 11 14  1  0  0  0  0
 14 15  1  0  0  0  0
 14 16  1  0  0  0  0
 14 17  1  0  0  0  0
 17 18  1  0  0  0  0
 18 19  1  0  0  0  0
 18 20  1  0  0  0  0
 18 21  1  0  0  0  0
 22 23  2  0  0  0  0
 22 24  1  0  0  0  0
 24 25  1  0  0  0  0
 24 26  1  0  0  0  0
 26 27  1  0  0  0  0
 26 28  1  0  0  0  0
 26 29  1  0  0  0  0
M  END
$$$$

  -OEChem-01062216093D

 29 28  0     1  0  0  0  0  0999 V2000
   -3.8546   -3.1218    0.6828 H   0  0  0  0  0  0  0  0  0  0  0  0
   -3.6623   -2.1299    0.2638 C   0  0  0  0  0  0  0  0  0  0  0  0
   -4.3068   -1.4056    0.7675 H   0  0  0  0  0  0  0  0  0  0  0  0
   -3.9038   -2.1464   -0.8018 H   0  0  0  0  0  0  0  0  0  0  0  0
   -2.2053   -1.7528    0.4580 C   0  0  0  0  0  0  0  0  0  0  0  0
   -1.4524   -2.5847    0.9325 O   0  0  0  0  0  0  0  0  0  0  0  0
   -1.7985   -0.4963    0.0410 N   0  0  0  0  0  0  0  0  0  0  0  0
   -2.5290    0.0379   -0.4187 H   0  0  0  0  0  0  0  0  0  0  0  0
   -0.4631    0.1489    0.1006 C   0  0  1  0  0  0  0  0  0  0  0  0
   -0.6356    1.1078    0.5944 H   0  0  0  0  0  0  0  0  0  0  0  0
    0.6607   -0.5310    0.9197 C   0  0  0  0  0  0  0  0  0  0  0  0
    0.8145   -1.5495    0.5493 H   0  0  0  0  0  0  0  0  0  0  0  0
    1.5981    0.0048    0.7462 H   0  0  0  0  0  0  0  0  0  0  0  0
    0.3987   -0.5705    2.4370 C   0  0  0  0  0  0  0  0  0  0  0  0
   -0.5190   -1.1204    2.6554 H   0  0  0  0  0  0  0  0  0  0  0  0
    1.2179   -1.1032    2.9294 H   0  0  0  0  0  0  0  0  0  0  0  0
    0.2478    1.1194    3.1577 S   0  0  0  0  0  0  0  0  0  0  0  0
    1.9584    1.7755    3.0223 C   0  0  0  0  0  0  0  0  0  0  0  0
    2.2460    1.8880    1.9733 H   0  0  0  0  0  0  0  0  0  0  0  0
    2.0226    2.7541    3.5073 H   0  0  0  0  0  0  0  0  0  0  0  0
    2.6638    1.0962    3.5105 H   0  0  0  0  0  0  0  0  0  0  0  0
    0.0373    0.5126   -1.3136 C   0  0  0  0  0  0  0  0  0  0  0  0
    0.4207   -0.3496   -2.0916 O   0  0  0  0  0  0  0  0  0  0  0  0
    0.0169    1.8306   -1.7359 N   0  0  0  0  0  0  0  0  0  0  0  0
   -0.2675    2.5374   -1.0644 H   0  0  0  0  0  0  0  0  0  0  0  0
    0.4811    2.2547   -3.0519 C   0  0  0  0  0  0  0  0  0  0  0  0
   -0.0855    1.7481   -3.8405 H   0  0  0  0  0  0  0  0  0  0  0  0
    0.3470    3.3342   -3.1711 H   0  0  0  0  0  0  0  0  0  0  0  0
    1.5438    2.0216   -3.1766 H   0  0  0  0  0  0  0  0  0  0  0  0
  1  2  1  0  0  0  0
  2  3  1  0  0  0  0
  2  4  1  0  0  0  0
  2  5  1  0  0  0  0
  5  6  2  0  0  0  0
  5  7  1  0  0  0  0
  7  8  1  0  0  0  0
  7  9  1  0  0  0  0
  9 10  1  0  0  0  0
  9 11  1  0  0  0  0
  9 22  1  0  0  0  0
 11 12  1  0  0  0  0
 11 13  1  0  0  0  0
 11 14  1  0  0  0  0
 14 15  1  0  0  0  0
 14 16  1  0  0  0  0
 14 17  1  0  0  0  0
 17 18  1  0  0  0  0
 18 19  1  0  0  0  0
 18 20  1  0  0  0  0
 18 21  1  0  0  0  0
 22 23  2  0  0  0  0
 22 24  1  0  0  0  0
 24 25  1  0  0  0  0
 24 26  1  0  0  0  0
 26 27  1  0  0  0  0
 26 28  1  0  0  0  0
 26 29  1  0  0  0  0
M  END
$$$$

  -OEChem-01062216093D

 29 28  0     1  0  0  0  0  0999 V2000
   -3.8596   -3.1228    0.6585 H   0  0  0  0  0  0  0  0  0  0  0  0
   -3.6623   -2.1304    0.2431 C   0  0  0  0  0  0  0  0  0  0  0  0
   -4.3208   -1.4087    0.7322 H   0  0  0  0  0  0  0  0  0  0  0  0
   -3.8807   -2.1485   -0.8274 H   0  0  0  0  0  0  0  0  0  0  0  0
   -2.2116   -1.7458    0.4675 C   0  0  0  0  0  0  0  0  0  0  0  0
   -1.4658   -2.5714    0.9645 O   0  0  0  0  0  0  0  0  0  0  0  0
   -1.8011   -0.4901    0.0520 N   0  0  0  0  0  0  0  0  0  0  0  0
   -2.5144    0.0252   -0.4543 H   0  0  0  0  0  0  0  0  0  0  0  0
   -0.4626    0.1484    0.1078 C   0  0  1  0  0  0  0  0  0  0  0  0
   -0.6387    1.1065    0.6017 H   0  0  0  0  0  0  0  0  0  0  0  0
    0.6617   -0.5314    0.9250 C   0  0  0  0  0  0  0  0  0  0  0  0
    0.8092   -1.5519    0.5570 H   0  0  0  0  0  0  0  0  0  0  0  0
    1.6008   -0.0000    0.7471 H   0  0  0  0  0  0  0  0  0  0  0  0
    0.4052   -0.5649    2.4435 C   0  0  0  0  0  0  0  0  0  0  0  0
   -0.5139   -1.1097    2.6678 H   0  0  0  0  0  0  0  0  0  0  0  0
    1.2241   -1.0987    2.9356 H   0  0  0  0  0  0  0  0  0  0  0  0
    0.2622    1.1288    3.1572 S   0  0  0  0  0  0  0  0  0  0  0  0
    1.9738    1.7805    3.0136 C   0  0  0  0  0  0  0  0  0  0  0  0
    2.2588    1.8871    1.9635 H   0  0  0  0  0  0  0  0  0  0  0  0
    2.0417    2.7614    3.4934 H   0  0  0  0  0  0  0  0  0  0  0  0
    2.6791    1.1024    3.5036 H   0  0  0  0  0  0  0  0  0  0  0  0
    0.0438    0.5178   -1.3025 C   0  0  0  0  0  0  0  0  0  0  0  0
    0.1220   -0.3237   -2.1868 O   0  0  0  0  0  0  0  0  0  0  0  0
    0.3272    1.8370   -1.6105 N   0  0  0  0  0  0  0  0  0  0  0  0
    0.2636    2.5205   -0.8617 H   0  0  0  0  0  0  0  0  0  0  0  0
    0.7910    2.2705   -2.9236 C   0  0  0  0  0  0  0  0  0  0  0  0
    0.0666    1.9955   -3.6975 H   0  0  0  0  0  0  0  0  0  0  0  0
    0.9169    3.3573   -2.9405 H   0  0  0  0  0  0  0  0  0  0  0  0
    1.7538    1.8063   -3.1620 H   0  0  0  0  0  0  0  0  0  0  0  0
  1  2  1  0  0  0  0
  2  3  1  0  0  0  0
  2  4  1  0  0  0  0
  2  5  1  0  0  0  0
  5  6  2  0  0  0  0
  5  7  1  0  0  0  0
  7  8  1  0  0  0  0
  7  9  1  0  0  0  0
  9 10  1  0  0  0  0
  9 11  1  0  0  0  0
  9 22  1  0  0  0  0
 11 12  1  0  0  0  0
 11 13  1  0  0  0  0
 11 14  1  0  0  0  0
 14 15  1  0  0  0  0
 14 16  1  0  0  0  0
 14 17  1  0  0  0  0
 17 18  1  0  0  0  0
 18 19  1  0  0  0  0
 18 20  1  0  0  0  0
 18 21  1  0  0  0  0
 22 23  2  0  0  0  0
 22 24  1  0  0  0  0
 24 25  1  0  0  0  0
 24 26  1  0  0  0  0
 26 27  1  0  0  0  0
 26 28  1  0  0  0  0
 26 29  1  0  0  0  0
M  END
$$$$

  -OEChem-01062216093D

 29 28  0     1  0  0  0  0  0999 V2000
   -3.8584   -3.1305    0.6179 H   0  0  0  0  0  0  0  0  0  0  0  0
   -3.6605   -2.1323    0.2171 C   0  0  0  0  0  0  0  0  0  0  0  0
   -4.3382   -1.4218    0.6959 H   0  0  0  0  0  0  0  0  0  0  0  0
   -3.8514   -2.1419   -0.8589 H   0  0  0  0  0  0  0  0  0  0  0  0
   -2.2198   -1.7360    0.4823 C   0  0  0  0  0  0  0  0  0  0  0  0
   -1.4835   -2.5538    1.0061 O   0  0  0  0  0  0  0  0  0  0  0  0
   -1.8033   -0.4830    0.0659 N   0  0  0  0  0  0  0  0  0  0  0  0
   -2.4927    0.0070   -0.4967 H   0  0  0  0  0  0  0  0  0  0  0  0
   -0.4605    0.1471    0.1175 C   0  0  1  0  0  0  0  0  0  0  0  0
   -0.6346    1.1082    0.6067 H   0  0  0  0  0  0  0  0  0  0  0  0
    0.6618   -0.5346    0.9368 C   0  0  0  0  0  0  0  0  0  0  0  0
    0.8008   -1.5578    0.5737 H   0  0  0  0  0  0  0  0  0  0  0  0
    1.6044   -0.0111    0.7549 H   0  0  0  0  0  0  0  0  0  0  0  0
    0.4113   -0.5601    2.4566 C   0  0  0  0  0  0  0  0  0  0  0  0
   -0.5103   -1.0975    2.6884 H   0  0  0  0  0  0  0  0  0  0  0  0
    1.2292   -1.0958    2.9481 H   0  0  0  0  0  0  0  0  0  0  0  0
    0.2810    1.1384    3.1614 S   0  0  0  0  0  0  0  0  0  0  0  0
    1.9944    1.7835    3.0090 C   0  0  0  0  0  0  0  0  0  0  0  0
    2.2794    1.8763    1.9576 H   0  0  0  0  0  0  0  0  0  0  0  0
    2.0644    2.7701    3.4765 H   0  0  0  0  0  0  0  0  0  0  0  0
    2.6977    1.1099    3.5078 H   0  0  0  0  0  0  0  0  0  0  0  0
    0.0507    0.5171   -1.2915 C   0  0  0  0  0  0  0  0  0  0  0  0
   -0.1637   -0.2095   -2.2527 O   0  0  0  0  0  0  0  0  0  0  0  0
    0.6339    1.7531   -1.5097 N   0  0  0  0  0  0  0  0  0  0  0  0
    0.7812    2.3541   -0.7041 H   0  0  0  0  0  0  0  0  0  0  0  0
    1.0923    2.2026   -2.8193 C   0  0  0  0  0  0  0  0  0  0  0  0
    0.2626    2.2133   -3.5340 H   0  0  0  0  0  0  0  0  0  0  0  0
    1.5010    3.2153   -2.7508 H   0  0  0  0  0  0  0  0  0  0  0  0
    1.8755    1.5380   -3.1991 H   0  0  0  0  0  0  0  0  0  0  0  0
  1  2  1  0  0  0  0
  2  3  1  0  0  0  0
  2  4  1  0  0  0  0
  2  5  1  0  0  0  0
  5  6  2  0  0  0  0
  5  7  1  0  0  0  0
  7  8  1  0  0  0  0
  7  9  1  0  0  0  0
  9 10  1  0  0  0  0
  9 11  1  0  0  0  0
  9 22  1  0  0  0  0
 11 12  1  0  0  0  0
 11 13  1  0  0  0  0
 11 14  1  0  0  0  0
 14 15  1  0  0  0  0
 14 16  1  0  0  0  0
 14 17  1  0  0  0  0
 17 18  1  0  0  0  0
 18 19  1  0  0  0  0
 18 20  1  0  0  0  0
 18 21  1  0  0  0  0
 22 23  2  0  0  0  0
 22 24  1  0  0  0  0
 24 25  1  0  0  0  0
 24 26  1  0  0  0  0
 26 27  1  0  0  0  0
 26 28  1  0  0  0  0
 26 29  1  0  0  0  0
M  END
$$$$

  -OEChem-01062216093D

 29 28  0     1  0  0  0  0  0999 V2000
   -3.8562   -3.1291    0.5874 H   0  0  0  0  0  0  0  0  0  0  0  0
   -3.6546   -2.1271    0.1984 C   0  0  0  0  0  0  0  0  0  0  0  0
   -4.3439   -1.4223    0.6692 H   0  0  0  0  0  0  0  0  0  0  0  0
   -3.8248   -2.1284   -0.8811 H   0  0  0  0  0  0  0  0  0  0  0  0
   -2.2207   -1.7283    0.4943 C   0  0  0  0  0  0  0  0  0  0  0  0
   -1.4917   -2.5459    1.0294 O   0  0  0  0  0  0  0  0  0  0  0  0
   -1.7966   -0.4782    0.0779 N   0  0  0  0  0  0  0  0  0  0  0  0
   -2.4645   -0.0080   -0.5270 H   0  0  0  0  0  0  0  0  0  0  0  0
   -0.4505    0.1451    0.1262 C   0  0  1  0  0  0  0  0  0  0  0  0
   -0.6180    1.1112    0.6087 H   0  0  0  0  0  0  0  0  0  0  0  0
    0.6653   -0.5417    0.9520 C   0  0  0  0  0  0  0  0  0  0  0  0
    0.7963   -1.5681    0.5957 H   0  0  0  0  0  0  0  0  0  0  0  0
    1.6136   -0.0288    0.7717 H   0  0  0  0  0  0  0  0  0  0  0  0
    0.4100   -0.5563    2.4714 C   0  0  0  0  0  0  0  0  0  0  0  0
   -0.5170   -1.0842    2.7034 H   0  0  0  0  0  0  0  0  0  0  0  0
    1.2219   -1.0966    2.9680 H   0  0  0  0  0  0  0  0  0  0  0  0
    0.2916    1.1462    3.1685 S   0  0  0  0  0  0  0  0  0  0  0  0
    2.0100    1.7790    3.0201 C   0  0  0  0  0  0  0  0  0  0  0  0
    2.3020    1.8620    1.9699 H   0  0  0  0  0  0  0  0  0  0  0  0
    2.0842    2.7685    3.4811 H   0  0  0  0  0  0  0  0  0  0  0  0
    2.7059    1.1046    3.5282 H   0  0  0  0  0  0  0  0  0  0  0  0
    0.0566    0.5115   -1.2861 C   0  0  0  0  0  0  0  0  0  0  0  0
   -0.4010   -0.0339   -2.2827 O   0  0  0  0  0  0  0  0  0  0  0  0
    0.9102    1.5879   -1.4524 N   0  0  0  0  0  0  0  0  0  0  0  0
    1.2368    2.0639   -0.6167 H   0  0  0  0  0  0  0  0  0  0  0  0
    1.3656    2.0562   -2.7563 C   0  0  0  0  0  0  0  0  0  0  0  0
    0.5136    2.3558   -3.3759 H   0  0  0  0  0  0  0  0  0  0  0  0
    2.0271    2.9199   -2.6387 H   0  0  0  0  0  0  0  0  0  0  0  0
    1.9182    1.2658   -3.2753 H   0  0  0  0  0  0  0  0  0  0  0  0
  1  2  1  0  0  0  0
  2  3  1  0  0  0  0
  2  4  1  0  0  0  0
  2  5  1  0  0  0  0
  5  6  2  0  0  0  0
  5  7  1  0  0  0  0
  7  8  1  0  0  0  0
  7  9  1  0  0  0  0
  9 10  1  0  0  0  0
  9 11  1  0  0  0  0
  9 22  1  0  0  0  0
 11 12  1  0  0  0  0
 11 13  1  0  0  0  0
 11 14  1  0  0  0  0
 14 15  1  0  0  0  0
 14 16  1  0  0  0  0
 14 17  1  0  0  0  0
 17 18  1  0  0  0  0
 18 19  1  0  0  0  0
 18 20  1  0  0  0  0
 18 21  1  0  0  0  0
 22 23  2  0  0  0  0
 22 24  1  0  0  0  0
 24 25  1  0  0  0  0
 24 26  1  0  0  0  0
 26 27  1  0  0  0  0
 26 28  1  0  0  0  0
 26 29  1  0  0  0  0
M  END
$$$$

  -OEChem-01062216093D

 29 28  0     1  0  0  0  0  0999 V2000
   -3.8538   -3.1167    0.5867 H   0  0  0  0  0  0  0  0  0  0  0  0
   -3.6459   -2.1153    0.1993 C   0  0  0  0  0  0  0  0  0  0  0  0
   -4.3297   -1.4069    0.6731 H   0  0  0  0  0  0  0  0  0  0  0  0
   -3.8184   -2.1129   -0.8798 H   0  0  0  0  0  0  0  0  0  0  0  0
   -2.2090   -1.7256    0.4932 C   0  0  0  0  0  0  0  0  0  0  0  0
   -1.4814   -2.5508    1.0188 O   0  0  0  0  0  0  0  0  0  0  0  0
   -1.7793   -0.4762    0.0811 N   0  0  0  0  0  0  0  0  0  0  0  0
   -2.4390   -0.0074   -0.5350 H   0  0  0  0  0  0  0  0  0  0  0  0
   -0.4346    0.1501    0.1330 C   0  0  1  0  0  0  0  0  0  0  0  0
   -0.5972    1.1190    0.6118 H   0  0  0  0  0  0  0  0  0  0  0  0
    0.6722   -0.5460    0.9669 C   0  0  0  0  0  0  0  0  0  0  0  0
    0.8017   -1.5720    0.6090 H   0  0  0  0  0  0  0  0  0  0  0  0
    1.6259   -0.0389    0.8018 H   0  0  0  0  0  0  0  0  0  0  0  0
    0.4017   -0.5621    2.4839 C   0  0  0  0  0  0  0  0  0  0  0  0
   -0.5302   -1.0859    2.7053 H   0  0  0  0  0  0  0  0  0  0  0  0
    1.2053   -1.1082    2.9873 H   0  0  0  0  0  0  0  0  0  0  0  0
    0.2847    1.1376    3.1872 S   0  0  0  0  0  0  0  0  0  0  0  0
    2.0064    1.7655    3.0604 C   0  0  0  0  0  0  0  0  0  0  0  0
    2.3080    1.8579    2.0138 H   0  0  0  0  0  0  0  0  0  0  0  0
    2.0795    2.7503    3.5317 H   0  0  0  0  0  0  0  0  0  0  0  0
    2.6954    1.0840    3.5685 H   0  0  0  0  0  0  0  0  0  0  0  0
    0.0634    0.5140   -1.2859 C   0  0  0  0  0  0  0  0  0  0  0  0
   -0.5715    0.1778   -2.2792 O   0  0  0  0  0  0  0  0  0  0  0  0
    1.1353    1.3739   -1.4505 N   0  0  0  0  0  0  0  0  0  0  0  0
    1.6174    1.6904   -0.6149 H   0  0  0  0  0  0  0  0  0  0  0  0
    1.6016    1.8352   -2.7533 C   0  0  0  0  0  0  0  0  0  0  0  0
    0.8056    2.3748   -3.2776 H   0  0  0  0  0  0  0  0  0  0  0  0
    2.4544    2.5103   -2.6331 H   0  0  0  0  0  0  0  0  0  0  0  0
    1.9164    0.9864   -3.3696 H   0  0  0  0  0  0  0  0  0  0  0  0
  1  2  1  0  0  0  0
  2  3  1  0  0  0  0
  2  4  1  0  0  0  0
  2  5  1  0  0  0  0
  5  6  2  0  0  0  0
  5  7  1  0  0  0  0
  7  8  1  0  0  0  0
  7  9  1  0  0  0  0
  9 10  1  0  0  0  0
  9 11  1  0  0  0  0
  9 22  1  0  0  0  0
 11 12  1  0  0  0  0
 11 13  1  0  0  0  0
 11 14  1  0  0  0  0
 14 15  1  0  0  0  0
 14 16  1  0  0  0  0
 14 17  1  0  0  0  0
 17 18  1  0  0  0  0
 18 19  1  0  0  0  0
 18 20  1  0  0  0  0
 18 21  1  0  0  0  0
 22 23  2  0  0  0  0
 22 24  1  0  0  0  0
 24 25  1  0  0  0  0
 24 26  1  0  0  0  0
 26 27  1  0  0  0  0
 26 28  1  0  0  0  0
 26 29  1  0  0  0  0
M  END
$$$$

  -OEChem-01062216093D

 29 28  0     1  0  0  0  0  0999 V2000
   -3.9343   -3.0439    0.6605 H   0  0  0  0  0  0  0  0  0  0  0  0
   -3.7072   -2.0379    0.2965 C   0  0  0  0  0  0  0  0  0  0  0  0
   -4.2603   -1.3138    0.8996 H   0  0  0  0  0  0  0  0  0  0  0  0
   -4.0304   -1.9583   -0.7444 H   0  0  0  0  0  0  0  0  0  0  0  0
   -2.2174   -1.7671    0.3970 C   0  0  0  0  0  0  0  0  0  0  0  0
   -1.4778   -2.6927    0.6832 O   0  0  0  0  0  0  0  0  0  0  0  0
   -1.7542   -0.5214    0.0165 N   0  0  0  0  0  0  0  0  0  0  0  0
   -2.4545    0.0534   -0.4484 H   0  0  0  0  0  0  0  0  0  0  0  0
   -0.4038    0.0915    0.0659 C   0  0  1  0  0  0  0  0  0  0  0  0
   -0.5111    0.9204    0.7699 H   0  0  0  0  0  0  0  0  0  0  0  0
    0.7861   -0.7393    0.6211 C   0  0  0  0  0  0  0  0  0  0  0  0
    0.8548   -1.6704    0.0495 H   0  0  0  0  0  0  0  0  0  0  0  0
    1.7221   -0.2009    0.4590 H   0  0  0  0  0  0  0  0  0  0  0  0
    0.7024   -1.0818    2.1241 C   0  0  0  0  0  0  0  0  0  0  0  0
   -0.1902   -1.6603    2.3589 H   0  0  0  0  0  0  0  0  0  0  0  0
    1.5631   -1.6987    2.4003 H   0  0  0  0  0  0  0  0  0  0  0  0
    0.6756    0.4360    3.1690 S   0  0  0  0  0  0  0  0  0  0  0  0
    2.3687    1.1201    2.9705 C   0  0  0  0  0  0  0  0  0  0  0  0
    2.5365    1.4397    1.9389 H   0  0  0  0  0  0  0  0  0  0  0  0
    2.5008    1.9851    3.6274 H   0  0  0  0  0  0  0  0  0  0  0  0
    3.1152    0.3647    3.2335 H   0  0  0  0  0  0  0  0  0  0  0  0
   -0.0845    0.8098   -1.2687 C   0  0  0  0  0  0  0  0  0  0  0  0
   -0.9513    0.9256   -2.1286 O   0  0  0  0  0  0  0  0  0  0  0  0
    1.1224    1.4590   -1.4638 N   0  0  0  0  0  0  0  0  0  0  0  0
    1.8175    1.3899   -0.7273 H   0  0  0  0  0  0  0  0  0  0  0  0
    1.4486    2.2039   -2.6744 C   0  0  0  0  0  0  0  0  0  0  0  0
    0.7481    3.0340   -2.8149 H   0  0  0  0  0  0  0  0  0  0  0  0
    2.4607    2.6139   -2.6052 H   0  0  0  0  0  0  0  0  0  0  0  0
    1.4003    1.5498   -3.5516 H   0  0  0  0  0  0  0  0  0  0  0  0
  1  2  1  0  0  0  0
  2  3  1  0  0  0  0
  2  4  1  0  0  0  0
  2  5  1  0  0  0  0
  5  6  2  0  0  0  0
  5  7  1  0  0  0  0
  7  8  1  0  0  0  0
  7  9  1  0  0  0  0
  9 10  1  0  0  0  0
  9 11  1  0  0  0  0
  9 22  1  0  0  0  0
 11 12  1  0  0  0  0
 11 13  1  0  0  0  0
 11 14  1  0  0  0  0
 14 15  1  0  0  0  0
 14 16  1  0  0  0  0
 14 17  1  0  0  0  0
 17 18  1  0  0  0  0
 18 19  1  0  0  0  0
 18 20  1  0  0  0  0
 18 21  1  0  0  0  0
 22 23  2  0  0  0  0
 22 24  1  0  0  0  0
 24 25  1  0  0  0  0
 24 26  1  0  0  0  0
 26 27  1  0  0  0  0
 26 28  1  0  0  0  0
 26 29  1  0  0  0  0
M  END
$$$$

  -OEChem-01062216093D

 29 28  0     1  0  0  0  0  0999 V2000
   -3.9184   -3.0349    0.6510 H   0  0  0  0  0  0  0  0  0  0  0  0
   -3.6923   -2.0239    0.3007 C   0  0  0  0  0  0  0  0  0  0  0  0
   -4.2302   -1.3078    0.9264 H   0  0  0  0  0  0  0  0  0  0  0  0
   -4.0339   -1.9241   -0.7323 H   0  0  0  0  0  0  0  0  0  0  0  0
   -2.1994   -1.7636    0.3793 C   0  0  0  0  0  0  0  0  0  0  0  0
   -1.4598   -2.6973    0.6392 O   0  0  0  0  0  0  0  0  0  0  0  0
   -1.7317   -0.5172    0.0069 N   0  0  0  0  0  0  0  0  0  0  0  0
   -2.4363    0.0801   -0.4225 H   0  0  0  0  0  0  0  0  0  0  0  0
   -0.3813    0.0935    0.0719 C   0  0  1  0  0  0  0  0  0  0  0  0
   -0.4888    0.9244    0.7739 H   0  0  0  0  0  0  0  0  0  0  0  0
    0.7967   -0.7457    0.6414 C   0  0  0  0  0  0  0  0  0  0  0  0
    0.8745   -1.6748    0.0678 H   0  0  0  0  0  0  0  0  0  0  0  0
    1.7362   -0.2074    0.5025 H   0  0  0  0  0  0  0  0  0  0  0  0
    0.6863   -1.0888    2.1426 C   0  0  0  0  0  0  0  0  0  0  0  0
   -0.2144   -1.6626    2.3584 H   0  0  0  0  0  0  0  0  0  0  0  0
    1.5382   -1.7116    2.4322 H   0  0  0  0  0  0  0  0  0  0  0  0
    0.6517    0.4244    3.1938 S   0  0  0  0  0  0  0  0  0  0  0  0
    2.3527    1.0974    3.0250 C   0  0  0  0  0  0  0  0  0  0  0  0
    2.5358    1.4284    1.9993 H   0  0  0  0  0  0  0  0  0  0  0  0
    2.4830    1.9534    3.6939 H   0  0  0  0  0  0  0  0  0  0  0  0
    3.0899    0.3331    3.2882 H   0  0  0  0  0  0  0  0  0  0  0  0
   -0.0654    0.8103   -1.2656 C   0  0  0  0  0  0  0  0  0  0  0  0
   -0.9853    1.1320   -2.0109 O   0  0  0  0  0  0  0  0  0  0  0  0
    1.2183    1.2015   -1.6059 N   0  0  0  0  0  0  0  0  0  0  0  0
    1.9735    0.9257   -0.9868 H   0  0  0  0  0  0  0  0  0  0  0  0
    1.5418    1.9050   -2.8419 C   0  0  0  0  0  0  0  0  0  0  0  0
    1.0107    2.8617   -2.8888 H   0  0  0  0  0  0  0  0  0  0  0  0
    2.6165    2.1041   -2.8942 H   0  0  0  0  0  0  0  0  0  0  0  0
    1.2591    1.3024   -3.7116 H   0  0  0  0  0  0  0  0  0  0  0  0
  1  2  1  0  0  0  0
  2  3  1  0  0  0  0
  2  4  1  0  0  0  0
  2  5  1  0  0  0  0
  5  6  2  0  0  0  0
  5  7  1  0  0  0  0
  7  8  1  0  0  0  0
  7  9  1  0  0  0  0
  9 10  1  0  0  0  0
  9 11  1  0  0  0  0
  9 22  1  0  0  0  0
 11 12  1  0  0  0  0
 11 13  1  0  0  0  0
 11 14  1  0  0  0  0
 14 15  1  0  0  0  0
 14 16  1  0  0  0  0
 14 17  1  0  0  0  0
 17 18  1  0  0  0  0
 18 19  1  0  0  0  0
 18 20  1  0  0  0  0
 18 21  1  0  0  0  0
 22 23  2  0  0  0  0
 22 24  1  0  0  0  0
 24 25  1  0  0  0  0
 24 26  1  0  0  0  0
 26 27  1  0  0  0  0
 26 28  1  0  0  0  0
 26 29  1  0  0  0  0
M  END
$$$$

  -OEChem-01062216093D

 29 28  0     1  0  0  0  0  0999 V2000
   -3.9165   -2.9946    0.7206 H   0  0  0  0  0  0  0  0  0  0  0  0
   -3.6838   -2.0085    0.3088 C   0  0  0  0  0  0  0  0  0  0  0  0
   -4.2095   -1.2512    0.8954 H   0  0  0  0  0  0  0  0  0  0  0  0
   -4.0332   -1.9659   -0.7258 H   0  0  0  0  0  0  0  0  0  0  0  0
   -2.1881   -1.7587    0.3600 C   0  0  0  0  0  0  0  0  0  0  0  0
   -1.4476   -2.6990    0.5922 O   0  0  0  0  0  0  0  0  0  0  0  0
   -1.7178   -0.5111   -0.0039 N   0  0  0  0  0  0  0  0  0  0  0  0
   -2.4300    0.1105   -0.3835 H   0  0  0  0  0  0  0  0  0  0  0  0
   -0.3672    0.0949    0.0774 C   0  0  1  0  0  0  0  0  0  0  0  0
   -0.4765    0.9242    0.7812 H   0  0  0  0  0  0  0  0  0  0  0  0
    0.8051   -0.7480    0.6518 C   0  0  0  0  0  0  0  0  0  0  0  0
    0.8920   -1.6727    0.0726 H   0  0  0  0  0  0  0  0  0  0  0  0
    1.7430   -0.2022    0.5280 H   0  0  0  0  0  0  0  0  0  0  0  0
    0.6807   -1.1003    2.1493 C   0  0  0  0  0  0  0  0  0  0  0  0
   -0.2221   -1.6767    2.3507 H   0  0  0  0  0  0  0  0  0  0  0  0
    1.5300   -1.7245    2.4434 H   0  0  0  0  0  0  0  0  0  0  0  0
    0.6362    0.4062    3.2091 S   0  0  0  0  0  0  0  0  0  0  0  0
    2.3385    1.0804    3.0601 C   0  0  0  0  0  0  0  0  0  0  0  0
    2.5339    1.4083    2.0356 H   0  0  0  0  0  0  0  0  0  0  0  0
    2.4589    1.9390    3.7273 H   0  0  0  0  0  0  0  0  0  0  0  0
    3.0738    0.3184    3.3349 H   0  0  0  0  0  0  0  0  0  0  0  0
   -0.0477    0.8124   -1.2577 C   0  0  0  0  0  0  0  0  0  0  0  0
   -0.9617    1.3355   -1.8866 O   0  0  0  0  0  0  0  0  0  0  0  0
    1.2423    0.9383   -1.7447 N   0  0  0  0  0  0  0  0  0  0  0  0
    1.9772    0.4402   -1.2527 H   0  0  0  0  0  0  0  0  0  0  0  0
    1.5608    1.5884   -3.0107 C   0  0  0  0  0  0  0  0  0  0  0  0
    1.1890    2.6185   -3.0180 H   0  0  0  0  0  0  0  0  0  0  0  0
    2.6445    1.6135   -3.1606 H   0  0  0  0  0  0  0  0  0  0  0  0
    1.1071    1.0440   -3.8456 H   0  0  0  0  0  0  0  0  0  0  0  0
  1  2  1  0  0  0  0
  2  3  1  0  0  0  0
  2  4  1  0  0  0  0
  2  5  1  0  0  0  0
  5  6  2  0  0  0  0
  5  7  1  0  0  0  0
  7  8  1  0  0  0  0
  7  9  1  0  0  0  0
  9 10  1  0  0  0  0
  9 11  1  0  0  0  0
  9 22  1  0  0  0  0
 11 12  1  0  0  0  0
 11 13  1  0  0  0  0
 11 14  1  0  0  0  0
 14 15  1  0  0  0  0
 14 16  1  0  0  0  0
 14 17  1  0  0  0  0
 17 18  1  0  0  0  0
 18 19  1  0  0  0  0
 18 20  1  0  0  0  0
 18 21  1  0  0  0  0
 22 23  2  0  0  0  0
 22 24  1  0  0  0  0
 24 25  1  0  0  0  0
 24 26  1  0  0  0  0
 26 27  1  0  0  0  0
 26 28  1  0  0  0  0
 26 29  1  0  0  0  0
M  END
$$$$

  -OEChem-01062216093D

 29 28  0     1  0  0  0  0  0999 V2000
   -3.8952   -3.0186    0.6558 H   0  0  0  0  0  0  0  0  0  0  0  0
   -3.6741   -1.9996    0.3255 C   0  0  0  0  0  0  0  0  0  0  0  0
   -4.1751   -1.2973    0.9959 H   0  0  0  0  0  0  0  0  0  0  0  0
   -4.0612   -1.8655   -0.6876 H   0  0  0  0  0  0  0  0  0  0  0  0
   -2.1768   -1.7554    0.3442 C   0  0  0  0  0  0  0  0  0  0  0  0
   -1.4323   -2.6984    0.5517 O   0  0  0  0  0  0  0  0  0  0  0  0
   -1.7081   -0.5079   -0.0218 N   0  0  0  0  0  0  0  0  0  0  0  0
   -2.4296    0.1319   -0.3498 H   0  0  0  0  0  0  0  0  0  0  0  0
   -0.3587    0.0968    0.0742 C   0  0  1  0  0  0  0  0  0  0  0  0
   -0.4728    0.9281    0.7751 H   0  0  0  0  0  0  0  0  0  0  0  0
    0.8109   -0.7435    0.6559 C   0  0  0  0  0  0  0  0  0  0  0  0
    0.9065   -1.6673    0.0766 H   0  0  0  0  0  0  0  0  0  0  0  0
    1.7457   -0.1897    0.5383 H   0  0  0  0  0  0  0  0  0  0  0  0
    0.6749   -1.0999    2.1510 C   0  0  0  0  0  0  0  0  0  0  0  0
   -0.2270   -1.6819    2.3416 H   0  0  0  0  0  0  0  0  0  0  0  0
    1.5246   -1.7211    2.4500 H   0  0  0  0  0  0  0  0  0  0  0  0
    0.6163    0.4018    3.2168 S   0  0  0  0  0  0  0  0  0  0  0  0
    2.3174    1.0827    3.0857 C   0  0  0  0  0  0  0  0  0  0  0  0
    2.5155    1.4308    2.0681 H   0  0  0  0  0  0  0  0  0  0  0  0
    2.4345    1.9280    3.7703 H   0  0  0  0  0  0  0  0  0  0  0  0
    3.0532    0.3168    3.3483 H   0  0  0  0  0  0  0  0  0  0  0  0
   -0.0285    0.8047   -1.2606 C   0  0  0  0  0  0  0  0  0  0  0  0
   -0.8862    1.5038   -1.7884 O   0  0  0  0  0  0  0  0  0  0  0  0
    1.1990    0.6707   -1.8861 N   0  0  0  0  0  0  0  0  0  0  0  0
    1.8514    0.0021   -1.4883 H   0  0  0  0  0  0  0  0  0  0  0  0
    1.5033    1.2616   -3.1838 C   0  0  0  0  0  0  0  0  0  0  0  0
    1.3877    2.3500   -3.1464 H   0  0  0  0  0  0  0  0  0  0  0  0
    2.5346    1.0345   -3.4703 H   0  0  0  0  0  0  0  0  0  0  0  0
    0.8338    0.8626   -3.9531 H   0  0  0  0  0  0  0  0  0  0  0  0
  1  2  1  0  0  0  0
  2  3  1  0  0  0  0
  2  4  1  0  0  0  0
  2  5  1  0  0  0  0
  5  6  2  0  0  0  0
  5  7  1  0  0  0  0
  7  8  1  0  0  0  0
  7  9  1  0  0  0  0
  9 10  1  0  0  0  0
  9 11  1  0  0  0  0
  9 22  1  0  0  0  0
 11 12  1  0  0  0  0
 11 13  1  0  0  0  0
 11 14  1  0  0  0  0
 14 15  1  0  0  0  0
 14 16  1  0  0  0  0
 14 17  1  0  0  0  0
 17 18  1  0  0  0  0
 18 19  1  0  0  0  0
 18 20  1  0  0  0  0
 18 21  1  0  0  0  0
 22 23  2  0  0  0  0
 22 24  1  0  0  0  0
 24 25  1  0  0  0  0
 24 26  1  0  0  0  0
 26 27  1  0  0  0  0
 26 28  1  0  0  0  0
 26 29  1  0  0  0  0
M  END
$$$$

  -OEChem-01062216093D

 29 28  0     1  0  0  0  0  0999 V2000
   -3.8837   -3.0150    0.6697 H   0  0  0  0  0  0  0  0  0  0  0  0
   -3.6675   -1.9909    0.3524 C   0  0  0  0  0  0  0  0  0  0  0  0
   -4.1446   -1.2995    1.0511 H   0  0  0  0  0  0  0  0  0  0  0  0
   -4.0848   -1.8357   -0.6456 H   0  0  0  0  0  0  0  0  0  0  0  0
   -2.1689   -1.7537    0.3298 C   0  0  0  0  0  0  0  0  0  0  0  0
   -1.4212   -2.7004    0.5075 O   0  0  0  0  0  0  0  0  0  0  0  0
   -1.7035   -0.5067   -0.0409 N   0  0  0  0  0  0  0  0  0  0  0  0
   -2.4338    0.1481   -0.3139 H   0  0  0  0  0  0  0  0  0  0  0  0
   -0.3549    0.0961    0.0664 C   0  0  1  0  0  0  0  0  0  0  0  0
   -0.4726    0.9282    0.7661 H   0  0  0  0  0  0  0  0  0  0  0  0
    0.8133   -0.7417    0.6519 C   0  0  0  0  0  0  0  0  0  0  0  0
    0.9154   -1.6651    0.0732 H   0  0  0  0  0  0  0  0  0  0  0  0
    1.7458   -0.1827    0.5337 H   0  0  0  0  0  0  0  0  0  0  0  0
    0.6696   -1.1022    2.1449 C   0  0  0  0  0  0  0  0  0  0  0  0
   -0.2319   -1.6881    2.3265 H   0  0  0  0  0  0  0  0  0  0  0  0
    1.5192   -1.7216    2.4483 H   0  0  0  0  0  0  0  0  0  0  0  0
    0.5999    0.3968    3.2136 S   0  0  0  0  0  0  0  0  0  0  0  0
    2.3002    1.0821    3.0927 C   0  0  0  0  0  0  0  0  0  0  0  0
    2.5040    1.4278    2.0756 H   0  0  0  0  0  0  0  0  0  0  0  0
    2.4098    1.9301    3.7753 H   0  0  0  0  0  0  0  0  0  0  0  0
    3.0364    0.3191    3.3622 H   0  0  0  0  0  0  0  0  0  0  0  0
   -0.0090    0.7951   -1.2658 C   0  0  0  0  0  0  0  0  0  0  0  0
   -0.7614    1.6628   -1.6923 O   0  0  0  0  0  0  0  0  0  0  0  0
    1.0884    0.4248   -2.0234 N   0  0  0  0  0  0  0  0  0  0  0  0
    1.6075   -0.3916   -1.7135 H   0  0  0  0  0  0  0  0  0  0  0  0
    1.3676    0.9749   -3.3446 C   0  0  0  0  0  0  0  0  0  0  0  0
    1.4756    2.0635   -3.2924 H   0  0  0  0  0  0  0  0  0  0  0  0
    2.2981    0.5559   -3.7398 H   0  0  0  0  0  0  0  0  0  0  0  0
    0.5558    0.7341   -4.0391 H   0  0  0  0  0  0  0  0  0  0  0  0
  1  2  1  0  0  0  0
  2  3  1  0  0  0  0
  2  4  1  0  0  0  0
  2  5  1  0  0  0  0
  5  6  2  0  0  0  0
  5  7  1  0  0  0  0
  7  8  1  0  0  0  0
  7  9  1  0  0  0  0
  9 10  1  0  0  0  0
  9 11  1  0  0  0  0
  9 22  1  0  0  0  0
 11 12  1  0  0  0  0
 11 13  1  0  0  0  0
 11 14  1  0  0  0  0
 14 15  1  0  0  0  0
 14 16  1  0  0  0  0
 14 17  1  0  0  0  0
 17 18  1  0  0  0  0
 18 19  1  0  0  0  0
 18 20  1  0  0  0  0
 18 21  1  0  0  0  0
 22 23  2  0  0  0  0
 22 24  1  0  0  0  0
 24 25  1  0  0  0  0
 24 26  1  0  0  0  0
 26 27  1  0  0  0  0
 26 28  1  0  0  0  0
 26 29  1  0  0  0  0
M  END
$$$$

  -OEChem-01062216093D

 29 28  0     1  0  0  0  0  0999 V2000
   -3.8695   -3.0109    0.7178 H   0  0  0  0  0  0  0  0  0  0  0  0
   -3.6621   -1.9871    0.3938 C   0  0  0  0  0  0  0  0  0  0  0  0
   -4.1123   -1.2951    1.1095 H   0  0  0  0  0  0  0  0  0  0  0  0
   -4.1136   -1.8302   -0.5889 H   0  0  0  0  0  0  0  0  0  0  0  0
   -2.1648   -1.7541    0.3190 C   0  0  0  0  0  0  0  0  0  0  0  0
   -1.4130   -2.7034    0.4633 O   0  0  0  0  0  0  0  0  0  0  0  0
   -1.7062   -0.5078   -0.0627 N   0  0  0  0  0  0  0  0  0  0  0  0
   -2.4452    0.1560   -0.2845 H   0  0  0  0  0  0  0  0  0  0  0  0
   -0.3584    0.0955    0.0522 C   0  0  1  0  0  0  0  0  0  0  0  0
   -0.4795    0.9290    0.7501 H   0  0  0  0  0  0  0  0  0  0  0  0
    0.8099   -0.7396    0.6391 C   0  0  0  0  0  0  0  0  0  0  0  0
    0.9170   -1.6622    0.0603 H   0  0  0  0  0  0  0  0  0  0  0  0
    1.7404   -0.1770    0.5197 H   0  0  0  0  0  0  0  0  0  0  0  0
    0.6627   -1.1044    2.1304 C   0  0  0  0  0  0  0  0  0  0  0  0
   -0.2372   -1.6946    2.3059 H   0  0  0  0  0  0  0  0  0  0  0  0
    1.5137   -1.7214    2.4344 H   0  0  0  0  0  0  0  0  0  0  0  0
    0.5843    0.3906    3.2036 S   0  0  0  0  0  0  0  0  0  0  0  0
    2.2829    1.0812    3.0893 C   0  0  0  0  0  0  0  0  0  0  0  0
    2.4895    1.4291    2.0733 H   0  0  0  0  0  0  0  0  0  0  0  0
    2.3875    1.9287    3.7733 H   0  0  0  0  0  0  0  0  0  0  0  0
    3.0206    0.3200    3.3599 H   0  0  0  0  0  0  0  0  0  0  0  0
    0.0056    0.7828   -1.2787 C   0  0  0  0  0  0  0  0  0  0  0  0
   -0.5864    1.8036   -1.6055 O   0  0  0  0  0  0  0  0  0  0  0  0
    0.9120    0.2153   -2.1562 N   0  0  0  0  0  0  0  0  0  0  0  0
    1.2575   -0.7111   -1.9217 H   0  0  0  0  0  0  0  0  0  0  0  0
    1.1691    0.7445   -3.4899 C   0  0  0  0  0  0  0  0  0  0  0  0
    1.5075    1.7844   -3.4319 H   0  0  0  0  0  0  0  0  0  0  0  0
    1.9477    0.1570   -3.9860 H   0  0  0  0  0  0  0  0  0  0  0  0
    0.2606    0.7032   -4.1000 H   0  0  0  0  0  0  0  0  0  0  0  0
  1  2  1  0  0  0  0
  2  3  1  0  0  0  0
  2  4  1  0  0  0  0
  2  5  1  0  0  0  0
  5  6  2  0  0  0  0
  5  7  1  0  0  0  0
  7  8  1  0  0  0  0
  7  9  1  0  0  0  0
  9 10  1  0  0  0  0
  9 11  1  0  0  0  0
  9 22  1  0  0  0  0
 11 12  1  0  0  0  0
 11 13  1  0  0  0  0
 11 14  1  0  0  0  0
 14 15  1  0  0  0  0
 14 16  1  0  0  0  0
 14 17  1  0  0  0  0
 17 18  1  0  0  0  0
 18 19  1  0  0  0  0
 18 20  1  0  0  0  0
 18 21  1  0  0  0  0
 22 23  2  0  0  0  0
 22 24  1  0  0  0  0
 24 25  1  0  0  0  0
 24 26  1  0  0  0  0
 26 27  1  0  0  0  0
 26 28  1  0  0  0  0
 26 29  1  0  0  0  0
M  END
$$$$

  -OEChem-01062216093D

 29 28  0     1  0  0  0  0  0999 V2000
   -3.8527   -3.0110    0.7827 H   0  0  0  0  0  0  0  0  0  0  0  0
   -3.6581   -1.9876    0.4492 C   0  0  0  0  0  0  0  0  0  0  0  0
   -4.0773   -1.2947    1.1827 H   0  0  0  0  0  0  0  0  0  0  0  0
   -4.1502   -1.8315   -0.5139 H   0  0  0  0  0  0  0  0  0  0  0  0
   -2.1649   -1.7569    0.3125 C   0  0  0  0  0  0  0  0  0  0  0  0
   -1.4091   -2.7082    0.4164 O   0  0  0  0  0  0  0  0  0  0  0  0
   -1.7164   -0.5115   -0.0835 N   0  0  0  0  0  0  0  0  0  0  0  0
   -2.4636    0.1577   -0.2540 H   0  0  0  0  0  0  0  0  0  0  0  0
   -0.3694    0.0945    0.0350 C   0  0  1  0  0  0  0  0  0  0  0  0
   -0.4927    0.9296    0.7311 H   0  0  0  0  0  0  0  0  0  0  0  0
    0.8014   -0.7377    0.6191 C   0  0  0  0  0  0  0  0  0  0  0  0
    0.9136   -1.6579    0.0378 H   0  0  0  0  0  0  0  0  0  0  0  0
    1.7297   -0.1712    0.4993 H   0  0  0  0  0  0  0  0  0  0  0  0
    0.6540   -1.1078    2.1088 C   0  0  0  0  0  0  0  0  0  0  0  0
   -0.2433   -1.7033    2.2808 H   0  0  0  0  0  0  0  0  0  0  0  0
    1.5077   -1.7219    2.4113 H   0  0  0  0  0  0  0  0  0  0  0  0
    0.5683    0.3827    3.1874 S   0  0  0  0  0  0  0  0  0  0  0  0
    2.2646    1.0786    3.0762 C   0  0  0  0  0  0  0  0  0  0  0  0
    2.4704    1.4289    2.0609 H   0  0  0  0  0  0  0  0  0  0  0  0
    2.3664    1.9251    3.7617 H   0  0  0  0  0  0  0  0  0  0  0  0
    3.0047    0.3195    3.3457 H   0  0  0  0  0  0  0  0  0  0  0  0
    0.0089    0.7687   -1.2971 C   0  0  0  0  0  0  0  0  0  0  0  0
   -0.3605    1.9129   -1.5251 O   0  0  0  0  0  0  0  0  0  0  0  0
    0.6721    0.0584   -2.2807 N   0  0  0  0  0  0  0  0  0  0  0  0
    0.8152   -0.9336   -2.1092 H   0  0  0  0  0  0  0  0  0  0  0  0
    0.9252    0.5876   -3.6151 C   0  0  0  0  0  0  0  0  0  0  0  0
    1.4978    1.5194   -3.5563 H   0  0  0  0  0  0  0  0  0  0  0  0
    1.5006   -0.1326   -4.2045 H   0  0  0  0  0  0  0  0  0  0  0  0
   -0.0184    0.7863   -4.1340 H   0  0  0  0  0  0  0  0  0  0  0  0
  1  2  1  0  0  0  0
  2  3  1  0  0  0  0
  2  4  1  0  0  0  0
  2  5  1  0  0  0  0
  5  6  2  0  0  0  0
  5  7  1  0  0  0  0
  7  8  1  0  0  0  0
  7  9  1  0  0  0  0
  9 10  1  0  0  0  0
  9 11  1  0  0  0  0
  9 22  1  0  0  0  0
 11 12  1  0  0  0  0
 11 13  1  0  0  0  0
 11 14  1  0  0  0  0
 14 15  1  0  0  0  0
 14 16  1  0  0  0  0
 14 17  1  0  0  0  0
 17 18  1  0  0  0  0
 18 19  1  0  0  0  0
 18 20  1  0  0  0  0
 18 21  1  0  0  0  0
 22 23  2  0  0  0  0
 22 24  1  0  0  0  0
 24 25  1  0  0  0  0
 24 26  1  0  0  0  0
 26 27  1  0  0  0  0
 26 28  1  0  0  0  0
 26 29  1  0  0  0  0
M  END
$$$$

  -OEChem-01062216093D

 29 28  0     1  0  0  0  0  0999 V2000
   -3.8396   -3.0083    0.8742 H   0  0  0  0  0  0  0  0  0  0  0  0
   -3.6588   -1.9915    0.5141 C   0  0  0  0  0  0  0  0  0  0  0  0
   -4.0470   -1.2851    1.2520 H   0  0  0  0  0  0  0  0  0  0  0  0
   -4.1909   -1.8517   -0.4300 H   0  0  0  0  0  0  0  0  0  0  0  0
   -2.1725   -1.7646    0.3109 C   0  0  0  0  0  0  0  0  0  0  0  0
   -1.4138   -2.7173    0.3700 O   0  0  0  0  0  0  0  0  0  0  0  0
   -1.7371   -0.5192   -0.0988 N   0  0  0  0  0  0  0  0  0  0  0  0
   -2.4919    0.1510   -0.2230 H   0  0  0  0  0  0  0  0  0  0  0  0
   -0.3923    0.0935    0.0194 C   0  0  1  0  0  0  0  0  0  0  0  0
   -0.5175    0.9280    0.7161 H   0  0  0  0  0  0  0  0  0  0  0  0
    0.7862   -0.7341    0.5915 C   0  0  0  0  0  0  0  0  0  0  0  0
    0.9046   -1.6476    0.0006 H   0  0  0  0  0  0  0  0  0  0  0  0
    1.7087   -0.1582    0.4717 H   0  0  0  0  0  0  0  0  0  0  0  0
    0.6489   -1.1177    2.0785 C   0  0  0  0  0  0  0  0  0  0  0  0
   -0.2419   -1.7234    2.2497 H   0  0  0  0  0  0  0  0  0  0  0  0
    1.5101   -1.7258    2.3719 H   0  0  0  0  0  0  0  0  0  0  0  0
    0.5566    0.3647    3.1675 S   0  0  0  0  0  0  0  0  0  0  0  0
    2.2459    1.0778    3.0551 C   0  0  0  0  0  0  0  0  0  0  0  0
    2.4476    1.4295    2.0393 H   0  0  0  0  0  0  0  0  0  0  0  0
    2.3388    1.9259    3.7399 H   0  0  0  0  0  0  0  0  0  0  0  0
    2.9939    0.3267    3.3254 H   0  0  0  0  0  0  0  0  0  0  0  0
   -0.0063    0.7575   -1.3142 C   0  0  0  0  0  0  0  0  0  0  0  0
   -0.0952    1.9703   -1.4483 O   0  0  0  0  0  0  0  0  0  0  0  0
    0.3775   -0.0243   -2.3873 N   0  0  0  0  0  0  0  0  0  0  0  0
    0.3233   -1.0322   -2.2611 H   0  0  0  0  0  0  0  0  0  0  0  0
    0.6570    0.5127   -3.7129 C   0  0  0  0  0  0  0  0  0  0  0  0
    1.4515    1.2648   -3.6625 H   0  0  0  0  0  0  0  0  0  0  0  0
    0.9833   -0.2876   -4.3841 H   0  0  0  0  0  0  0  0  0  0  0  0
   -0.2405    0.9763   -4.1356 H   0  0  0  0  0  0  0  0  0  0  0  0
  1  2  1  0  0  0  0
  2  3  1  0  0  0  0
  2  4  1  0  0  0  0
  2  5  1  0  0  0  0
  5  6  2  0  0  0  0
  5  7  1  0  0  0  0
  7  8  1  0  0  0  0
  7  9  1  0  0  0  0
  9 10  1  0  0  0  0
  9 11  1  0  0  0  0
  9 22  1  0  0  0  0
 11 12  1  0  0  0  0
 11 13  1  0  0  0  0
 11 14  1  0  0  0  0
 14 15  1  0  0  0  0
 14 16  1  0  0  0  0
 14 17  1  0  0  0  0
 17 18  1  0  0  0  0
 18 19  1  0  0  0  0
 18 20  1  0  0  0  0
 18 21  1  0  0  0  0
 22 23  2  0  0  0  0
 22 24  1  0  0  0  0
 24 25  1  0  0  0  0
 24 26  1  0  0  0  0
 26 27  1  0  0  0  0
 26 28  1  0  0  0  0
 26 29  1  0  0  0  0
M  END
$$$$

  -OEChem-01062216093D

 29 28  0     1  0  0  0  0  0999 V2000
   -3.8265   -3.0314    0.9293 H   0  0  0  0  0  0  0  0  0  0  0  0
   -3.6624   -2.0095    0.5752 C   0  0  0  0  0  0  0  0  0  0  0  0
   -4.0262   -1.3139    1.3354 H   0  0  0  0  0  0  0  0  0  0  0  0
   -4.2290   -1.8609   -0.3473 H   0  0  0  0  0  0  0  0  0  0  0  0
   -2.1852   -1.7746    0.3218 C   0  0  0  0  0  0  0  0  0  0  0  0
   -1.4214   -2.7243    0.3457 O   0  0  0  0  0  0  0  0  0  0  0  0
   -1.7677   -0.5269   -0.0995 N   0  0  0  0  0  0  0  0  0  0  0  0
   -2.5307    0.1390   -0.1900 H   0  0  0  0  0  0  0  0  0  0  0  0
   -0.4257    0.0974    0.0105 C   0  0  1  0  0  0  0  0  0  0  0  0
   -0.5519    0.9310    0.7083 H   0  0  0  0  0  0  0  0  0  0  0  0
    0.7637   -0.7241    0.5658 C   0  0  0  0  0  0  0  0  0  0  0  0
    0.8845   -1.6312   -0.0343 H   0  0  0  0  0  0  0  0  0  0  0  0
    1.6804   -0.1397    0.4415 H   0  0  0  0  0  0  0  0  0  0  0  0
    0.6449   -1.1200    2.0507 C   0  0  0  0  0  0  0  0  0  0  0  0
   -0.2384   -1.7352    2.2266 H   0  0  0  0  0  0  0  0  0  0  0  0
    1.5142   -1.7230    2.3301 H   0  0  0  0  0  0  0  0  0  0  0  0
    0.5515    0.3541    3.1507 S   0  0  0  0  0  0  0  0  0  0  0  0
    2.2352    1.0773    3.0216 C   0  0  0  0  0  0  0  0  0  0  0  0
    2.4147    1.4523    2.0099 H   0  0  0  0  0  0  0  0  0  0  0  0
    2.3383    1.9106    3.7228 H   0  0  0  0  0  0  0  0  0  0  0  0
    2.9916    0.3239    3.2596 H   0  0  0  0  0  0  0  0  0  0  0  0
   -0.0419    0.7585   -1.3250 C   0  0  0  0  0  0  0  0  0  0  0  0
    0.1754    1.9608   -1.3847 O   0  0  0  0  0  0  0  0  0  0  0  0
    0.0436   -0.0130   -2.4681 N   0  0  0  0  0  0  0  0  0  0  0  0
   -0.1797   -1.0010   -2.3721 H   0  0  0  0  0  0  0  0  0  0  0  0
    0.3806    0.5221   -3.7809 C   0  0  0  0  0  0  0  0  0  0  0  0
    1.3606    1.0103   -3.7557 H   0  0  0  0  0  0  0  0  0  0  0  0
    0.4158   -0.2837   -4.5204 H   0  0  0  0  0  0  0  0  0  0  0  0
   -0.3692    1.2532   -4.1008 H   0  0  0  0  0  0  0  0  0  0  0  0
  1  2  1  0  0  0  0
  2  3  1  0  0  0  0
  2  4  1  0  0  0  0
  2  5  1  0  0  0  0
  5  6  2  0  0  0  0
  5  7  1  0  0  0  0
  7  8  1  0  0  0  0
  7  9  1  0  0  0  0
  9 10  1  0  0  0  0
  9 11  1  0  0  0  0
  9 22  1  0  0  0  0
 11 12  1  0  0  0  0
 11 13  1  0  0  0  0
 11 14  1  0  0  0  0
 14 15  1  0  0  0  0
 14 16  1  0  0  0  0
 14 17  1  0  0  0  0
 17 18  1  0  0  0  0
 18 19  1  0  0  0  0
 18 20  1  0  0  0  0
 18 21  1  0  0  0  0
 22 23  2  0  0  0  0
 22 24  1  0  0  0  0
 24 25  1  0  0  0  0
 24 26  1  0  0  0  0
 26 27  1  0  0  0  0
 26 28  1  0  0  0  0
 26 29  1  0  0  0  0
M  END
$$$$

  -OEChem-01062216093D

 29 28  0     1  0  0  0  0  0999 V2000
   -3.8121   -3.0530    0.9852 H   0  0  0  0  0  0  0  0  0  0  0  0
   -3.6642   -2.0315    0.6232 C   0  0  0  0  0  0  0  0  0  0  0  0
   -4.0148   -1.3357    1.3893 H   0  0  0  0  0  0  0  0  0  0  0  0
   -4.2535   -1.8908   -0.2860 H   0  0  0  0  0  0  0  0  0  0  0  0
   -2.1954   -1.7871    0.3330 C   0  0  0  0  0  0  0  0  0  0  0  0
   -1.4273   -2.7332    0.3275 O   0  0  0  0  0  0  0  0  0  0  0  0
   -1.7958   -0.5343   -0.0911 N   0  0  0  0  0  0  0  0  0  0  0  0
   -2.5668    0.1255   -0.1530 H   0  0  0  0  0  0  0  0  0  0  0  0
   -0.4574    0.1032    0.0070 C   0  0  1  0  0  0  0  0  0  0  0  0
   -0.5820    0.9331    0.7092 H   0  0  0  0  0  0  0  0  0  0  0  0
    0.7439   -0.7143    0.5417 C   0  0  0  0  0  0  0  0  0  0  0  0
    0.8640   -1.6144   -0.0692 H   0  0  0  0  0  0  0  0  0  0  0  0
    1.6554   -0.1227    0.4125 H   0  0  0  0  0  0  0  0  0  0  0  0
    0.6437   -1.1230    2.0245 C   0  0  0  0  0  0  0  0  0  0  0  0
   -0.2324   -1.7469    2.2052 H   0  0  0  0  0  0  0  0  0  0  0  0
    1.5211   -1.7209    2.2888 H   0  0  0  0  0  0  0  0  0  0  0  0
    0.5513    0.3412    3.1376 S   0  0  0  0  0  0  0  0  0  0  0  0
    2.2281    1.0778    2.9967 C   0  0  0  0  0  0  0  0  0  0  0  0
    2.3957    1.4588    1.9852 H   0  0  0  0  0  0  0  0  0  0  0  0
    2.3314    1.9088    3.7007 H   0  0  0  0  0  0  0  0  0  0  0  0
    2.9924    0.3290    3.2240 H   0  0  0  0  0  0  0  0  0  0  0  0
   -0.0830    0.7736   -1.3273 C   0  0  0  0  0  0  0  0  0  0  0  0
    0.4152    1.8906   -1.3438 O   0  0  0  0  0  0  0  0  0  0  0  0
   -0.2933    0.0979   -2.5141 N   0  0  0  0  0  0  0  0  0  0  0  0
   -0.6536   -0.8508   -2.4399 H   0  0  0  0  0  0  0  0  0  0  0  0
    0.0985    0.6164   -3.8183 C   0  0  0  0  0  0  0  0  0  0  0  0
    1.1795    0.7885   -3.8532 H   0  0  0  0  0  0  0  0  0  0  0  0
   -0.1637   -0.0988   -4.6038 H   0  0  0  0  0  0  0  0  0  0  0  0
   -0.4156    1.5609   -4.0254 H   0  0  0  0  0  0  0  0  0  0  0  0
  1  2  1  0  0  0  0
  2  3  1  0  0  0  0
  2  4  1  0  0  0  0
  2  5  1  0  0  0  0
  5  6  2  0  0  0  0
  5  7  1  0  0  0  0
  7  8  1  0  0  0  0
  7  9  1  0  0  0  0
  9 10  1  0  0  0  0
  9 11  1  0  0  0  0
  9 22  1  0  0  0  0
 11 12  1  0  0  0  0
 11 13  1  0  0  0  0
 11 14  1  0  0  0  0
 14 15  1  0  0  0  0
 14 16  1  0  0  0  0
 14 17  1  0  0  0  0
 17 18  1  0  0  0  0
 18 19  1  0  0  0  0
 18 20  1  0  0  0  0
 18 21  1  0  0  0  0
 22 23  2  0  0  0  0
 22 24  1  0  0  0  0
 24 25  1  0  0  0  0
 24 26  1  0  0  0  0
 26 27  1  0  0  0  0
 26 28  1  0  0  0  0
 26 29  1  0  0  0  0
M  END
$$$$

  -OEChem-01062216093D

 29 28  0     1  0  0  0  0  0999 V2000
   -3.8084   -3.0851    0.9770 H   0  0  0  0  0  0  0  0  0  0  0  0
   -3.6640   -2.0538    0.6421 C   0  0  0  0  0  0  0  0  0  0  0  0
   -4.0047   -1.3792    1.4314 H   0  0  0  0  0  0  0  0  0  0  0  0
   -4.2643   -1.8880   -0.2556 H   0  0  0  0  0  0  0  0  0  0  0  0
   -2.1985   -1.8020    0.3421 C   0  0  0  0  0  0  0  0  0  0  0  0
   -1.4269   -2.7448    0.3329 O   0  0  0  0  0  0  0  0  0  0  0  0
   -1.8093   -0.5455   -0.0824 N   0  0  0  0  0  0  0  0  0  0  0  0
   -2.5843    0.1110   -0.1274 H   0  0  0  0  0  0  0  0  0  0  0  0
   -0.4720    0.0997    0.0045 C   0  0  1  0  0  0  0  0  0  0  0  0
   -0.5977    0.9286    0.7072 H   0  0  0  0  0  0  0  0  0  0  0  0
    0.7316   -0.7163    0.5382 C   0  0  0  0  0  0  0  0  0  0  0  0
    0.8490   -1.6189   -0.0693 H   0  0  0  0  0  0  0  0  0  0  0  0
    1.6442   -0.1276    0.4039 H   0  0  0  0  0  0  0  0  0  0  0  0
    0.6368   -1.1179    2.0232 C   0  0  0  0  0  0  0  0  0  0  0  0
   -0.2387   -1.7408    2.2102 H   0  0  0  0  0  0  0  0  0  0  0  0
    1.5153   -1.7145    2.2875 H   0  0  0  0  0  0  0  0  0  0  0  0
    0.5496    0.3520    3.1294 S   0  0  0  0  0  0  0  0  0  0  0  0
    2.2280    1.0828    2.9750 C   0  0  0  0  0  0  0  0  0  0  0  0
    2.3906    1.4586    1.9604 H   0  0  0  0  0  0  0  0  0  0  0  0
    2.3389    1.9165    3.6746 H   0  0  0  0  0  0  0  0  0  0  0  0
    2.9912    0.3324    3.2011 H   0  0  0  0  0  0  0  0  0  0  0  0
   -0.0992    0.7818   -1.3266 C   0  0  0  0  0  0  0  0  0  0  0  0
    0.6197    1.7717   -1.3342 O   0  0  0  0  0  0  0  0  0  0  0  0
   -0.5760    0.2760   -2.5214 N   0  0  0  0  0  0  0  0  0  0  0  0
   -1.0682   -0.6125   -2.4684 H   0  0  0  0  0  0  0  0  0  0  0  0
   -0.1881    0.7989   -3.8253 C   0  0  0  0  0  0  0  0  0  0  0  0
    0.8886    0.6756   -3.9820 H   0  0  0  0  0  0  0  0  0  0  0  0
   -0.7184    0.2654   -4.6199 H   0  0  0  0  0  0  0  0  0  0  0  0
   -0.4356    1.8631   -3.9006 H   0  0  0  0  0  0  0  0  0  0  0  0
  1  2  1  0  0  0  0
  2  3  1  0  0  0  0
  2  4  1  0  0  0  0
  2  5  1  0  0  0  0
  5  6  2  0  0  0  0
  5  7  1  0  0  0  0
  7  8  1  0  0  0  0
  7  9  1  0  0  0  0
  9 10  1  0  0  0  0
  9 11  1  0  0  0  0
  9 22  1  0  0  0  0
 11 12  1  0  0  0  0
 11 13  1  0  0  0  0
 11 14  1  0  0  0  0
 14 15  1  0  0  0  0
 14 16  1  0  0  0  0
 14 17  1  0  0  0  0
 17 18  1  0  0  0  0
 18 19  1  0  0  0  0
 18 20  1  0  0  0  0
 18 21  1  0  0  0  0
 22 23  2  0  0  0  0
 22 24  1  0  0  0  0
 24 25  1  0  0  0  0
 24 26  1  0  0  0  0
 26 27  1  0  0  0  0
 26 28  1  0  0  0  0
 26 29  1  0  0  0  0
M  END
$$$$

  -OEChem-01062216093D

 29 28  0     1  0  0  0  0  0999 V2000
   -3.7965   -3.1006    0.9795 H   0  0  0  0  0  0  0  0  0  0  0  0
   -3.6567   -2.0674    0.6483 C   0  0  0  0  0  0  0  0  0  0  0  0
   -3.9934   -1.3975    1.4433 H   0  0  0  0  0  0  0  0  0  0  0  0
   -4.2640   -1.8992   -0.2442 H   0  0  0  0  0  0  0  0  0  0  0  0
   -2.1936   -1.8116    0.3392 C   0  0  0  0  0  0  0  0  0  0  0  0
   -1.4214   -2.7536    0.3267 O   0  0  0  0  0  0  0  0  0  0  0  0
   -1.8103   -0.5513   -0.0819 N   0  0  0  0  0  0  0  0  0  0  0  0
   -2.5866    0.1047   -0.1036 H   0  0  0  0  0  0  0  0  0  0  0  0
   -0.4730    0.0980   -0.0002 C   0  0  1  0  0  0  0  0  0  0  0  0
   -0.5983    0.9268    0.7026 H   0  0  0  0  0  0  0  0  0  0  0  0
    0.7283   -0.7214    0.5379 C   0  0  0  0  0  0  0  0  0  0  0  0
    0.8440   -1.6259   -0.0673 H   0  0  0  0  0  0  0  0  0  0  0  0
    1.6453   -0.1395    0.4063 H   0  0  0  0  0  0  0  0  0  0  0  0
    0.6286   -1.1161    2.0244 C   0  0  0  0  0  0  0  0  0  0  0  0
   -0.2499   -1.7344    2.2119 H   0  0  0  0  0  0  0  0  0  0  0  0
    1.5039   -1.7153    2.2935 H   0  0  0  0  0  0  0  0  0  0  0  0
    0.5453    0.3597    3.1231 S   0  0  0  0  0  0  0  0  0  0  0  0
    2.2272    1.0818    2.9680 C   0  0  0  0  0  0  0  0  0  0  0  0
    2.3936    1.4514    1.9517 H   0  0  0  0  0  0  0  0  0  0  0  0
    2.3403    1.9187    3.6633 H   0  0  0  0  0  0  0  0  0  0  0  0
    2.9867    0.3293    3.1995 H   0  0  0  0  0  0  0  0  0  0  0  0
   -0.1026    0.7911   -1.3295 C   0  0  0  0  0  0  0  0  0  0  0  0
    0.7883    1.6292   -1.3652 O   0  0  0  0  0  0  0  0  0  0  0  0
   -0.8056    0.5042   -2.4854 N   0  0  0  0  0  0  0  0  0  0  0  0
   -1.4312   -0.2956   -2.4370 H   0  0  0  0  0  0  0  0  0  0  0  0
   -0.4500    1.0460   -3.7912 C   0  0  0  0  0  0  0  0  0  0  0  0
    0.5513    0.7125   -4.0836 H   0  0  0  0  0  0  0  0  0  0  0  0
   -1.1642    0.7083   -4.5484 H   0  0  0  0  0  0  0  0  0  0  0  0
   -0.4643    2.1409   -3.7694 H   0  0  0  0  0  0  0  0  0  0  0  0
  1  2  1  0  0  0  0
  2  3  1  0  0  0  0
  2  4  1  0  0  0  0
  2  5  1  0  0  0  0
  5  6  2  0  0  0  0
  5  7  1  0  0  0  0
  7  8  1  0  0  0  0
  7  9  1  0  0  0  0
  9 10  1  0  0  0  0
  9 11  1  0  0  0  0
  9 22  1  0  0  0  0
 11 12  1  0  0  0  0
 11 13  1  0  0  0  0
 11 14  1  0  0  0  0
 14 15  1  0  0  0  0
 14 16  1  0  0  0  0
 14 17  1  0  0  0  0
 17 18  1  0  0  0  0
 18 19  1  0  0  0  0
 18 20  1  0  0  0  0
 18 21  1  0  0  0  0
 22 23  2  0  0  0  0
 22 24  1  0  0  0  0
 24 25  1  0  0  0  0
 24 26  1  0  0  0  0
 26 27  1  0  0  0  0
 26 28  1  0  0  0  0
 26 29  1  0  0  0  0
M  END
$$$$

  -OEChem-01062216093D

 29 28  0     1  0  0  0  0  0999 V2000
   -3.7836   -3.1120    0.9686 H   0  0  0  0  0  0  0  0  0  0  0  0
   -3.6436   -2.0723    0.6586 C   0  0  0  0  0  0  0  0  0  0  0  0
   -3.9595   -1.4191    1.4757 H   0  0  0  0  0  0  0  0  0  0  0  0
   -4.2676   -1.8797   -0.2174 H   0  0  0  0  0  0  0  0  0  0  0  0
   -2.1852   -1.8183    0.3263 C   0  0  0  0  0  0  0  0  0  0  0  0
   -1.4137   -2.7606    0.3087 O   0  0  0  0  0  0  0  0  0  0  0  0
   -1.8070   -0.5556   -0.0932 N   0  0  0  0  0  0  0  0  0  0  0  0
   -2.5837    0.0999   -0.0861 H   0  0  0  0  0  0  0  0  0  0  0  0
   -0.4702    0.0972   -0.0115 C   0  0  1  0  0  0  0  0  0  0  0  0
   -0.5969    0.9262    0.6902 H   0  0  0  0  0  0  0  0  0  0  0  0
    0.7267   -0.7263    0.5362 C   0  0  0  0  0  0  0  0  0  0  0  0
    0.8436   -1.6320   -0.0665 H   0  0  0  0  0  0  0  0  0  0  0  0
    1.6481   -0.1506    0.4115 H   0  0  0  0  0  0  0  0  0  0  0  0
    0.6183   -1.1149    2.0238 C   0  0  0  0  0  0  0  0  0  0  0  0
   -0.2629   -1.7303    2.2090 H   0  0  0  0  0  0  0  0  0  0  0  0
    1.4903   -1.7165    2.2982 H   0  0  0  0  0  0  0  0  0  0  0  0
    0.5357    0.3643    3.1181 S   0  0  0  0  0  0  0  0  0  0  0  0
    2.2213    1.0801    2.9699 C   0  0  0  0  0  0  0  0  0  0  0  0
    2.3984    1.4369    1.9510 H   0  0  0  0  0  0  0  0  0  0  0  0
    2.3304    1.9249    3.6563 H   0  0  0  0  0  0  0  0  0  0  0  0
    2.9764    0.3283    3.2174 H   0  0  0  0  0  0  0  0  0  0  0  0
   -0.1004    0.7959   -1.3417 C   0  0  0  0  0  0  0  0  0  0  0  0
    0.9181    1.4688   -1.4320 O   0  0  0  0  0  0  0  0  0  0  0  0
   -0.9706    0.7592   -2.4168 N   0  0  0  0  0  0  0  0  0  0  0  0
   -1.7109    0.0658   -2.3603 H   0  0  0  0  0  0  0  0  0  0  0  0
   -0.6519    1.3401   -3.7158 C   0  0  0  0  0  0  0  0  0  0  0  0
    0.2196    0.8426   -4.1544 H   0  0  0  0  0  0  0  0  0  0  0  0
   -1.4985    1.2262   -4.3996 H   0  0  0  0  0  0  0  0  0  0  0  0
   -0.4333    2.4087   -3.6159 H   0  0  0  0  0  0  0  0  0  0  0  0
  1  2  1  0  0  0  0
  2  3  1  0  0  0  0
  2  4  1  0  0  0  0
  2  5  1  0  0  0  0
  5  6  2  0  0  0  0
  5  7  1  0  0  0  0
  7  8  1  0  0  0  0
  7  9  1  0  0  0  0
  9 10  1  0  0  0  0
  9 11  1  0  0  0  0
  9 22  1  0  0  0  0
 11 12  1  0  0  0  0
 11 13  1  0  0  0  0
 11 14  1  0  0  0  0
 14 15  1  0  0  0  0
 14 16  1  0  0  0  0
 14 17  1  0  0  0  0
 17 18  1  0  0  0  0
 18 19  1  0  0  0  0
 18 20  1  0  0  0  0
 18 21  1  0  0  0  0
 22 23  2  0  0  0  0
 22 24  1  0  0  0  0
 24 25  1  0  0  0  0
 24 26  1  0  0  0  0
 26 27  1  0  0  0  0
 26 28  1  0  0  0  0
 26 29  1  0  0  0  0
M  END
$$$$

  -OEChem-01062216093D

 29 28  0     1  0  0  0  0  0999 V2000
   -3.7695   -3.1051    0.9805 H   0  0  0  0  0  0  0  0  0  0  0  0
   -3.6331   -2.0739    0.6416 C   0  0  0  0  0  0  0  0  0  0  0  0
   -3.9581   -1.3994    1.4376 H   0  0  0  0  0  0  0  0  0  0  0  0
   -4.2524   -1.9101   -0.2436 H   0  0  0  0  0  0  0  0  0  0  0  0
   -2.1739   -1.8217    0.3106 C   0  0  0  0  0  0  0  0  0  0  0  0
   -1.4037   -2.7651    0.2969 O   0  0  0  0  0  0  0  0  0  0  0  0
   -1.7960   -0.5570   -0.1045 N   0  0  0  0  0  0  0  0  0  0  0  0
   -2.5723    0.0977   -0.0759 H   0  0  0  0  0  0  0  0  0  0  0  0
   -0.4585    0.0950   -0.0217 C   0  0  1  0  0  0  0  0  0  0  0  0
   -0.5858    0.9245    0.6791 H   0  0  0  0  0  0  0  0  0  0  0  0
    0.7321   -0.7327    0.5382 C   0  0  0  0  0  0  0  0  0  0  0  0
    0.8509   -1.6411   -0.0600 H   0  0  0  0  0  0  0  0  0  0  0  0
    1.6579   -0.1628    0.4210 H   0  0  0  0  0  0  0  0  0  0  0  0
    0.6108   -1.1113    2.0276 C   0  0  0  0  0  0  0  0  0  0  0  0
   -0.2748   -1.7214    2.2095 H   0  0  0  0  0  0  0  0  0  0  0  0
    1.4776   -1.7159    2.3119 H   0  0  0  0  0  0  0  0  0  0  0  0
    0.5288    0.3741    3.1142 S   0  0  0  0  0  0  0  0  0  0  0  0
    2.2201    1.0784    2.9741 C   0  0  0  0  0  0  0  0  0  0  0  0
    2.4124    1.4170    1.9518 H   0  0  0  0  0  0  0  0  0  0  0  0
    2.3258    1.9340    3.6476 H   0  0  0  0  0  0  0  0  0  0  0  0
    2.9675    0.3262    3.2433 H   0  0  0  0  0  0  0  0  0  0  0  0
   -0.0944    0.7984   -1.3541 C   0  0  0  0  0  0  0  0  0  0  0  0
    1.0185    1.2752   -1.5355 O   0  0  0  0  0  0  0  0  0  0  0  0
   -1.0705    1.0336   -2.3073 N   0  0  0  0  0  0  0  0  0  0  0  0
   -1.9194    0.4854   -2.2137 H   0  0  0  0  0  0  0  0  0  0  0  0
   -0.7873    1.6628   -3.5926 C   0  0  0  0  0  0  0  0  0  0  0  0
   -0.0805    1.0565   -4.1691 H   0  0  0  0  0  0  0  0  0  0  0  0
   -1.7088    1.7689   -4.1729 H   0  0  0  0  0  0  0  0  0  0  0  0
   -0.3580    2.6597   -3.4461 H   0  0  0  0  0  0  0  0  0  0  0  0
  1  2  1  0  0  0  0
  2  3  1  0  0  0  0
  2  4  1  0  0  0  0
  2  5  1  0  0  0  0
  5  6  2  0  0  0  0
  5  7  1  0  0  0  0
  7  8  1  0  0  0  0
  7  9  1  0  0  0  0
  9 10  1  0  0  0  0
  9 11  1  0  0  0  0
  9 22  1  0  0  0  0
 11 12  1  0  0  0  0
 11 13  1  0  0  0  0
 11 14  1  0  0  0  0
 14 15  1  0  0  0  0
 14 16  1  0  0  0  0
 14 17  1  0  0  0  0
 17 18  1  0  0  0  0
 18 19  1  0  0  0  0
 18 20  1  0  0  0  0
 18 21  1  0  0  0  0
 22 23  2  0  0  0  0
 22 24  1  0  0  0  0
 24 25  1  0  0  0  0
 24 26  1  0  0  0  0
 26 27  1  0  0  0  0
 26 28  1  0  0  0  0
 26 29  1  0  0  0  0
M  END
$$$$

  -OEChem-01062216093D

 29 28  0     1  0  0  0  0  0999 V2000
   -3.7767   -3.1090    0.9324 H   0  0  0  0  0  0  0  0  0  0  0  0
   -3.6337   -2.0763    0.6014 C   0  0  0  0  0  0  0  0  0  0  0  0
   -3.9748   -1.4055    1.3936 H   0  0  0  0  0  0  0  0  0  0  0  0
   -4.2344   -1.9090   -0.2957 H   0  0  0  0  0  0  0  0  0  0  0  0
   -2.1684   -1.8221    0.3005 C   0  0  0  0  0  0  0  0  0  0  0  0
   -1.3973   -2.7647    0.3111 O   0  0  0  0  0  0  0  0  0  0  0  0
   -1.7873   -0.5555   -0.1071 N   0  0  0  0  0  0  0  0  0  0  0  0
   -2.5644    0.0966   -0.0781 H   0  0  0  0  0  0  0  0  0  0  0  0
   -0.4480    0.0921   -0.0255 C   0  0  1  0  0  0  0  0  0  0  0  0
   -0.5733    0.9211    0.6756 H   0  0  0  0  0  0  0  0  0  0  0  0
    0.7387   -0.7365    0.5432 C   0  0  0  0  0  0  0  0  0  0  0  0
    0.8566   -1.6484   -0.0501 H   0  0  0  0  0  0  0  0  0  0  0  0
    1.6667   -0.1703    0.4269 H   0  0  0  0  0  0  0  0  0  0  0  0
    0.6120   -1.1045    2.0350 C   0  0  0  0  0  0  0  0  0  0  0  0
   -0.2765   -1.7099    2.2185 H   0  0  0  0  0  0  0  0  0  0  0  0
    1.4760   -1.7103    2.3256 H   0  0  0  0  0  0  0  0  0  0  0  0
    0.5329    0.3889    3.1113 S   0  0  0  0  0  0  0  0  0  0  0  0
    2.2275    1.0850    2.9702 C   0  0  0  0  0  0  0  0  0  0  0  0
    2.4231    1.4172    1.9465 H   0  0  0  0  0  0  0  0  0  0  0  0
    2.3362    1.9433    3.6397 H   0  0  0  0  0  0  0  0  0  0  0  0
    2.9713    0.3311    3.2447 H   0  0  0  0  0  0  0  0  0  0  0  0
   -0.0918    0.8025   -1.3581 C   0  0  0  0  0  0  0  0  0  0  0  0
    1.0683    1.0325   -1.6744 O   0  0  0  0  0  0  0  0  0  0  0  0
   -1.0957    1.3213   -2.1591 N   0  0  0  0  0  0  0  0  0  0  0  0
   -2.0371    0.9984   -1.9680 H   0  0  0  0  0  0  0  0  0  0  0  0
   -0.8321    1.9758   -3.4360 C   0  0  0  0  0  0  0  0  0  0  0  0
   -0.3380    1.2838   -4.1262 H   0  0  0  0  0  0  0  0  0  0  0  0
   -1.7694    2.3101   -3.8909 H   0  0  0  0  0  0  0  0  0  0  0  0
   -0.1886    2.8505   -3.2936 H   0  0  0  0  0  0  0  0  0  0  0  0
  1  2  1  0  0  0  0
  2  3  1  0  0  0  0
  2  4  1  0  0  0  0
  2  5  1  0  0  0  0
  5  6  2  0  0  0  0
  5  7  1  0  0  0  0
  7  8  1  0  0  0  0
  7  9  1  0  0  0  0
  9 10  1  0  0  0  0
  9 11  1  0  0  0  0
  9 22  1  0  0  0  0
 11 12  1  0  0  0  0
 11 13  1  0  0  0  0
 11 14  1  0  0  0  0
 14 15  1  0  0  0  0
 14 16  1  0  0  0  0
 14 17  1  0  0  0  0
 17 18  1  0  0  0  0
 18 19  1  0  0  0  0
 18 20  1  0  0  0  0
 18 21  1  0  0  0  0
 22 23  2  0  0  0  0
 22 24  1  0  0  0  0
 24 25  1  0  0  0  0
 24 26  1  0  0  0  0
 26 27  1  0  0  0  0
 26 28  1  0  0  0  0
 26 29  1  0  0  0  0
M  END
$$$$

  -OEChem-01062216093D

 29 28  0     1  0  0  0  0  0999 V2000
   -3.8194   -3.1121    0.8820 H   0  0  0  0  0  0  0  0  0  0  0  0
   -3.6631   -2.0923    0.5182 C   0  0  0  0  0  0  0  0  0  0  0  0
   -4.0719   -1.3935    1.2520 H   0  0  0  0  0  0  0  0  0  0  0  0
   -4.1947   -1.9720   -0.4288 H   0  0  0  0  0  0  0  0  0  0  0  0
   -2.1818   -1.8309    0.3185 C   0  0  0  0  0  0  0  0  0  0  0  0
   -1.4094   -2.7670    0.4161 O   0  0  0  0  0  0  0  0  0  0  0  0
   -1.7842   -0.5692   -0.0898 N   0  0  0  0  0  0  0  0  0  0  0  0
   -2.5641    0.0736   -0.1687 H   0  0  0  0  0  0  0  0  0  0  0  0
   -0.4407    0.0701   -0.0225 C   0  0  1  0  0  0  0  0  0  0  0  0
   -0.5615    0.9027    0.6747 H   0  0  0  0  0  0  0  0  0  0  0  0
    0.7471   -0.7492    0.5552 C   0  0  0  0  0  0  0  0  0  0  0  0
    0.8587   -1.6727   -0.0213 H   0  0  0  0  0  0  0  0  0  0  0  0
    1.6740   -0.1848    0.4200 H   0  0  0  0  0  0  0  0  0  0  0  0
    0.6289   -1.0897    2.0547 C   0  0  0  0  0  0  0  0  0  0  0  0
   -0.2613   -1.6867    2.2564 H   0  0  0  0  0  0  0  0  0  0  0  0
    1.4920   -1.6939    2.3504 H   0  0  0  0  0  0  0  0  0  0  0  0
    0.5591    0.4237    3.1043 S   0  0  0  0  0  0  0  0  0  0  0  0
    2.2531    1.1173    2.9432 C   0  0  0  0  0  0  0  0  0  0  0  0
    2.4416    1.4386    1.9148 H   0  0  0  0  0  0  0  0  0  0  0  0
    2.3665    1.9824    3.6031 H   0  0  0  0  0  0  0  0  0  0  0  0
    2.9984    0.3659    3.2204 H   0  0  0  0  0  0  0  0  0  0  0  0
   -0.0943    0.7778   -1.3585 C   0  0  0  0  0  0  0  0  0  0  0  0
    1.0227    0.7142   -1.8554 O   0  0  0  0  0  0  0  0  0  0  0  0
   -1.0401    1.5679   -1.9918 N   0  0  0  0  0  0  0  0  0  0  0  0
   -1.9621    1.6254   -1.5764 H   0  0  0  0  0  0  0  0  0  0  0  0
   -0.7847    2.2800   -3.2393 C   0  0  0  0  0  0  0  0  0  0  0  0
   -0.5151    1.5763   -4.0340 H   0  0  0  0  0  0  0  0  0  0  0  0
   -1.6781    2.8285   -3.5527 H   0  0  0  0  0  0  0  0  0  0  0  0
    0.0335    2.9966   -3.1112 H   0  0  0  0  0  0  0  0  0  0  0  0
  1  2  1  0  0  0  0
  2  3  1  0  0  0  0
  2  4  1  0  0  0  0
  2  5  1  0  0  0  0
  5  6  2  0  0  0  0
  5  7  1  0  0  0  0
  7  8  1  0  0  0  0
  7  9  1  0  0  0  0
  9 10  1  0  0  0  0
  9 11  1  0  0  0  0
  9 22  1  0  0  0  0
 11 12  1  0  0  0  0
 11 13  1  0  0  0  0
 11 14  1  0  0  0  0
 14 15  1  0  0  0  0
 14 16  1  0  0  0  0
 14 17  1  0  0  0  0
 17 18  1  0  0  0  0
 18 19  1  0  0  0  0
 18 20  1  0  0  0  0
 18 21  1  0  0  0  0
 22 23  2  0  0  0  0
 22 24  1  0  0  0  0
 24 25  1  0  0  0  0
 24 26  1  0  0  0  0
 26 27  1  0  0  0  0
 26 28  1  0  0  0  0
 26 29  1  0  0  0  0
M  END
$$$$

  -OEChem-01062216093D

 29 28  0     1  0  0  0  0  0999 V2000
   -3.8768   -3.0848    0.8538 H   0  0  0  0  0  0  0  0  0  0  0  0
   -3.6965   -2.0915    0.4326 C   0  0  0  0  0  0  0  0  0  0  0  0
   -4.1745   -1.3479    1.0746 H   0  0  0  0  0  0  0  0  0  0  0  0
   -4.1422   -2.0465   -0.5640 H   0  0  0  0  0  0  0  0  0  0  0  0
   -2.2053   -1.8234    0.3459 C   0  0  0  0  0  0  0  0  0  0  0  0
   -1.4391   -2.7510    0.5329 O   0  0  0  0  0  0  0  0  0  0  0  0
   -1.7878   -0.5684   -0.0632 N   0  0  0  0  0  0  0  0  0  0  0  0
   -2.5572    0.0536   -0.2864 H   0  0  0  0  0  0  0  0  0  0  0  0
   -0.4429    0.0642   -0.0063 C   0  0  1  0  0  0  0  0  0  0  0  0
   -0.5575    0.8980    0.6903 H   0  0  0  0  0  0  0  0  0  0  0  0
    0.7532   -0.7437    0.5647 C   0  0  0  0  0  0  0  0  0  0  0  0
    0.8552   -1.6734   -0.0041 H   0  0  0  0  0  0  0  0  0  0  0  0
    1.6746   -0.1767    0.4043 H   0  0  0  0  0  0  0  0  0  0  0  0
    0.6578   -1.0765    2.0679 C   0  0  0  0  0  0  0  0  0  0  0  0
   -0.2262   -1.6745    2.2891 H   0  0  0  0  0  0  0  0  0  0  0  0
    1.5278   -1.6744    2.3560 H   0  0  0  0  0  0  0  0  0  0  0  0
    0.5945    0.4454    3.1058 S   0  0  0  0  0  0  0  0  0  0  0  0
    2.2834    1.1414    2.9114 C   0  0  0  0  0  0  0  0  0  0  0  0
    2.4536    1.4555    1.8779 H   0  0  0  0  0  0  0  0  0  0  0  0
    2.4065    2.0115    3.5629 H   0  0  0  0  0  0  0  0  0  0  0  0
    3.0344    0.3929    3.1809 H   0  0  0  0  0  0  0  0  0  0  0  0
   -0.1113    0.7625   -1.3464 C   0  0  0  0  0  0  0  0  0  0  0  0
    0.8720    0.4613   -2.0098 O   0  0  0  0  0  0  0  0  0  0  0  0
   -0.9286    1.7823   -1.8057 N   0  0  0  0  0  0  0  0  0  0  0  0
   -1.6807    2.0922   -1.1999 H   0  0  0  0  0  0  0  0  0  0  0  0
   -0.6571    2.5310   -3.0279 C   0  0  0  0  0  0  0  0  0  0  0  0
   -0.6308    1.8579   -3.8914 H   0  0  0  0  0  0  0  0  0  0  0  0
   -1.4390    3.2773   -3.1971 H   0  0  0  0  0  0  0  0  0  0  0  0
    0.3055    3.0482   -2.9553 H   0  0  0  0  0  0  0  0  0  0  0  0
  1  2  1  0  0  0  0
  2  3  1  0  0  0  0
  2  4  1  0  0  0  0
  2  5  1  0  0  0  0
  5  6  2  0  0  0  0
  5  7  1  0  0  0  0
  7  8  1  0  0  0  0
  7  9  1  0  0  0  0
  9 10  1  0  0  0  0
  9 11  1  0  0  0  0
  9 22  1  0  0  0  0
 11 12  1  0  0  0  0
 11 13  1  0  0  0  0
 11 14  1  0  0  0  0
 14 15  1  0  0  0  0
 14 16  1  0  0  0  0
 14 17  1  0  0  0  0
 17 18  1  0  0  0  0
 18 19  1  0  0  0  0
 18 20  1  0  0  0  0
 18 21  1  0  0  0  0
 22 23  2  0  0  0  0
 22 24  1  0  0  0  0
 24 25  1  0  0  0  0
 24 26  1  0  0  0  0
 26 27  1  0  0  0  0
 26 28  1  0  0  0  0
 26 29  1  0  0  0  0
M  END
$$$$

  -OEChem-01062216093D

 29 28  0     1  0  0  0  0  0999 V2000
   -3.8986   -3.0723    0.8286 H   0  0  0  0  0  0  0  0  0  0  0  0
   -3.7089   -2.0834    0.4015 C   0  0  0  0  0  0  0  0  0  0  0  0
   -4.2080   -1.3344    1.0209 H   0  0  0  0  0  0  0  0  0  0  0  0
   -4.1253   -2.0504   -0.6082 H   0  0  0  0  0  0  0  0  0  0  0  0
   -2.2169   -1.8111    0.3547 C   0  0  0  0  0  0  0  0  0  0  0  0
   -1.4536   -2.7349    0.5700 O   0  0  0  0  0  0  0  0  0  0  0  0
   -1.7940   -0.5574   -0.0520 N   0  0  0  0  0  0  0  0  0  0  0  0
   -2.5573    0.0579   -0.3141 H   0  0  0  0  0  0  0  0  0  0  0  0
   -0.4500    0.0740    0.0043 C   0  0  1  0  0  0  0  0  0  0  0  0
   -0.5638    0.9021    0.7078 H   0  0  0  0  0  0  0  0  0  0  0  0
    0.7542   -0.7291    0.5616 C   0  0  0  0  0  0  0  0  0  0  0  0
    0.8533   -1.6565   -0.0119 H   0  0  0  0  0  0  0  0  0  0  0  0
    1.6707   -0.1570    0.3910 H   0  0  0  0  0  0  0  0  0  0  0  0
    0.6755   -1.0734    2.0634 C   0  0  0  0  0  0  0  0  0  0  0  0
   -0.2021   -1.6782    2.2914 H   0  0  0  0  0  0  0  0  0  0  0  0
    1.5524   -1.6674    2.3387 H   0  0  0  0  0  0  0  0  0  0  0  0
    0.6121    0.4415    3.1113 S   0  0  0  0  0  0  0  0  0  0  0  0
    2.2946    1.1508    2.9060 C   0  0  0  0  0  0  0  0  0  0  0  0
    2.4542    1.4721    1.8729 H   0  0  0  0  0  0  0  0  0  0  0  0
    2.4176    2.0176    3.5621 H   0  0  0  0  0  0  0  0  0  0  0  0
    3.0531    0.4061    3.1652 H   0  0  0  0  0  0  0  0  0  0  0  0
   -0.1215    0.7717   -1.3343 C   0  0  0  0  0  0  0  0  0  0  0  0
    0.6836    0.3015   -2.1264 O   0  0  0  0  0  0  0  0  0  0  0  0
   -0.7324    1.9754   -1.6434 N   0  0  0  0  0  0  0  0  0  0  0  0
   -1.3275    2.3967   -0.9371 H   0  0  0  0  0  0  0  0  0  0  0  0
   -0.4425    2.7272   -2.8593 C   0  0  0  0  0  0  0  0  0  0  0  0
   -0.6662    2.1242   -3.7458 H   0  0  0  0  0  0  0  0  0  0  0  0
   -1.0524    3.6349   -2.8978 H   0  0  0  0  0  0  0  0  0  0  0  0
    0.6131    3.0173   -2.8883 H   0  0  0  0  0  0  0  0  0  0  0  0
  1  2  1  0  0  0  0
  2  3  1  0  0  0  0
  2  4  1  0  0  0  0
  2  5  1  0  0  0  0
  5  6  2  0  0  0  0
  5  7  1  0  0  0  0
  7  8  1  0  0  0  0
  7  9  1  0  0  0  0
  9 10  1  0  0  0  0
  9 11  1  0  0  0  0
  9 22  1  0  0  0  0
 11 12  1  0  0  0  0
 11 13  1  0  0  0  0
 11 14  1  0  0  0  0
 14 15  1  0  0  0  0
 14 16  1  0  0  0  0
 14 17  1  0  0  0  0
 17 18  1  0  0  0  0
 18 19  1  0  0  0  0
 18 20  1  0  0  0  0
 18 21  1  0  0  0  0
 22 23  2  0  0  0  0
 22 24  1  0  0  0  0
 24 25  1  0  0  0  0
 24 26  1  0  0  0  0
 26 27  1  0  0  0  0
 26 28  1  0  0  0  0
 26 29  1  0  0  0  0
M  END
$$$$

  -OEChem-01062216093D

 29 28  0     1  0  0  0  0  0999 V2000
   -3.9112   -3.0706    0.8085 H   0  0  0  0  0  0  0  0  0  0  0  0
   -3.7177   -2.0812    0.3843 C   0  0  0  0  0  0  0  0  0  0  0  0
   -4.2311   -1.3335    0.9933 H   0  0  0  0  0  0  0  0  0  0  0  0
   -4.1152   -2.0504   -0.6331 H   0  0  0  0  0  0  0  0  0  0  0  0
   -2.2262   -1.8024    0.3646 C   0  0  0  0  0  0  0  0  0  0  0  0
   -1.4634   -2.7224    0.5974 O   0  0  0  0  0  0  0  0  0  0  0  0
   -1.8021   -0.5482   -0.0388 N   0  0  0  0  0  0  0  0  0  0  0  0
   -2.5618    0.0610   -0.3255 H   0  0  0  0  0  0  0  0  0  0  0  0
   -0.4590    0.0835    0.0147 C   0  0  1  0  0  0  0  0  0  0  0  0
   -0.5744    0.9039    0.7264 H   0  0  0  0  0  0  0  0  0  0  0  0
    0.7525   -0.7159    0.5585 C   0  0  0  0  0  0  0  0  0  0  0  0
    0.8477   -1.6411   -0.0194 H   0  0  0  0  0  0  0  0  0  0  0  0
    1.6647   -0.1398    0.3802 H   0  0  0  0  0  0  0  0  0  0  0  0
    0.6895   -1.0700    2.0587 C   0  0  0  0  0  0  0  0  0  0  0  0
   -0.1823   -1.6803    2.2924 H   0  0  0  0  0  0  0  0  0  0  0  0
    1.5721   -1.6605    2.3228 H   0  0  0  0  0  0  0  0  0  0  0  0
    0.6279    0.4397    3.1145 S   0  0  0  0  0  0  0  0  0  0  0  0
    2.3050    1.1580    2.8965 C   0  0  0  0  0  0  0  0  0  0  0  0
    2.4538    1.4831    1.8632 H   0  0  0  0  0  0  0  0  0  0  0  0
    2.4296    2.0233    3.5541 H   0  0  0  0  0  0  0  0  0  0  0  0
    3.0693    0.4161    3.1463 H   0  0  0  0  0  0  0  0  0  0  0  0
   -0.1293    0.7869   -1.3194 C   0  0  0  0  0  0  0  0  0  0  0  0
    0.4427    0.1984   -2.2262 O   0  0  0  0  0  0  0  0  0  0  0  0
   -0.4760    2.1149   -1.5009 N   0  0  0  0  0  0  0  0  0  0  0  0
   -0.8903    2.6064   -0.7148 H   0  0  0  0  0  0  0  0  0  0  0  0
   -0.1620    2.8632   -2.7129 C   0  0  0  0  0  0  0  0  0  0  0  0
   -0.6214    2.3886   -3.5864 H   0  0  0  0  0  0  0  0  0  0  0  0
   -0.5435    3.8859   -2.6360 H   0  0  0  0  0  0  0  0  0  0  0  0
    0.9215    2.9083   -2.8660 H   0  0  0  0  0  0  0  0  0  0  0  0
  1  2  1  0  0  0  0
  2  3  1  0  0  0  0
  2  4  1  0  0  0  0
  2  5  1  0  0  0  0
  5  6  2  0  0  0  0
  5  7  1  0  0  0  0
  7  8  1  0  0  0  0
  7  9  1  0  0  0  0
  9 10  1  0  0  0  0
  9 11  1  0  0  0  0
  9 22  1  0  0  0  0
 11 12  1  0  0  0  0
 11 13  1  0  0  0  0
 11 14  1  0  0  0  0
 14 15  1  0  0  0  0
 14 16  1  0  0  0  0
 14 17  1  0  0  0  0
 17 18  1  0  0  0  0
 18 19  1  0  0  0  0
 18 20  1  0  0  0  0
 18 21  1  0  0  0  0
 22 23  2  0  0  0  0
 22 24  1  0  0  0  0
 24 25  1  0  0  0  0
 24 26  1  0  0  0  0
 26 27  1  0  0  0  0
 26 28  1  0  0  0  0
 26 29  1  0  0  0  0
M  END
$$$$

  -OEChem-01062216093D

 29 28  0     1  0  0  0  0  0999 V2000
   -3.9240   -3.0712    0.7784 H   0  0  0  0  0  0  0  0  0  0  0  0
   -3.7248   -2.0806    0.3596 C   0  0  0  0  0  0  0  0  0  0  0  0
   -4.2556   -1.3355    0.9567 H   0  0  0  0  0  0  0  0  0  0  0  0
   -4.0983   -2.0512   -0.6669 H   0  0  0  0  0  0  0  0  0  0  0  0
   -2.2346   -1.7949    0.3748 C   0  0  0  0  0  0  0  0  0  0  0  0
   -1.4739   -2.7102    0.6325 O   0  0  0  0  0  0  0  0  0  0  0  0
   -1.8074   -0.5406   -0.0239 N   0  0  0  0  0  0  0  0  0  0  0  0
   -2.5602    0.0595   -0.3465 H   0  0  0  0  0  0  0  0  0  0  0  0
   -0.4633    0.0881    0.0253 C   0  0  1  0  0  0  0  0  0  0  0  0
   -0.5827    0.9028    0.7428 H   0  0  0  0  0  0  0  0  0  0  0  0
    0.7534   -0.7081    0.5589 C   0  0  0  0  0  0  0  0  0  0  0  0
    0.8441   -1.6322   -0.0216 H   0  0  0  0  0  0  0  0  0  0  0  0
    1.6634   -0.1308    0.3736 H   0  0  0  0  0  0  0  0  0  0  0  0
    0.7033   -1.0661    2.0589 C   0  0  0  0  0  0  0  0  0  0  0  0
   -0.1651   -1.6779    2.2996 H   0  0  0  0  0  0  0  0  0  0  0  0
    1.5893   -1.6552    2.3148 H   0  0  0  0  0  0  0  0  0  0  0  0
    0.6455    0.4426    3.1169 S   0  0  0  0  0  0  0  0  0  0  0  0
    2.3180    1.1680    2.8880 C   0  0  0  0  0  0  0  0  0  0  0  0
    2.4596    1.4925    1.8535 H   0  0  0  0  0  0  0  0  0  0  0  0
    2.4424    2.0346    3.5439 H   0  0  0  0  0  0  0  0  0  0  0  0
    3.0871    0.4300    3.1348 H   0  0  0  0  0  0  0  0  0  0  0  0
   -0.1281    0.8003   -1.3019 C   0  0  0  0  0  0  0  0  0  0  0  0
    0.1514    0.1633   -2.3075 O   0  0  0  0  0  0  0  0  0  0  0  0
   -0.1732    2.1817   -1.3778 N   0  0  0  0  0  0  0  0  0  0  0  0
   -0.3711    2.6957   -0.5244 H   0  0  0  0  0  0  0  0  0  0  0  0
    0.1495    2.9256   -2.5901 C   0  0  0  0  0  0  0  0  0  0  0  0
   -0.5156    2.6319   -3.4092 H   0  0  0  0  0  0  0  0  0  0  0  0
    0.0309    3.9998   -2.4184 H   0  0  0  0  0  0  0  0  0  0  0  0
    1.1849    2.7355   -2.8921 H   0  0  0  0  0  0  0  0  0  0  0  0
  1  2  1  0  0  0  0
  2  3  1  0  0  0  0
  2  4  1  0  0  0  0
  2  5  1  0  0  0  0
  5  6  2  0  0  0  0
  5  7  1  0  0  0  0
  7  8  1  0  0  0  0
  7  9  1  0  0  0  0
  9 10  1  0  0  0  0
  9 11  1  0  0  0  0
  9 22  1  0  0  0  0
 11 12  1  0  0  0  0
 11 13  1  0  0  0  0
 11 14  1  0  0  0  0
 14 15  1  0  0  0  0
 14 16  1  0  0  0  0
 14 17  1  0  0  0  0
 17 18  1  0  0  0  0
 18 19  1  0  0  0  0
 18 20  1  0  0  0  0
 18 21  1  0  0  0  0
 22 23  2  0  0  0  0
 22 24  1  0  0  0  0
 24 25  1  0  0  0  0
 24 26  1  0  0  0  0
 26 27  1  0  0  0  0
 26 28  1  0  0  0  0
 26 29  1  0  0  0  0
M  END
$$$$

  -OEChem-01062216093D

 29 28  0     1  0  0  0  0  0999 V2000
   -3.9368   -3.0694    0.7432 H   0  0  0  0  0  0  0  0  0  0  0  0
   -3.7299   -2.0770    0.3326 C   0  0  0  0  0  0  0  0  0  0  0  0
   -4.2776   -1.3351    0.9183 H   0  0  0  0  0  0  0  0  0  0  0  0
   -4.0775   -2.0454   -0.7029 H   0  0  0  0  0  0  0  0  0  0  0  0
   -2.2413   -1.7872    0.3862 C   0  0  0  0  0  0  0  0  0  0  0  0
   -1.4856   -2.6983    0.6730 O   0  0  0  0  0  0  0  0  0  0  0  0
   -1.8067   -0.5348   -0.0100 N   0  0  0  0  0  0  0  0  0  0  0  0
   -2.5454    0.0508   -0.3877 H   0  0  0  0  0  0  0  0  0  0  0  0
   -0.4596    0.0868    0.0333 C   0  0  1  0  0  0  0  0  0  0  0  0
   -0.5821    0.9015    0.7505 H   0  0  0  0  0  0  0  0  0  0  0  0
    0.7568   -0.7097    0.5665 C   0  0  0  0  0  0  0  0  0  0  0  0
    0.8414   -1.6373   -0.0096 H   0  0  0  0  0  0  0  0  0  0  0  0
    1.6685   -0.1365    0.3750 H   0  0  0  0  0  0  0  0  0  0  0  0
    0.7116   -1.0600    2.0687 C   0  0  0  0  0  0  0  0  0  0  0  0
   -0.1579   -1.6672    2.3178 H   0  0  0  0  0  0  0  0  0  0  0  0
    1.5962   -1.6507    2.3253 H   0  0  0  0  0  0  0  0  0  0  0  0
    0.6624    0.4563    3.1160 S   0  0  0  0  0  0  0  0  0  0  0  0
    2.3361    1.1752    2.8759 C   0  0  0  0  0  0  0  0  0  0  0  0
    2.4750    1.4918    1.8387 H   0  0  0  0  0  0  0  0  0  0  0  0
    2.4656    2.0461    3.5252 H   0  0  0  0  0  0  0  0  0  0  0  0
    3.1036    0.4363    3.1252 H   0  0  0  0  0  0  0  0  0  0  0  0
   -0.1180    0.8048   -1.2889 C   0  0  0  0  0  0  0  0  0  0  0  0
   -0.1661    0.2121   -2.3576 O   0  0  0  0  0  0  0  0  0  0  0  0
    0.1534    2.1620   -1.2893 N   0  0  0  0  0  0  0  0  0  0  0  0
    0.1889    2.6364   -0.3917 H   0  0  0  0  0  0  0  0  0  0  0  0
    0.4678    2.9149   -2.4980 C   0  0  0  0  0  0  0  0  0  0  0  0
   -0.3542    2.8466   -3.2184 H   0  0  0  0  0  0  0  0  0  0  0  0
    0.6268    3.9702   -2.2560 H   0  0  0  0  0  0  0  0  0  0  0  0
    1.3787    2.5259   -2.9654 H   0  0  0  0  0  0  0  0  0  0  0  0
  1  2  1  0  0  0  0
  2  3  1  0  0  0  0
  2  4  1  0  0  0  0
  2  5  1  0  0  0  0
  5  6  2  0  0  0  0
  5  7  1  0  0  0  0
  7  8  1  0  0  0  0
  7  9  1  0  0  0  0
  9 10  1  0  0  0  0
  9 11  1  0  0  0  0
  9 22  1  0  0  0  0
 11 12  1  0  0  0  0
 11 13  1  0  0  0  0
 11 14  1  0  0  0  0
 14 15  1  0  0  0  0
 14 16  1  0  0  0  0
 14 17  1  0  0  0  0
 17 18  1  0  0  0  0
 18 19  1  0  0  0  0
 18 20  1  0  0  0  0
 18 21  1  0  0  0  0
 22 23  2  0  0  0  0
 22 24  1  0  0  0  0
 24 25  1  0  0  0  0
 24 26  1  0  0  0  0
 26 27  1  0  0  0  0
 26 28  1  0  0  0  0
 26 29  1  0  0  0  0
M  END
$$$$

  -OEChem-01062216093D

 29 28  0     1  0  0  0  0  0999 V2000
   -3.9451   -3.0748    0.6687 H   0  0  0  0  0  0  0  0  0  0  0  0
   -3.7320   -2.0673    0.3002 C   0  0  0  0  0  0  0  0  0  0  0  0
   -4.2973   -1.3487    0.8981 H   0  0  0  0  0  0  0  0  0  0  0  0
   -4.0538   -1.9987   -0.7419 H   0  0  0  0  0  0  0  0  0  0  0  0
   -2.2463   -1.7750    0.4028 C   0  0  0  0  0  0  0  0  0  0  0  0
   -1.4997   -2.6825    0.7232 O   0  0  0  0  0  0  0  0  0  0  0  0
   -1.7988   -0.5284    0.0045 N   0  0  0  0  0  0  0  0  0  0  0  0
   -2.5147    0.0362   -0.4441 H   0  0  0  0  0  0  0  0  0  0  0  0
   -0.4471    0.0832    0.0433 C   0  0  1  0  0  0  0  0  0  0  0  0
   -0.5673    0.9043    0.7537 H   0  0  0  0  0  0  0  0  0  0  0  0
    0.7640   -0.7176    0.5833 C   0  0  0  0  0  0  0  0  0  0  0  0
    0.8405   -1.6508    0.0156 H   0  0  0  0  0  0  0  0  0  0  0  0
    1.6802   -0.1540    0.3873 H   0  0  0  0  0  0  0  0  0  0  0  0
    0.7192   -1.0561    2.0881 C   0  0  0  0  0  0  0  0  0  0  0  0
   -0.1544   -1.6539    2.3445 H   0  0  0  0  0  0  0  0  0  0  0  0
    1.6000   -1.6512    2.3480 H   0  0  0  0  0  0  0  0  0  0  0  0
    0.6826    0.4682    3.1236 S   0  0  0  0  0  0  0  0  0  0  0  0
    2.3600    1.1768    2.8778 C   0  0  0  0  0  0  0  0  0  0  0  0
    2.5011    1.4853    1.8385 H   0  0  0  0  0  0  0  0  0  0  0  0
    2.4939    2.0516    3.5213 H   0  0  0  0  0  0  0  0  0  0  0  0
    3.1239    0.4361    3.1330 H   0  0  0  0  0  0  0  0  0  0  0  0
   -0.1007    0.7967   -1.2806 C   0  0  0  0  0  0  0  0  0  0  0  0
   -0.4553    0.3337   -2.3565 O   0  0  0  0  0  0  0  0  0  0  0  0
    0.4782    2.0535   -1.2555 N   0  0  0  0  0  0  0  0  0  0  0  0
    0.7269    2.4408   -0.3499 H   0  0  0  0  0  0  0  0  0  0  0  0
    0.7605    2.8294   -2.4576 C   0  0  0  0  0  0  0  0  0  0  0  0
   -0.1635    3.0304   -3.0100 H   0  0  0  0  0  0  0  0  0  0  0  0
    1.2190    3.7869   -2.1919 H   0  0  0  0  0  0  0  0  0  0  0  0
    1.4503    2.2853   -3.1114 H   0  0  0  0  0  0  0  0  0  0  0  0
  1  2  1  0  0  0  0
  2  3  1  0  0  0  0
  2  4  1  0  0  0  0
  2  5  1  0  0  0  0
  5  6  2  0  0  0  0
  5  7  1  0  0  0  0
  7  8  1  0  0  0  0
  7  9  1  0  0  0  0
  9 10  1  0  0  0  0
  9 11  1  0  0  0  0
  9 22  1  0  0  0  0
 11 12  1  0  0  0  0
 11 13  1  0  0  0  0
 11 14  1  0  0  0  0
 14 15  1  0  0  0  0
 14 16  1  0  0  0  0
 14 17  1  0  0  0  0
 17 18  1  0  0  0  0
 18 19  1  0  0  0  0
 18 20  1  0  0  0  0
 18 21  1  0  0  0  0
 22 23  2  0  0  0  0
 22 24  1  0  0  0  0
 24 25  1  0  0  0  0
 24 26  1  0  0  0  0
 26 27  1  0  0  0  0
 26 28  1  0  0  0  0
 26 29  1  0  0  0  0
M  END
$$$$

  -OEChem-01062216093D

 29 28  0     1  0  0  0  0  0999 V2000
   -3.9510   -3.0636    0.6549 H   0  0  0  0  0  0  0  0  0  0  0  0
   -3.7282   -2.0579    0.2874 C   0  0  0  0  0  0  0  0  0  0  0  0
   -4.2995   -1.3351    0.8747 H   0  0  0  0  0  0  0  0  0  0  0  0
   -4.0333   -1.9904   -0.7598 H   0  0  0  0  0  0  0  0  0  0  0  0
   -2.2436   -1.7702    0.4120 C   0  0  0  0  0  0  0  0  0  0  0  0
   -1.5030   -2.6807    0.7390 O   0  0  0  0  0  0  0  0  0  0  0  0
   -1.7879   -0.5268    0.0145 N   0  0  0  0  0  0  0  0  0  0  0  0
   -2.4893    0.0267   -0.4712 H   0  0  0  0  0  0  0  0  0  0  0  0
   -0.4348    0.0812    0.0501 C   0  0  1  0  0  0  0  0  0  0  0  0
   -0.5497    0.9084    0.7547 H   0  0  0  0  0  0  0  0  0  0  0  0
    0.7709   -0.7271    0.5953 C   0  0  0  0  0  0  0  0  0  0  0  0
    0.8399   -1.6636    0.0321 H   0  0  0  0  0  0  0  0  0  0  0  0
    1.6934   -0.1740    0.4005 H   0  0  0  0  0  0  0  0  0  0  0  0
    0.7200   -1.0591    2.1016 C   0  0  0  0  0  0  0  0  0  0  0  0
   -0.1589   -1.6488    2.3584 H   0  0  0  0  0  0  0  0  0  0  0  0
    1.5954   -1.6601    2.3663 H   0  0  0  0  0  0  0  0  0  0  0  0
    0.6923    0.4694    3.1312 S   0  0  0  0  0  0  0  0  0  0  0  0
    2.3745    1.1674    2.8889 C   0  0  0  0  0  0  0  0  0  0  0  0
    2.5223    1.4675    1.8482 H   0  0  0  0  0  0  0  0  0  0  0  0
    2.5092    2.0465    3.5263 H   0  0  0  0  0  0  0  0  0  0  0  0
    3.1336    0.4251    3.1537 H   0  0  0  0  0  0  0  0  0  0  0  0
   -0.0945    0.7926   -1.2778 C   0  0  0  0  0  0  0  0  0  0  0  0
   -0.6878    0.5105   -2.3116 O   0  0  0  0  0  0  0  0  0  0  0  0
    0.7529    1.8867   -1.2777 N   0  0  0  0  0  0  0  0  0  0  0  0
    1.1827    2.1497   -0.3958 H   0  0  0  0  0  0  0  0  0  0  0  0
    1.0377    2.6799   -2.4676 C   0  0  0  0  0  0  0  0  0  0  0  0
    0.1174    3.1236   -2.8620 H   0  0  0  0  0  0  0  0  0  0  0  0
    1.7348    3.4882   -2.2267 H   0  0  0  0  0  0  0  0  0  0  0  0
    1.4889    2.0545   -3.2452 H   0  0  0  0  0  0  0  0  0  0  0  0
  1  2  1  0  0  0  0
  2  3  1  0  0  0  0
  2  4  1  0  0  0  0
  2  5  1  0  0  0  0
  5  6  2  0  0  0  0
  5  7  1  0  0  0  0
  7  8  1  0  0  0  0
  7  9  1  0  0  0  0
  9 10  1  0  0  0  0
  9 11  1  0  0  0  0
  9 22  1  0  0  0  0
 11 12  1  0  0  0  0
 11 13  1  0  0  0  0
 11 14  1  0  0  0  0
 14 15  1  0  0  0  0
 14 16  1  0  0  0  0
 14 17  1  0  0  0  0
 17 18  1  0  0  0  0
 18 19  1  0  0  0  0
 18 20  1  0  0  0  0
 18 21  1  0  0  0  0
 22 23  2  0  0  0  0
 22 24  1  0  0  0  0
 24 25  1  0  0  0  0
 24 26  1  0  0  0  0
 26 27  1  0  0  0  0
 26 28  1  0  0  0  0
 26 29  1  0  0  0  0
M  END
$$$$

  -OEChem-01062216093D

 29 28  0     1  0  0  0  0  0999 V2000
   -3.9467   -3.0486    0.6708 H   0  0  0  0  0  0  0  0  0  0  0  0
   -3.7196   -2.0475    0.2932 C   0  0  0  0  0  0  0  0  0  0  0  0
   -4.2831   -1.3163    0.8776 H   0  0  0  0  0  0  0  0  0  0  0  0
   -4.0307   -1.9864   -0.7527 H   0  0  0  0  0  0  0  0  0  0  0  0
   -2.2324   -1.7679    0.4073 C   0  0  0  0  0  0  0  0  0  0  0  0
   -1.4930   -2.6857    0.7170 O   0  0  0  0  0  0  0  0  0  0  0  0
   -1.7722   -0.5246    0.0151 N   0  0  0  0  0  0  0  0  0  0  0  0
   -2.4710    0.0353   -0.4685 H   0  0  0  0  0  0  0  0  0  0  0  0
   -0.4203    0.0862    0.0554 C   0  0  1  0  0  0  0  0  0  0  0  0
   -0.5307    0.9158    0.7582 H   0  0  0  0  0  0  0  0  0  0  0  0
    0.7777   -0.7336    0.6046 C   0  0  0  0  0  0  0  0  0  0  0  0
    0.8438   -1.6678    0.0376 H   0  0  0  0  0  0  0  0  0  0  0  0
    1.7076   -0.1896    0.4223 H   0  0  0  0  0  0  0  0  0  0  0  0
    0.7132   -1.0708    2.1097 C   0  0  0  0  0  0  0  0  0  0  0  0
   -0.1724   -1.6547    2.3569 H   0  0  0  0  0  0  0  0  0  0  0  0
    1.5817   -1.6799    2.3783 H   0  0  0  0  0  0  0  0  0  0  0  0
    0.6885    0.4511    3.1492 S   0  0  0  0  0  0  0  0  0  0  0  0
    2.3759    1.1426    2.9275 C   0  0  0  0  0  0  0  0  0  0  0  0
    2.5328    1.4535    1.8915 H   0  0  0  0  0  0  0  0  0  0  0  0
    2.5099    2.0138    3.5755 H   0  0  0  0  0  0  0  0  0  0  0  0
    3.1289    0.3935    3.1901 H   0  0  0  0  0  0  0  0  0  0  0  0
   -0.0892    0.7982   -1.2772 C   0  0  0  0  0  0  0  0  0  0  0  0
   -0.8475    0.7118   -2.2365 O   0  0  0  0  0  0  0  0  0  0  0  0
    0.9704    1.6853   -1.3539 N   0  0  0  0  0  0  0  0  0  0  0  0
    1.5512    1.7976   -0.5287 H   0  0  0  0  0  0  0  0  0  0  0  0
    1.2741    2.4708   -2.5445 C   0  0  0  0  0  0  0  0  0  0  0  0
    0.4269    3.1134   -2.8067 H   0  0  0  0  0  0  0  0  0  0  0  0
    2.1469    3.1064   -2.3670 H   0  0  0  0  0  0  0  0  0  0  0  0
    1.4920    1.8123   -3.3919 H   0  0  0  0  0  0  0  0  0  0  0  0
  1  2  1  0  0  0  0
  2  3  1  0  0  0  0
  2  4  1  0  0  0  0
  2  5  1  0  0  0  0
  5  6  2  0  0  0  0
  5  7  1  0  0  0  0
  7  8  1  0  0  0  0
  7  9  1  0  0  0  0
  9 10  1  0  0  0  0
  9 11  1  0  0  0  0
  9 22  1  0  0  0  0
 11 12  1  0  0  0  0
 11 13  1  0  0  0  0
 11 14  1  0  0  0  0
 14 15  1  0  0  0  0
 14 16  1  0  0  0  0
 14 17  1  0  0  0  0
 17 18  1  0  0  0  0
 18 19  1  0  0  0  0
 18 20  1  0  0  0  0
 18 21  1  0  0  0  0
 22 23  2  0  0  0  0
 22 24  1  0  0  0  0
 24 25  1  0  0  0  0
 24 26  1  0  0  0  0
 26 27  1  0  0  0  0
 26 28  1  0  0  0  0
 26 29  1  0  0  0  0
M  END
$$$$

  -OEChem-01062216093D

 29 28  0     1  0  0  0  0  0999 V2000
   -3.6796   -1.9604    1.6025 H   0  0  0  0  0  0  0  0  0  0  0  0
   -2.5978   -1.9873    1.4491 C   0  0  0  0  0  0  0  0  0  0  0  0
   -2.1408   -1.2319    2.0914 H   0  0  0  0  0  0  0  0  0  0  0  0
   -2.2253   -2.9745    1.7327 H   0  0  0  0  0  0  0  0  0  0  0  0
   -2.2864   -1.7067   -0.0124 C   0  0  0  0  0  0  0  0  0  0  0  0
   -2.7788   -2.4165   -0.8687 O   0  0  0  0  0  0  0  0  0  0  0  0
   -1.8973   -0.4612   -0.4335 N   0  0  0  0  0  0  0  0  0  0  0  0
   -2.1933   -0.3225   -1.4037 H   0  0  0  0  0  0  0  0  0  0  0  0
   -0.6325    0.2522   -0.1443 C   0  0  1  0  0  0  0  0  0  0  0  0
   -0.7653    0.8657    0.7519 H   0  0  0  0  0  0  0  0  0  0  0  0
    0.6364   -0.6458    0.0156 C   0  0  0  0  0  0  0  0  0  0  0  0
    0.7352   -1.2453   -0.8963 H   0  0  0  0  0  0  0  0  0  0  0  0
    1.5238   -0.0106    0.0754 H   0  0  0  0  0  0  0  0  0  0  0  0
    0.7063   -1.6070    1.2081 C   0  0  0  0  0  0  0  0  0  0  0  0
    1.6546   -2.1522    1.1616 H   0  0  0  0  0  0  0  0  0  0  0  0
   -0.0750   -2.3625    1.1606 H   0  0  0  0  0  0  0  0  0  0  0  0
    0.6394   -0.6970    2.8061 S   0  0  0  0  0  0  0  0  0  0  0  0
    2.2453    0.1938    2.8688 C   0  0  0  0  0  0  0  0  0  0  0  0
    2.2988    0.9490    2.0803 H   0  0  0  0  0  0  0  0  0  0  0  0
    2.3558    0.6938    3.8358 H   0  0  0  0  0  0  0  0  0  0  0  0
    3.0743   -0.5091    2.7431 H   0  0  0  0  0  0  0  0  0  0  0  0
   -0.3162    1.1880   -1.3455 C   0  0  0  0  0  0  0  0  0  0  0  0
   -1.0561    1.2163   -2.3223 O   0  0  0  0  0  0  0  0  0  0  0  0
    0.8127    1.9908   -1.3603 N   0  0  0  0  0  0  0  0  0  0  0  0
    1.3953    2.0005   -0.5292 H   0  0  0  0  0  0  0  0  0  0  0  0
    1.1375    2.8969   -2.4566 C   0  0  0  0  0  0  0  0  0  0  0  0
    0.3531    3.6519   -2.5751 H   0  0  0  0  0  0  0  0  0  0  0  0
    2.0834    3.4094   -2.2573 H   0  0  0  0  0  0  0  0  0  0  0  0
    1.2374    2.3428   -3.3959 H   0  0  0  0  0  0  0  0  0  0  0  0
  1  2  1  0  0  0  0
  2  3  1  0  0  0  0
  2  4  1  0  0  0  0
  2  5  1  0  0  0  0
  5  6  2  0  0  0  0
  5  7  1  0  0  0  0
  7  8  1  0  0  0  0
  7  9  1  0  0  0  0
  9 10  1  0  0  0  0
  9 11  1  0  0  0  0
  9 22  1  0  0  0  0
 11 12  1  0  0  0  0
 11 13  1  0  0  0  0
 11 14  1  0  0  0  0
 14 15  1  0  0  0  0
 14 16  1  0  0  0  0
 14 17  1  0  0  0  0
 17 18  1  0  0  0  0
 18 19  1  0  0  0  0
 18 20  1  0  0  0  0
 18 21  1  0  0  0  0
 22 23  2  0  0  0  0
 22 24  1  0  0  0  0
 24 25  1  0  0  0  0
 24 26  1  0  0  0  0
 26 27  1  0  0  0  0
 26 28  1  0  0  0  0
 26 29  1  0  0  0  0
M  END
$$$$

  -OEChem-01062216093D

 29 28  0     1  0  0  0  0  0999 V2000
   -3.6806   -1.9640    1.5890 H   0  0  0  0  0  0  0  0  0  0  0  0
   -2.5986   -2.0058    1.4416 C   0  0  0  0  0  0  0  0  0  0  0  0
   -2.1344   -1.2625    2.0928 H   0  0  0  0  0  0  0  0  0  0  0  0
   -2.2425   -3.0009    1.7187 H   0  0  0  0  0  0  0  0  0  0  0  0
   -2.2748   -1.7184   -0.0157 C   0  0  0  0  0  0  0  0  0  0  0  0
   -2.7677   -2.4189   -0.8795 O   0  0  0  0  0  0  0  0  0  0  0  0
   -1.8806   -0.4713   -0.4269 N   0  0  0  0  0  0  0  0  0  0  0  0
   -2.2054   -0.3014   -1.3823 H   0  0  0  0  0  0  0  0  0  0  0  0
   -0.6143    0.2409   -0.1413 C   0  0  1  0  0  0  0  0  0  0  0  0
   -0.7457    0.8595    0.7517 H   0  0  0  0  0  0  0  0  0  0  0  0
    0.6495   -0.6627    0.0343 C   0  0  0  0  0  0  0  0  0  0  0  0
    0.7543   -1.2697   -0.8719 H   0  0  0  0  0  0  0  0  0  0  0  0
    1.5386   -0.0321    0.1030 H   0  0  0  0  0  0  0  0  0  0  0  0
    0.7076   -1.6106    1.2385 C   0  0  0  0  0  0  0  0  0  0  0  0
    1.6535   -2.1608    1.2032 H   0  0  0  0  0  0  0  0  0  0  0  0
   -0.0768   -2.3631    1.1956 H   0  0  0  0  0  0  0  0  0  0  0  0
    0.6381   -0.6844    2.8269 S   0  0  0  0  0  0  0  0  0  0  0  0
    2.2480    0.1984    2.8901 C   0  0  0  0  0  0  0  0  0  0  0  0
    2.3030    0.9558    2.1035 H   0  0  0  0  0  0  0  0  0  0  0  0
    2.3620    0.6952    3.8583 H   0  0  0  0  0  0  0  0  0  0  0  0
    3.0737   -0.5076    2.7615 H   0  0  0  0  0  0  0  0  0  0  0  0
   -0.3204    1.1806   -1.3503 C   0  0  0  0  0  0  0  0  0  0  0  0
   -1.1939    1.3993   -2.1821 O   0  0  0  0  0  0  0  0  0  0  0  0
    0.9189    1.7654   -1.5585 N   0  0  0  0  0  0  0  0  0  0  0  0
    1.6374    1.6126   -0.8585 H   0  0  0  0  0  0  0  0  0  0  0  0
    1.2115    2.6482   -2.6828 C   0  0  0  0  0  0  0  0  0  0  0  0
    0.5702    3.5354   -2.6501 H   0  0  0  0  0  0  0  0  0  0  0  0
    2.2551    2.9749   -2.6470 H   0  0  0  0  0  0  0  0  0  0  0  0
    1.0458    2.1282   -3.6323 H   0  0  0  0  0  0  0  0  0  0  0  0
  1  2  1  0  0  0  0
  2  3  1  0  0  0  0
  2  4  1  0  0  0  0
  2  5  1  0  0  0  0
  5  6  2  0  0  0  0
  5  7  1  0  0  0  0
  7  8  1  0  0  0  0
  7  9  1  0  0  0  0
  9 10  1  0  0  0  0
  9 11  1  0  0  0  0
  9 22  1  0  0  0  0
 11 12  1  0  0  0  0
 11 13  1  0  0  0  0
 11 14  1  0  0  0  0
 14 15  1  0  0  0  0
 14 16  1  0  0  0  0
 14 17  1  0  0  0  0
 17 18  1  0  0  0  0
 18 19  1  0  0  0  0
 18 20  1  0  0  0  0
 18 21  1  0  0  0  0
 22 23  2  0  0  0  0
 22 24  1  0  0  0  0
 24 25  1  0  0  0  0
 24 26  1  0  0  0  0
 26 27  1  0  0  0  0
 26 28  1  0  0  0  0
 26 29  1  0  0  0  0
M  END
$$$$

  -OEChem-01062216093D

 29 28  0     1  0  0  0  0  0999 V2000
   -3.6849   -1.9704    1.5980 H   0  0  0  0  0  0  0  0  0  0  0  0
   -2.6034   -2.0070    1.4451 C   0  0  0  0  0  0  0  0  0  0  0  0
   -2.1387   -1.2681    2.1013 H   0  0  0  0  0  0  0  0  0  0  0  0
   -2.2432   -3.0035    1.7117 H   0  0  0  0  0  0  0  0  0  0  0  0
   -2.2873   -1.7040   -0.0109 C   0  0  0  0  0  0  0  0  0  0  0  0
   -2.8021   -2.3816   -0.8802 O   0  0  0  0  0  0  0  0  0  0  0  0
   -1.8791   -0.4579   -0.4109 N   0  0  0  0  0  0  0  0  0  0  0  0
   -2.2364   -0.2539   -1.3469 H   0  0  0  0  0  0  0  0  0  0  0  0
   -0.6009    0.2357   -0.1326 C   0  0  1  0  0  0  0  0  0  0  0  0
   -0.7207    0.8561    0.7610 H   0  0  0  0  0  0  0  0  0  0  0  0
    0.6544   -0.6777    0.0472 C   0  0  0  0  0  0  0  0  0  0  0  0
    0.7571   -1.2904   -0.8554 H   0  0  0  0  0  0  0  0  0  0  0  0
    1.5455   -0.0499    0.1194 H   0  0  0  0  0  0  0  0  0  0  0  0
    0.7041   -1.6168    1.2582 C   0  0  0  0  0  0  0  0  0  0  0  0
    1.6444   -2.1768    1.2269 H   0  0  0  0  0  0  0  0  0  0  0  0
   -0.0880   -2.3609    1.2205 H   0  0  0  0  0  0  0  0  0  0  0  0
    0.6448   -0.6792    2.8402 S   0  0  0  0  0  0  0  0  0  0  0  0
    2.2628    0.1893    2.8977 C   0  0  0  0  0  0  0  0  0  0  0  0
    2.3257    0.9388    2.1042 H   0  0  0  0  0  0  0  0  0  0  0  0
    2.3802    0.6951    3.8609 H   0  0  0  0  0  0  0  0  0  0  0  0
    3.0824   -0.5252    2.7771 H   0  0  0  0  0  0  0  0  0  0  0  0
   -0.3218    1.1808   -1.3421 C   0  0  0  0  0  0  0  0  0  0  0  0
   -1.2630    1.6152   -1.9954 O   0  0  0  0  0  0  0  0  0  0  0  0
    0.9534    1.5251   -1.7645 N   0  0  0  0  0  0  0  0  0  0  0  0
    1.7412    1.1491   -1.2478 H   0  0  0  0  0  0  0  0  0  0  0  0
    1.2163    2.3729   -2.9228 C   0  0  0  0  0  0  0  0  0  0  0  0
    0.7710    3.3635   -2.7820 H   0  0  0  0  0  0  0  0  0  0  0  0
    2.2942    2.4960   -3.0652 H   0  0  0  0  0  0  0  0  0  0  0  0
    0.7975    1.9243   -3.8298 H   0  0  0  0  0  0  0  0  0  0  0  0
  1  2  1  0  0  0  0
  2  3  1  0  0  0  0
  2  4  1  0  0  0  0
  2  5  1  0  0  0  0
  5  6  2  0  0  0  0
  5  7  1  0  0  0  0
  7  8  1  0  0  0  0
  7  9  1  0  0  0  0
  9 10  1  0  0  0  0
  9 11  1  0  0  0  0
  9 22  1  0  0  0  0
 11 12  1  0  0  0  0
 11 13  1  0  0  0  0
 11 14  1  0  0  0  0
 14 15  1  0  0  0  0
 14 16  1  0  0  0  0
 14 17  1  0  0  0  0
 17 18  1  0  0  0  0
 18 19  1  0  0  0  0
 18 20  1  0  0  0  0
 18 21  1  0  0  0  0
 22 23  2  0  0  0  0
 22 24  1  0  0  0  0
 24 25  1  0  0  0  0
 24 26  1  0  0  0  0
 26 27  1  0  0  0  0
 26 28  1  0  0  0  0
 26 29  1  0  0  0  0
M  END
$$$$

  -OEChem-01062216093D

 29 28  0     1  0  0  0  0  0999 V2000
   -3.6886   -1.9679    1.6011 H   0  0  0  0  0  0  0  0  0  0  0  0
   -2.6069   -2.0094    1.4508 C   0  0  0  0  0  0  0  0  0  0  0  0
   -2.1404   -1.2720    2.1074 H   0  0  0  0  0  0  0  0  0  0  0  0
   -2.2515   -3.0070    1.7192 H   0  0  0  0  0  0  0  0  0  0  0  0
   -2.2855   -1.7098   -0.0045 C   0  0  0  0  0  0  0  0  0  0  0  0
   -2.7934   -2.3903   -0.8757 O   0  0  0  0  0  0  0  0  0  0  0  0
   -1.8787   -0.4644   -0.4072 N   0  0  0  0  0  0  0  0  0  0  0  0
   -2.2483   -0.2577   -1.3366 H   0  0  0  0  0  0  0  0  0  0  0  0
   -0.5958    0.2218   -0.1351 C   0  0  1  0  0  0  0  0  0  0  0  0
   -0.7145    0.8481    0.7546 H   0  0  0  0  0  0  0  0  0  0  0  0
    0.6587   -0.6883    0.0587 C   0  0  0  0  0  0  0  0  0  0  0  0
    0.7621   -1.3160   -0.8331 H   0  0  0  0  0  0  0  0  0  0  0  0
    1.5468   -0.0535    0.1209 H   0  0  0  0  0  0  0  0  0  0  0  0
    0.7063   -1.6112    1.2822 C   0  0  0  0  0  0  0  0  0  0  0  0
    1.6459   -2.1727    1.2600 H   0  0  0  0  0  0  0  0  0  0  0  0
   -0.0870   -2.3547    1.2527 H   0  0  0  0  0  0  0  0  0  0  0  0
    0.6439   -0.6533    2.8518 S   0  0  0  0  0  0  0  0  0  0  0  0
    2.2619    0.2159    2.9006 C   0  0  0  0  0  0  0  0  0  0  0  0
    2.3261    0.9560    2.0982 H   0  0  0  0  0  0  0  0  0  0  0  0
    2.3777    0.7331    3.8578 H   0  0  0  0  0  0  0  0  0  0  0  0
    3.0817   -0.5000    2.7897 H   0  0  0  0  0  0  0  0  0  0  0  0
   -0.3235    1.1648   -1.3449 C   0  0  0  0  0  0  0  0  0  0  0  0
   -1.2535    1.8055   -1.8174 O   0  0  0  0  0  0  0  0  0  0  0  0
    0.9086    1.2757   -1.9714 N   0  0  0  0  0  0  0  0  0  0  0  0
    1.6632    0.6869   -1.6348 H   0  0  0  0  0  0  0  0  0  0  0  0
    1.1394    2.1046   -3.1499 C   0  0  0  0  0  0  0  0  0  0  0  0
    0.8942    3.1508   -2.9376 H   0  0  0  0  0  0  0  0  0  0  0  0
    2.1904    2.0518   -3.4498 H   0  0  0  0  0  0  0  0  0  0  0  0
    0.5223    1.7617   -3.9872 H   0  0  0  0  0  0  0  0  0  0  0  0
  1  2  1  0  0  0  0
  2  3  1  0  0  0  0
  2  4  1  0  0  0  0
  2  5  1  0  0  0  0
  5  6  2  0  0  0  0
  5  7  1  0  0  0  0
  7  8  1  0  0  0  0
  7  9  1  0  0  0  0
  9 10  1  0  0  0  0
  9 11  1  0  0  0  0
  9 22  1  0  0  0  0
 11 12  1  0  0  0  0
 11 13  1  0  0  0  0
 11 14  1  0  0  0  0
 14 15  1  0  0  0  0
 14 16  1  0  0  0  0
 14 17  1  0  0  0  0
 17 18  1  0  0  0  0
 18 19  1  0  0  0  0
 18 20  1  0  0  0  0
 18 21  1  0  0  0  0
 22 23  2  0  0  0  0
 22 24  1  0  0  0  0
 24 25  1  0  0  0  0
 24 26  1  0  0  0  0
 26 27  1  0  0  0  0
 26 28  1  0  0  0  0
 26 29  1  0  0  0  0
M  END
$$$$

  -OEChem-01062216093D

 29 28  0     1  0  0  0  0  0999 V2000
   -3.7027   -1.9542    1.5926 H   0  0  0  0  0  0  0  0  0  0  0  0
   -2.6217   -2.0043    1.4390 C   0  0  0  0  0  0  0  0  0  0  0  0
   -2.1465   -1.2772    2.1012 H   0  0  0  0  0  0  0  0  0  0  0  0
   -2.2747   -3.0079    1.6968 H   0  0  0  0  0  0  0  0  0  0  0  0
   -2.3008   -1.6937   -0.0141 C   0  0  0  0  0  0  0  0  0  0  0  0
   -2.8172   -2.3591   -0.8920 O   0  0  0  0  0  0  0  0  0  0  0  0
   -1.8846   -0.4488   -0.4081 N   0  0  0  0  0  0  0  0  0  0  0  0
   -2.2597   -0.2332   -1.3320 H   0  0  0  0  0  0  0  0  0  0  0  0
   -0.5924    0.2180   -0.1337 C   0  0  1  0  0  0  0  0  0  0  0  0
   -0.7065    0.8409    0.7594 H   0  0  0  0  0  0  0  0  0  0  0  0
    0.6563   -0.6983    0.0615 C   0  0  0  0  0  0  0  0  0  0  0  0
    0.7532   -1.3343   -0.8251 H   0  0  0  0  0  0  0  0  0  0  0  0
    1.5468   -0.0644    0.1124 H   0  0  0  0  0  0  0  0  0  0  0  0
    0.6954   -1.6202    1.2862 C   0  0  0  0  0  0  0  0  0  0  0  0
    1.6314   -2.1878    1.2665 H   0  0  0  0  0  0  0  0  0  0  0  0
   -0.1033   -2.3579    1.2554 H   0  0  0  0  0  0  0  0  0  0  0  0
    0.6358   -0.6621    2.8554 S   0  0  0  0  0  0  0  0  0  0  0  0
    2.2597    0.1963    2.9061 C   0  0  0  0  0  0  0  0  0  0  0  0
    2.3336    0.9295    2.0981 H   0  0  0  0  0  0  0  0  0  0  0  0
    2.3741    0.7204    3.8598 H   0  0  0  0  0  0  0  0  0  0  0  0
    3.0750   -0.5264    2.8055 H   0  0  0  0  0  0  0  0  0  0  0  0
   -0.3109    1.1684   -1.3315 C   0  0  0  0  0  0  0  0  0  0  0  0
   -1.1510    2.0076   -1.6248 O   0  0  0  0  0  0  0  0  0  0  0  0
    0.8054    1.0624   -2.1470 N   0  0  0  0  0  0  0  0  0  0  0  0
    1.4488    0.2991   -1.9648 H   0  0  0  0  0  0  0  0  0  0  0  0
    1.0057    1.8767   -3.3409 C   0  0  0  0  0  0  0  0  0  0  0  0
    1.0093    2.9412   -3.0835 H   0  0  0  0  0  0  0  0  0  0  0  0
    1.9641    1.6326   -3.8093 H   0  0  0  0  0  0  0  0  0  0  0  0
    0.2078    1.6930   -4.0683 H   0  0  0  0  0  0  0  0  0  0  0  0
  1  2  1  0  0  0  0
  2  3  1  0  0  0  0
  2  4  1  0  0  0  0
  2  5  1  0  0  0  0
  5  6  2  0  0  0  0
  5  7  1  0  0  0  0
  7  8  1  0  0  0  0
  7  9  1  0  0  0  0
  9 10  1  0  0  0  0
  9 11  1  0  0  0  0
  9 22  1  0  0  0  0
 11 12  1  0  0  0  0
 11 13  1  0  0  0  0
 11 14  1  0  0  0  0
 14 15  1  0  0  0  0
 14 16  1  0  0  0  0
 14 17  1  0  0  0  0
 17 18  1  0  0  0  0
 18 19  1  0  0  0  0
 18 20  1  0  0  0  0
 18 21  1  0  0  0  0
 22 23  2  0  0  0  0
 22 24  1  0  0  0  0
 24 25  1  0  0  0  0
 24 26  1  0  0  0  0
 26 27  1  0  0  0  0
 26 28  1  0  0  0  0
 26 29  1  0  0  0  0
M  END
$$$$

  -OEChem-01062216093D

 29 28  0     1  0  0  0  0  0999 V2000
   -3.7115   -1.9470    1.6128 H   0  0  0  0  0  0  0  0  0  0  0  0
   -2.6306   -1.9998    1.4601 C   0  0  0  0  0  0  0  0  0  0  0  0
   -2.1552   -1.2666    2.1151 H   0  0  0  0  0  0  0  0  0  0  0  0
   -2.2840   -3.0006    1.7283 H   0  0  0  0  0  0  0  0  0  0  0  0
   -2.3095   -1.7035    0.0044 C   0  0  0  0  0  0  0  0  0  0  0  0
   -2.8138   -2.3828   -0.8699 O   0  0  0  0  0  0  0  0  0  0  0  0
   -1.9044   -0.4597   -0.4037 N   0  0  0  0  0  0  0  0  0  0  0  0
   -2.2756   -0.2695   -1.3337 H   0  0  0  0  0  0  0  0  0  0  0  0
   -0.6095    0.2053   -0.1394 C   0  0  1  0  0  0  0  0  0  0  0  0
   -0.7205    0.8307    0.7527 H   0  0  0  0  0  0  0  0  0  0  0  0
    0.6420   -0.7058    0.0564 C   0  0  0  0  0  0  0  0  0  0  0  0
    0.7328   -1.3542   -0.8211 H   0  0  0  0  0  0  0  0  0  0  0  0
    1.5309   -0.0677    0.0870 H   0  0  0  0  0  0  0  0  0  0  0  0
    0.6907   -1.6190    1.2875 C   0  0  0  0  0  0  0  0  0  0  0  0
    1.6282   -2.1840    1.2664 H   0  0  0  0  0  0  0  0  0  0  0  0
   -0.1069   -2.3585    1.2671 H   0  0  0  0  0  0  0  0  0  0  0  0
    0.6367   -0.6497    2.8495 S   0  0  0  0  0  0  0  0  0  0  0  0
    2.2591    0.2117    2.8797 C   0  0  0  0  0  0  0  0  0  0  0  0
    2.3212    0.9424    2.0685 H   0  0  0  0  0  0  0  0  0  0  0  0
    2.3835    0.7388    3.8306 H   0  0  0  0  0  0  0  0  0  0  0  0
    3.0745   -0.5095    2.7706 H   0  0  0  0  0  0  0  0  0  0  0  0
   -0.3208    1.1519   -1.3345 C   0  0  0  0  0  0  0  0  0  0  0  0
   -0.9920    2.1659   -1.4578 O   0  0  0  0  0  0  0  0  0  0  0  0
    0.6131    0.8651   -2.3177 N   0  0  0  0  0  0  0  0  0  0  0  0
    1.0875   -0.0308   -2.2666 H   0  0  0  0  0  0  0  0  0  0  0  0
    0.8115    1.6961   -3.5003 C   0  0  0  0  0  0  0  0  0  0  0  0
    1.0772    2.7185   -3.2109 H   0  0  0  0  0  0  0  0  0  0  0  0
    1.6208    1.2918   -4.1159 H   0  0  0  0  0  0  0  0  0  0  0  0
   -0.1010    1.7273   -4.1050 H   0  0  0  0  0  0  0  0  0  0  0  0
  1  2  1  0  0  0  0
  2  3  1  0  0  0  0
  2  4  1  0  0  0  0
  2  5  1  0  0  0  0
  5  6  2  0  0  0  0
  5  7  1  0  0  0  0
  7  8  1  0  0  0  0
  7  9  1  0  0  0  0
  9 10  1  0  0  0  0
  9 11  1  0  0  0  0
  9 22  1  0  0  0  0
 11 12  1  0  0  0  0
 11 13  1  0  0  0  0
 11 14  1  0  0  0  0
 14 15  1  0  0  0  0
 14 16  1  0  0  0  0
 14 17  1  0  0  0  0
 17 18  1  0  0  0  0
 18 19  1  0  0  0  0
 18 20  1  0  0  0  0
 18 21  1  0  0  0  0
 22 23  2  0  0  0  0
 22 24  1  0  0  0  0
 24 25  1  0  0  0  0
 24 26  1  0  0  0  0
 26 27  1  0  0  0  0
 26 28  1  0  0  0  0
 26 29  1  0  0  0  0
M  END
$$$$

  -OEChem-01062216093D

 29 28  0     1  0  0  0  0  0999 V2000
   -3.7131   -1.9687    1.6368 H   0  0  0  0  0  0  0  0  0  0  0  0
   -2.6327   -2.0084    1.4771 C   0  0  0  0  0  0  0  0  0  0  0  0
   -2.1614   -1.2699    2.1294 H   0  0  0  0  0  0  0  0  0  0  0  0
   -2.2727   -3.0052    1.7428 H   0  0  0  0  0  0  0  0  0  0  0  0
   -2.3240   -1.7080    0.0195 C   0  0  0  0  0  0  0  0  0  0  0  0
   -2.8204   -2.3922   -0.8554 O   0  0  0  0  0  0  0  0  0  0  0  0
   -1.9308   -0.4627   -0.3940 N   0  0  0  0  0  0  0  0  0  0  0  0
   -2.2968   -0.2917   -1.3292 H   0  0  0  0  0  0  0  0  0  0  0  0
   -0.6332    0.1992   -0.1364 C   0  0  1  0  0  0  0  0  0  0  0  0
   -0.7389    0.8189    0.7606 H   0  0  0  0  0  0  0  0  0  0  0  0
    0.6258   -0.7038    0.0421 C   0  0  0  0  0  0  0  0  0  0  0  0
    0.7144   -1.3481   -0.8382 H   0  0  0  0  0  0  0  0  0  0  0  0
    1.5105   -0.0592    0.0631 H   0  0  0  0  0  0  0  0  0  0  0  0
    0.6900   -1.6237    1.2675 C   0  0  0  0  0  0  0  0  0  0  0  0
    1.6309   -2.1827    1.2361 H   0  0  0  0  0  0  0  0  0  0  0  0
   -0.1037   -2.3675    1.2494 H   0  0  0  0  0  0  0  0  0  0  0  0
    0.6419   -0.6632    2.8351 S   0  0  0  0  0  0  0  0  0  0  0  0
    2.2591    0.2085    2.8570 C   0  0  0  0  0  0  0  0  0  0  0  0
    2.3133    0.9380    2.0440 H   0  0  0  0  0  0  0  0  0  0  0  0
    2.3837    0.7388    3.8060 H   0  0  0  0  0  0  0  0  0  0  0  0
    3.0787   -0.5075    2.7467 H   0  0  0  0  0  0  0  0  0  0  0  0
   -0.3439    1.1484   -1.3253 C   0  0  0  0  0  0  0  0  0  0  0  0
   -0.7626    2.2958   -1.2886 O   0  0  0  0  0  0  0  0  0  0  0  0
    0.3464    0.7320   -2.4518 N   0  0  0  0  0  0  0  0  0  0  0  0
    0.5913   -0.2517   -2.5139 H   0  0  0  0  0  0  0  0  0  0  0  0
    0.5646    1.5842   -3.6152 C   0  0  0  0  0  0  0  0  0  0  0  0
    1.1360    2.4756   -3.3353 H   0  0  0  0  0  0  0  0  0  0  0  0
    1.1262    1.0417   -4.3818 H   0  0  0  0  0  0  0  0  0  0  0  0
   -0.3920    1.8996   -4.0451 H   0  0  0  0  0  0  0  0  0  0  0  0
  1  2  1  0  0  0  0
  2  3  1  0  0  0  0
  2  4  1  0  0  0  0
  2  5  1  0  0  0  0
  5  6  2  0  0  0  0
  5  7  1  0  0  0  0
  7  8  1  0  0  0  0
  7  9  1  0  0  0  0
  9 10  1  0  0  0  0
  9 11  1  0  0  0  0
  9 22  1  0  0  0  0
 11 12  1  0  0  0  0
 11 13  1  0  0  0  0
 11 14  1  0  0  0  0
 14 15  1  0  0  0  0
 14 16  1  0  0  0  0
 14 17  1  0  0  0  0
 17 18  1  0  0  0  0
 18 19  1  0  0  0  0
 18 20  1  0  0  0  0
 18 21  1  0  0  0  0
 22 23  2  0  0  0  0
 22 24  1  0  0  0  0
 24 25  1  0  0  0  0
 24 26  1  0  0  0  0
 26 27  1  0  0  0  0
 26 28  1  0  0  0  0
 26 29  1  0  0  0  0
M  END
$$$$

  -OEChem-01062216093D

 29 28  0     1  0  0  0  0  0999 V2000
   -3.6948   -1.9948    1.6938 H   0  0  0  0  0  0  0  0  0  0  0  0
   -2.6182   -2.0156    1.5068 C   0  0  0  0  0  0  0  0  0  0  0  0
   -2.1432   -1.2714    2.1497 H   0  0  0  0  0  0  0  0  0  0  0  0
   -2.2353   -3.0070    1.7601 H   0  0  0  0  0  0  0  0  0  0  0  0
   -2.3507   -1.7057    0.0431 C   0  0  0  0  0  0  0  0  0  0  0  0
   -2.8710   -2.3824   -0.8237 O   0  0  0  0  0  0  0  0  0  0  0  0
   -1.9632   -0.4611   -0.3786 N   0  0  0  0  0  0  0  0  0  0  0  0
   -2.3373   -0.2961   -1.3115 H   0  0  0  0  0  0  0  0  0  0  0  0
   -0.6673    0.2068   -0.1263 C   0  0  1  0  0  0  0  0  0  0  0  0
   -0.7687    0.8233    0.7735 H   0  0  0  0  0  0  0  0  0  0  0  0
    0.6038   -0.6821    0.0266 C   0  0  0  0  0  0  0  0  0  0  0  0
    0.6957   -1.3108   -0.8646 H   0  0  0  0  0  0  0  0  0  0  0  0
    1.4793   -0.0250    0.0484 H   0  0  0  0  0  0  0  0  0  0  0  0
    0.6925   -1.6173    1.2385 C   0  0  0  0  0  0  0  0  0  0  0  0
    1.6396   -2.1643    1.1893 H   0  0  0  0  0  0  0  0  0  0  0  0
   -0.0926   -2.3703    1.2172 H   0  0  0  0  0  0  0  0  0  0  0  0
    0.6495   -0.6800    2.8199 S   0  0  0  0  0  0  0  0  0  0  0  0
    2.2558    0.2112    2.8366 C   0  0  0  0  0  0  0  0  0  0  0  0
    2.2952    0.9480    2.0293 H   0  0  0  0  0  0  0  0  0  0  0  0
    2.3806    0.7350    3.7892 H   0  0  0  0  0  0  0  0  0  0  0  0
    3.0838   -0.4933    2.7139 H   0  0  0  0  0  0  0  0  0  0  0  0
   -0.3812    1.1492   -1.3179 C   0  0  0  0  0  0  0  0  0  0  0  0
   -0.5003    2.3571   -1.1781 O   0  0  0  0  0  0  0  0  0  0  0  0
    0.0282    0.6528   -2.5441 N   0  0  0  0  0  0  0  0  0  0  0  0
    0.0560   -0.3569   -2.6559 H   0  0  0  0  0  0  0  0  0  0  0  0
    0.2854    1.4978   -3.7045 C   0  0  0  0  0  0  0  0  0  0  0  0
    1.1021    2.1969   -3.4958 H   0  0  0  0  0  0  0  0  0  0  0  0
    0.5684    0.8836   -4.5649 H   0  0  0  0  0  0  0  0  0  0  0  0
   -0.6099    2.0706   -3.9686 H   0  0  0  0  0  0  0  0  0  0  0  0
  1  2  1  0  0  0  0
  2  3  1  0  0  0  0
  2  4  1  0  0  0  0
  2  5  1  0  0  0  0
  5  6  2  0  0  0  0
  5  7  1  0  0  0  0
  7  8  1  0  0  0  0
  7  9  1  0  0  0  0
  9 10  1  0  0  0  0
  9 11  1  0  0  0  0
  9 22  1  0  0  0  0
 11 12  1  0  0  0  0
 11 13  1  0  0  0  0
 11 14  1  0  0  0  0
 14 15  1  0  0  0  0
 14 16  1  0  0  0  0
 14 17  1  0  0  0  0
 17 18  1  0  0  0  0
 18 19  1  0  0  0  0
 18 20  1  0  0  0  0
 18 21  1  0  0  0  0
 22 23  2  0  0  0  0
 22 24  1  0  0  0  0
 24 25  1  0  0  0  0
 24 26  1  0  0  0  0
 26 27  1  0  0  0  0
 26 28  1  0  0  0  0
 26 29  1  0  0  0  0
M  END
$$$$

  -OEChem-01062216093D

 29 28  0     1  0  0  0  0  0999 V2000
   -3.6805   -2.0288    1.7296 H   0  0  0  0  0  0  0  0  0  0  0  0
   -2.6071   -2.0348    1.5247 C   0  0  0  0  0  0  0  0  0  0  0  0
   -2.1303   -1.2916    2.1673 H   0  0  0  0  0  0  0  0  0  0  0  0
   -2.2084   -3.0240    1.7613 H   0  0  0  0  0  0  0  0  0  0  0  0
   -2.3687   -1.7069    0.0599 C   0  0  0  0  0  0  0  0  0  0  0  0
   -2.9048   -2.3723   -0.8061 O   0  0  0  0  0  0  0  0  0  0  0  0
   -1.9905   -0.4586   -0.3588 N   0  0  0  0  0  0  0  0  0  0  0  0
   -2.3753   -0.2878   -1.2858 H   0  0  0  0  0  0  0  0  0  0  0  0
   -0.7008    0.2212   -0.1057 C   0  0  1  0  0  0  0  0  0  0  0  0
   -0.7989    0.8284    0.8009 H   0  0  0  0  0  0  0  0  0  0  0  0
    0.5819   -0.6537    0.0123 C   0  0  0  0  0  0  0  0  0  0  0  0
    0.6731   -1.2559   -0.8974 H   0  0  0  0  0  0  0  0  0  0  0  0
    1.4489    0.0143    0.0414 H   0  0  0  0  0  0  0  0  0  0  0  0
    0.6961   -1.6151    1.2011 C   0  0  0  0  0  0  0  0  0  0  0  0
    1.6495   -2.1485    1.1288 H   0  0  0  0  0  0  0  0  0  0  0  0
   -0.0802   -2.3772    1.1712 H   0  0  0  0  0  0  0  0  0  0  0  0
    0.6589   -0.7120    2.8030 S   0  0  0  0  0  0  0  0  0  0  0  0
    2.2545    0.1991    2.8200 C   0  0  0  0  0  0  0  0  0  0  0  0
    2.2761    0.9512    2.0262 H   0  0  0  0  0  0  0  0  0  0  0  0
    2.3836    0.7068    3.7805 H   0  0  0  0  0  0  0  0  0  0  0  0
    3.0895   -0.4927    2.6759 H   0  0  0  0  0  0  0  0  0  0  0  0
   -0.4218    1.1670   -1.2933 C   0  0  0  0  0  0  0  0  0  0  0  0
   -0.2460    2.3602   -1.0981 O   0  0  0  0  0  0  0  0  0  0  0  0
   -0.3113    0.6661   -2.5793 N   0  0  0  0  0  0  0  0  0  0  0  0
   -0.4473   -0.3329   -2.7091 H   0  0  0  0  0  0  0  0  0  0  0  0
   -0.0193    1.4971   -3.7411 C   0  0  0  0  0  0  0  0  0  0  0  0
    0.9716    1.9533   -3.6460 H   0  0  0  0  0  0  0  0  0  0  0  0
   -0.0363    0.8921   -4.6528 H   0  0  0  0  0  0  0  0  0  0  0  0
   -0.7653    2.2926   -3.8416 H   0  0  0  0  0  0  0  0  0  0  0  0
  1  2  1  0  0  0  0
  2  3  1  0  0  0  0
  2  4  1  0  0  0  0
  2  5  1  0  0  0  0
  5  6  2  0  0  0  0
  5  7  1  0  0  0  0
  7  8  1  0  0  0  0
  7  9  1  0  0  0  0
  9 10  1  0  0  0  0
  9 11  1  0  0  0  0
  9 22  1  0  0  0  0
 11 12  1  0  0  0  0
 11 13  1  0  0  0  0
 11 14  1  0  0  0  0
 14 15  1  0  0  0  0
 14 16  1  0  0  0  0
 14 17  1  0  0  0  0
 17 18  1  0  0  0  0
 18 19  1  0  0  0  0
 18 20  1  0  0  0  0
 18 21  1  0  0  0  0
 22 23  2  0  0  0  0
 22 24  1  0  0  0  0
 24 25  1  0  0  0  0
 24 26  1  0  0  0  0
 26 27  1  0  0  0  0
 26 28  1  0  0  0  0
 26 29  1  0  0  0  0
M  END
$$$$

  -OEChem-01062216093D

 29 28  0     1  0  0  0  0  0999 V2000
   -3.6612   -2.0780    1.7706 H   0  0  0  0  0  0  0  0  0  0  0  0
   -2.5923   -2.0605    1.5433 C   0  0  0  0  0  0  0  0  0  0  0  0
   -2.1175   -1.3137    2.1829 H   0  0  0  0  0  0  0  0  0  0  0  0
   -2.1695   -3.0438    1.7626 H   0  0  0  0  0  0  0  0  0  0  0  0
   -2.3912   -1.7142    0.0771 C   0  0  0  0  0  0  0  0  0  0  0  0
   -2.9647   -2.3575   -0.7816 O   0  0  0  0  0  0  0  0  0  0  0  0
   -2.0154   -0.4636   -0.3380 N   0  0  0  0  0  0  0  0  0  0  0  0
   -2.4290   -0.2703   -1.2475 H   0  0  0  0  0  0  0  0  0  0  0  0
   -0.7334    0.2333   -0.0863 C   0  0  1  0  0  0  0  0  0  0  0  0
   -0.8315    0.8336    0.8246 H   0  0  0  0  0  0  0  0  0  0  0  0
    0.5599   -0.6281    0.0058 C   0  0  0  0  0  0  0  0  0  0  0  0
    0.6481   -1.2114   -0.9167 H   0  0  0  0  0  0  0  0  0  0  0  0
    1.4209    0.0479    0.0374 H   0  0  0  0  0  0  0  0  0  0  0  0
    0.6989   -1.6068    1.1766 C   0  0  0  0  0  0  0  0  0  0  0  0
    1.6582   -2.1264    1.0858 H   0  0  0  0  0  0  0  0  0  0  0  0
   -0.0684   -2.3777    1.1415 H   0  0  0  0  0  0  0  0  0  0  0  0
    0.6677   -0.7293    2.7929 S   0  0  0  0  0  0  0  0  0  0  0  0
    2.2519    0.2013    2.8063 C   0  0  0  0  0  0  0  0  0  0  0  0
    2.2538    0.9674    2.0253 H   0  0  0  0  0  0  0  0  0  0  0  0
    2.3867    0.6942    3.7738 H   0  0  0  0  0  0  0  0  0  0  0  0
    3.0938   -0.4771    2.6395 H   0  0  0  0  0  0  0  0  0  0  0  0
   -0.4549    1.1833   -1.2707 C   0  0  0  0  0  0  0  0  0  0  0  0
   -0.0216    2.3074   -1.0653 O   0  0  0  0  0  0  0  0  0  0  0  0
   -0.6349    0.7496   -2.5737 N   0  0  0  0  0  0  0  0  0  0  0  0
   -0.8936   -0.2238   -2.7125 H   0  0  0  0  0  0  0  0  0  0  0  0
   -0.3148    1.5662   -3.7384 C   0  0  0  0  0  0  0  0  0  0  0  0
    0.7616    1.7612   -3.7846 H   0  0  0  0  0  0  0  0  0  0  0  0
   -0.6147    1.0510   -4.6561 H   0  0  0  0  0  0  0  0  0  0  0  0
   -0.8446    2.5237   -3.6935 H   0  0  0  0  0  0  0  0  0  0  0  0
  1  2  1  0  0  0  0
  2  3  1  0  0  0  0
  2  4  1  0  0  0  0
  2  5  1  0  0  0  0
  5  6  2  0  0  0  0
  5  7  1  0  0  0  0
  7  8  1  0  0  0  0
  7  9  1  0  0  0  0
  9 10  1  0  0  0  0
  9 11  1  0  0  0  0
  9 22  1  0  0  0  0
 11 12  1  0  0  0  0
 11 13  1  0  0  0  0
 11 14  1  0  0  0  0
 14 15  1  0  0  0  0
 14 16  1  0  0  0  0
 14 17  1  0  0  0  0
 17 18  1  0  0  0  0
 18 19  1  0  0  0  0
 18 20  1  0  0  0  0
 18 21  1  0  0  0  0
 22 23  2  0  0  0  0
 22 24  1  0  0  0  0
 24 25  1  0  0  0  0
 24 26  1  0  0  0  0
 26 27  1  0  0  0  0
 26 28  1  0  0  0  0
 26 29  1  0  0  0  0
M  END
$$$$

  -OEChem-01062216093D

 29 28  0     1  0  0  0  0  0999 V2000
   -3.6407   -2.1074    1.8058 H   0  0  0  0  0  0  0  0  0  0  0  0
   -2.5763   -2.0842    1.5585 C   0  0  0  0  0  0  0  0  0  0  0  0
   -2.0925   -1.3428    2.1976 H   0  0  0  0  0  0  0  0  0  0  0  0
   -2.1475   -3.0690    1.7585 H   0  0  0  0  0  0  0  0  0  0  0  0
   -2.4033   -1.7223    0.0925 C   0  0  0  0  0  0  0  0  0  0  0  0
   -3.0176   -2.3395   -0.7572 O   0  0  0  0  0  0  0  0  0  0  0  0
   -2.0253   -0.4712   -0.3191 N   0  0  0  0  0  0  0  0  0  0  0  0
   -2.4730   -0.2526   -1.2056 H   0  0  0  0  0  0  0  0  0  0  0  0
   -0.7494    0.2412   -0.0719 C   0  0  1  0  0  0  0  0  0  0  0  0
   -0.8465    0.8379    0.8413 H   0  0  0  0  0  0  0  0  0  0  0  0
    0.5465   -0.6193    0.0066 C   0  0  0  0  0  0  0  0  0  0  0  0
    0.6274   -1.1949   -0.9217 H   0  0  0  0  0  0  0  0  0  0  0  0
    1.4081    0.0561    0.0371 H   0  0  0  0  0  0  0  0  0  0  0  0
    0.6994   -1.6054    1.1695 C   0  0  0  0  0  0  0  0  0  0  0  0
    1.6601   -2.1200    1.0662 H   0  0  0  0  0  0  0  0  0  0  0  0
   -0.0642   -2.3797    1.1358 H   0  0  0  0  0  0  0  0  0  0  0  0
    0.6808   -0.7393    2.7925 S   0  0  0  0  0  0  0  0  0  0  0  0
    2.2626    0.1959    2.7977 C   0  0  0  0  0  0  0  0  0  0  0  0
    2.2585    0.9628    2.0176 H   0  0  0  0  0  0  0  0  0  0  0  0
    2.4021    0.6880    3.7649 H   0  0  0  0  0  0  0  0  0  0  0  0
    3.1050   -0.4801    2.6248 H   0  0  0  0  0  0  0  0  0  0  0  0
   -0.4675    1.1967   -1.2544 C   0  0  0  0  0  0  0  0  0  0  0  0
    0.1652    2.2264   -1.0683 O   0  0  0  0  0  0  0  0  0  0  0  0
   -0.9142    0.8977   -2.5317 N   0  0  0  0  0  0  0  0  0  0  0  0
   -1.2810   -0.0372   -2.6884 H   0  0  0  0  0  0  0  0  0  0  0  0
   -0.6146    1.7301   -3.6909 C   0  0  0  0  0  0  0  0  0  0  0  0
    0.4626    1.7409   -3.8871 H   0  0  0  0  0  0  0  0  0  0  0  0
   -1.1259    1.3420   -4.5771 H   0  0  0  0  0  0  0  0  0  0  0  0
   -0.9522    2.7584   -3.5228 H   0  0  0  0  0  0  0  0  0  0  0  0
  1  2  1  0  0  0  0
  2  3  1  0  0  0  0
  2  4  1  0  0  0  0
  2  5  1  0  0  0  0
  5  6  2  0  0  0  0
  5  7  1  0  0  0  0
  7  8  1  0  0  0  0
  7  9  1  0  0  0  0
  9 10  1  0  0  0  0
  9 11  1  0  0  0  0
  9 22  1  0  0  0  0
 11 12  1  0  0  0  0
 11 13  1  0  0  0  0
 11 14  1  0  0  0  0
 14 15  1  0  0  0  0
 14 16  1  0  0  0  0
 14 17  1  0  0  0  0
 17 18  1  0  0  0  0
 18 19  1  0  0  0  0
 18 20  1  0  0  0  0
 18 21  1  0  0  0  0
 22 23  2  0  0  0  0
 22 24  1  0  0  0  0
 24 25  1  0  0  0  0
 24 26  1  0  0  0  0
 26 27  1  0  0  0  0
 26 28  1  0  0  0  0
 26 29  1  0  0  0  0
M  END
$$$$

  -OEChem-01062216093D

 29 28  0     1  0  0  0  0  0999 V2000
   -3.2137   -3.2087   -0.0288 H   0  0  0  0  0  0  0  0  0  0  0  0
   -2.3089   -2.6734    0.2719 C   0  0  0  0  0  0  0  0  0  0  0  0
   -1.8845   -3.1802    1.1402 H   0  0  0  0  0  0  0  0  0  0  0  0
   -1.6003   -2.7156   -0.5569 H   0  0  0  0  0  0  0  0  0  0  0  0
   -2.6630   -1.2302    0.6063 C   0  0  0  0  0  0  0  0  0  0  0  0
   -3.7711   -0.9844    1.0420 O   0  0  0  0  0  0  0  0  0  0  0  0
   -2.0807   -0.1466   -0.0053 N   0  0  0  0  0  0  0  0  0  0  0  0
   -2.7236    0.6389    0.0871 H   0  0  0  0  0  0  0  0  0  0  0  0
   -0.6533    0.2650   -0.0111 C   0  0  1  0  0  0  0  0  0  0  0  0
   -0.5799    1.0421    0.7560 H   0  0  0  0  0  0  0  0  0  0  0  0
    0.4359   -0.7779    0.3519 C   0  0  0  0  0  0  0  0  0  0  0  0
    0.3526   -1.6326   -0.3238 H   0  0  0  0  0  0  0  0  0  0  0  0
    1.4210   -0.3372    0.1704 H   0  0  0  0  0  0  0  0  0  0  0  0
    0.4124   -1.2771    1.8091 C   0  0  0  0  0  0  0  0  0  0  0  0
    1.1980   -2.0272    1.9452 H   0  0  0  0  0  0  0  0  0  0  0  0
   -0.5347   -1.7521    2.0558 H   0  0  0  0  0  0  0  0  0  0  0  0
    0.6799    0.0977    3.0020 S   0  0  0  0  0  0  0  0  0  0  0  0
    2.4356    0.5605    2.7213 C   0  0  0  0  0  0  0  0  0  0  0  0
    2.5649    0.9866    1.7219 H   0  0  0  0  0  0  0  0  0  0  0  0
    2.7472    1.3068    3.4582 H   0  0  0  0  0  0  0  0  0  0  0  0
    3.0807   -0.3176    2.8181 H   0  0  0  0  0  0  0  0  0  0  0  0
   -0.2922    1.0042   -1.3197 C   0  0  0  0  0  0  0  0  0  0  0  0
    0.7568    1.6268   -1.4105 O   0  0  0  0  0  0  0  0  0  0  0  0
   -1.1342    0.9407   -2.4147 N   0  0  0  0  0  0  0  0  0  0  0  0
   -1.9874    0.3984   -2.3062 H   0  0  0  0  0  0  0  0  0  0  0  0
   -0.8600    1.5976   -3.6868 C   0  0  0  0  0  0  0  0  0  0  0  0
    0.0672    1.2131   -4.1248 H   0  0  0  0  0  0  0  0  0  0  0  0
   -1.6772    1.4140   -4.3909 H   0  0  0  0  0  0  0  0  0  0  0  0
   -0.7617    2.6792   -3.5464 H   0  0  0  0  0  0  0  0  0  0  0  0
  1  2  1  0  0  0  0
  2  3  1  0  0  0  0
  2  4  1  0  0  0  0
  2  5  1  0  0  0  0
  5  6  2  0  0  0  0
  5  7  1  0  0  0  0
  7  8  1  0  0  0  0
  7  9  1  0  0  0  0
  9 10  1  0  0  0  0
  9 11  1  0  0  0  0
  9 22  1  0  0  0  0
 11 12  1  0  0  0  0
 11 13  1  0  0  0  0
 11 14  1  0  0  0  0
 14 15  1  0  0  0  0
 14 16  1  0  0  0  0
 14 17  1  0  0  0  0
 17 18  1  0  0  0  0
 18 19  1  0  0  0  0
 18 20  1  0  0  0  0
 18 21  1  0  0  0  0
 22 23  2  0  0  0  0
 22 24  1  0  0  0  0
 24 25  1  0  0  0  0
 24 26  1  0  0  0  0
 26 27  1  0  0  0  0
 26 28  1  0  0  0  0
 26 29  1  0  0  0  0
M  END
$$$$

  -OEChem-01062216093D

 29 28  0     1  0  0  0  0  0999 V2000
   -3.1907   -3.2466   -0.0024 H   0  0  0  0  0  0  0  0  0  0  0  0
   -2.2850   -2.7004    0.2749 C   0  0  0  0  0  0  0  0  0  0  0  0
   -1.8268   -3.2070    1.1260 H   0  0  0  0  0  0  0  0  0  0  0  0
   -1.6013   -2.7264   -0.5754 H   0  0  0  0  0  0  0  0  0  0  0  0
   -2.6486   -1.2645    0.6293 C   0  0  0  0  0  0  0  0  0  0  0  0
   -3.7489   -1.0329    1.0917 O   0  0  0  0  0  0  0  0  0  0  0  0
   -2.0904   -0.1697    0.0161 N   0  0  0  0  0  0  0  0  0  0  0  0
   -2.7396    0.6061    0.1374 H   0  0  0  0  0  0  0  0  0  0  0  0
   -0.6684    0.2610   -0.0032 C   0  0  1  0  0  0  0  0  0  0  0  0
   -0.5971    1.0386    0.7630 H   0  0  0  0  0  0  0  0  0  0  0  0
    0.4311   -0.7741    0.3586 C   0  0  0  0  0  0  0  0  0  0  0  0
    0.3497   -1.6317   -0.3139 H   0  0  0  0  0  0  0  0  0  0  0  0
    1.4139   -0.3305    0.1734 H   0  0  0  0  0  0  0  0  0  0  0  0
    0.4202   -1.2670    1.8183 C   0  0  0  0  0  0  0  0  0  0  0  0
    1.2123   -2.0106    1.9525 H   0  0  0  0  0  0  0  0  0  0  0  0
   -0.5214   -1.7490    2.0728 H   0  0  0  0  0  0  0  0  0  0  0  0
    0.6862    0.1154    3.0033 S   0  0  0  0  0  0  0  0  0  0  0  0
    2.4373    0.5888    2.7092 C   0  0  0  0  0  0  0  0  0  0  0  0
    2.5572    1.0119    1.7074 H   0  0  0  0  0  0  0  0  0  0  0  0
    2.7492    1.3399    3.4410 H   0  0  0  0  0  0  0  0  0  0  0  0
    3.0891   -0.2845    2.8050 H   0  0  0  0  0  0  0  0  0  0  0  0
   -0.3322    1.0124   -1.3148 C   0  0  0  0  0  0  0  0  0  0  0  0
    0.7899    1.4600   -1.5093 O   0  0  0  0  0  0  0  0  0  0  0  0
   -1.3029    1.2042   -2.2816 N   0  0  0  0  0  0  0  0  0  0  0  0
   -2.1971    0.7456   -2.1277 H   0  0  0  0  0  0  0  0  0  0  0  0
   -1.0522    1.8635   -3.5576 C   0  0  0  0  0  0  0  0  0  0  0  0
   -0.3237    1.2955   -4.1454 H   0  0  0  0  0  0  0  0  0  0  0  0
   -1.9799    1.9387   -4.1329 H   0  0  0  0  0  0  0  0  0  0  0  0
   -0.6639    2.8749   -3.3973 H   0  0  0  0  0  0  0  0  0  0  0  0
  1  2  1  0  0  0  0
  2  3  1  0  0  0  0
  2  4  1  0  0  0  0
  2  5  1  0  0  0  0
  5  6  2  0  0  0  0
  5  7  1  0  0  0  0
  7  8  1  0  0  0  0
  7  9  1  0  0  0  0
  9 10  1  0  0  0  0
  9 11  1  0  0  0  0
  9 22  1  0  0  0  0
 11 12  1  0  0  0  0
 11 13  1  0  0  0  0
 11 14  1  0  0  0  0
 14 15  1  0  0  0  0
 14 16  1  0  0  0  0
 14 17  1  0  0  0  0
 17 18  1  0  0  0  0
 18 19  1  0  0  0  0
 18 20  1  0  0  0  0
 18 21  1  0  0  0  0
 22 23  2  0  0  0  0
 22 24  1  0  0  0  0
 24 25  1  0  0  0  0
 24 26  1  0  0  0  0
 26 27  1  0  0  0  0
 26 28  1  0  0  0  0
 26 29  1  0  0  0  0
M  END
$$$$

  -OEChem-01062216093D

 29 28  0     1  0  0  0  0  0999 V2000
   -3.6610   -2.0695    1.6746 H   0  0  0  0  0  0  0  0  0  0  0  0
   -2.5801   -2.0834    1.5153 C   0  0  0  0  0  0  0  0  0  0  0  0
   -2.1248   -1.3395    2.1725 H   0  0  0  0  0  0  0  0  0  0  0  0
   -2.1971   -3.0732    1.7753 H   0  0  0  0  0  0  0  0  0  0  0  0
   -2.2763   -1.7683    0.0596 C   0  0  0  0  0  0  0  0  0  0  0  0
   -2.7486   -2.4618   -0.8205 O   0  0  0  0  0  0  0  0  0  0  0  0
   -1.9648   -0.5011   -0.3558 N   0  0  0  0  0  0  0  0  0  0  0  0
   -2.2334   -0.4628   -1.3367 H   0  0  0  0  0  0  0  0  0  0  0  0
   -0.6986    0.2299   -0.0958 C   0  0  1  0  0  0  0  0  0  0  0  0
   -0.8179    0.8242    0.8156 H   0  0  0  0  0  0  0  0  0  0  0  0
    0.5918   -0.6447    0.0367 C   0  0  0  0  0  0  0  0  0  0  0  0
    0.6920   -1.2349   -0.8804 H   0  0  0  0  0  0  0  0  0  0  0  0
    1.4650    0.0124    0.0861 H   0  0  0  0  0  0  0  0  0  0  0  0
    0.7116   -1.6049    1.2272 C   0  0  0  0  0  0  0  0  0  0  0  0
    1.6730   -2.1240    1.1565 H   0  0  0  0  0  0  0  0  0  0  0  0
   -0.0496   -2.3813    1.2004 H   0  0  0  0  0  0  0  0  0  0  0  0
    0.6640   -0.6959    2.8261 S   0  0  0  0  0  0  0  0  0  0  0  0
    2.2545    0.2247    2.8351 C   0  0  0  0  0  0  0  0  0  0  0  0
    2.2668    0.9795    2.0433 H   0  0  0  0  0  0  0  0  0  0  0  0
    2.3879    0.7299    3.7963 H   0  0  0  0  0  0  0  0  0  0  0  0
    3.0921   -0.4621    2.6814 H   0  0  0  0  0  0  0  0  0  0  0  0
   -0.4396    1.2154   -1.2739 C   0  0  0  0  0  0  0  0  0  0  0  0
    0.6525    1.7421   -1.4448 O   0  0  0  0  0  0  0  0  0  0  0  0
   -1.4539    1.5300   -2.1654 N   0  0  0  0  0  0  0  0  0  0  0  0
   -2.3975    1.2667   -1.8969 H   0  0  0  0  0  0  0  0  0  0  0  0
   -1.2883    2.4908   -3.2509 C   0  0  0  0  0  0  0  0  0  0  0  0
   -0.4898    2.1695   -3.9281 H   0  0  0  0  0  0  0  0  0  0  0  0
   -2.2144    2.5742   -3.8277 H   0  0  0  0  0  0  0  0  0  0  0  0
   -1.0366    3.4799   -2.8541 H   0  0  0  0  0  0  0  0  0  0  0  0
  1  2  1  0  0  0  0
  2  3  1  0  0  0  0
  2  4  1  0  0  0  0
  2  5  1  0  0  0  0
  5  6  2  0  0  0  0
  5  7  1  0  0  0  0
  7  8  1  0  0  0  0
  7  9  1  0  0  0  0
  9 10  1  0  0  0  0
  9 11  1  0  0  0  0
  9 22  1  0  0  0  0
 11 12  1  0  0  0  0
 11 13  1  0  0  0  0
 11 14  1  0  0  0  0
 14 15  1  0  0  0  0
 14 16  1  0  0  0  0
 14 17  1  0  0  0  0
 17 18  1  0  0  0  0
 18 19  1  0  0  0  0
 18 20  1  0  0  0  0
 18 21  1  0  0  0  0
 22 23  2  0  0  0  0
 22 24  1  0  0  0  0
 24 25  1  0  0  0  0
 24 26  1  0  0  0  0
 26 27  1  0  0  0  0
 26 28  1  0  0  0  0
 26 29  1  0  0  0  0
M  END
$$$$

  -OEChem-01062216093D

 29 28  0     1  0  0  0  0  0999 V2000
   -3.6574   -2.0561    1.6328 H   0  0  0  0  0  0  0  0  0  0  0  0
   -2.5765   -2.0715    1.4717 C   0  0  0  0  0  0  0  0  0  0  0  0
   -2.1181   -1.3390    2.1394 H   0  0  0  0  0  0  0  0  0  0  0  0
   -2.1971   -3.0666    1.7161 H   0  0  0  0  0  0  0  0  0  0  0  0
   -2.2741   -1.7358    0.0203 C   0  0  0  0  0  0  0  0  0  0  0  0
   -2.7773   -2.3993   -0.8658 O   0  0  0  0  0  0  0  0  0  0  0  0
   -1.9380   -0.4671   -0.3726 N   0  0  0  0  0  0  0  0  0  0  0  0
   -2.2208   -0.3876   -1.3484 H   0  0  0  0  0  0  0  0  0  0  0  0
   -0.6637    0.2433   -0.0986 C   0  0  1  0  0  0  0  0  0  0  0  0
   -0.7818    0.8343    0.8147 H   0  0  0  0  0  0  0  0  0  0  0  0
    0.6182   -0.6415    0.0422 C   0  0  0  0  0  0  0  0  0  0  0  0
    0.7236   -1.2288   -0.8763 H   0  0  0  0  0  0  0  0  0  0  0  0
    1.4934    0.0121    0.1036 H   0  0  0  0  0  0  0  0  0  0  0  0
    0.7182   -1.6063    1.2300 C   0  0  0  0  0  0  0  0  0  0  0  0
    1.6752   -2.1342    1.1666 H   0  0  0  0  0  0  0  0  0  0  0  0
   -0.0502   -2.3747    1.1908 H   0  0  0  0  0  0  0  0  0  0  0  0
    0.6628   -0.7049    2.8333 S   0  0  0  0  0  0  0  0  0  0  0  0
    2.2605    0.2029    2.8648 C   0  0  0  0  0  0  0  0  0  0  0  0
    2.2891    0.9600    2.0758 H   0  0  0  0  0  0  0  0  0  0  0  0
    2.3863    0.7039    3.8291 H   0  0  0  0  0  0  0  0  0  0  0  0
    3.0945   -0.4902    2.7198 H   0  0  0  0  0  0  0  0  0  0  0  0
   -0.4131    1.2327   -1.2751 C   0  0  0  0  0  0  0  0  0  0  0  0
    0.7095    1.5565   -1.6416 O   0  0  0  0  0  0  0  0  0  0  0  0
   -1.4945    1.7813   -1.9454 N   0  0  0  0  0  0  0  0  0  0  0  0
   -2.4150    1.6185   -1.5461 H   0  0  0  0  0  0  0  0  0  0  0  0
   -1.3614    2.7504   -3.0276 C   0  0  0  0  0  0  0  0  0  0  0  0
   -0.7933    2.3203   -3.8593 H   0  0  0  0  0  0  0  0  0  0  0  0
   -2.3489    3.0403   -3.3994 H   0  0  0  0  0  0  0  0  0  0  0  0
   -0.8450    3.6502   -2.6768 H   0  0  0  0  0  0  0  0  0  0  0  0
  1  2  1  0  0  0  0
  2  3  1  0  0  0  0
  2  4  1  0  0  0  0
  2  5  1  0  0  0  0
  5  6  2  0  0  0  0
  5  7  1  0  0  0  0
  7  8  1  0  0  0  0
  7  9  1  0  0  0  0
  9 10  1  0  0  0  0
  9 11  1  0  0  0  0
  9 22  1  0  0  0  0
 11 12  1  0  0  0  0
 11 13  1  0  0  0  0
 11 14  1  0  0  0  0
 14 15  1  0  0  0  0
 14 16  1  0  0  0  0
 14 17  1  0  0  0  0
 17 18  1  0  0  0  0
 18 19  1  0  0  0  0
 18 20  1  0  0  0  0
 18 21  1  0  0  0  0
 22 23  2  0  0  0  0
 22 24  1  0  0  0  0
 24 25  1  0  0  0  0
 24 26  1  0  0  0  0
 26 27  1  0  0  0  0
 26 28  1  0  0  0  0
 26 29  1  0  0  0  0
M  END
$$$$

  -OEChem-01062216093D

 29 28  0     1  0  0  0  0  0999 V2000
   -3.6535   -2.0346    1.6181 H   0  0  0  0  0  0  0  0  0  0  0  0
   -2.5739   -2.0519    1.4495 C   0  0  0  0  0  0  0  0  0  0  0  0
   -2.1086   -1.3292    2.1229 H   0  0  0  0  0  0  0  0  0  0  0  0
   -2.1974   -3.0516    1.6792 H   0  0  0  0  0  0  0  0  0  0  0  0
   -2.2795   -1.7003    0.0001 C   0  0  0  0  0  0  0  0  0  0  0  0
   -2.8086   -2.3405   -0.8880 O   0  0  0  0  0  0  0  0  0  0  0  0
   -1.9212   -0.4331   -0.3789 N   0  0  0  0  0  0  0  0  0  0  0  0
   -2.2184   -0.3232   -1.3479 H   0  0  0  0  0  0  0  0  0  0  0  0
   -0.6386    0.2570   -0.0981 C   0  0  1  0  0  0  0  0  0  0  0  0
   -0.7498    0.8451    0.8180 H   0  0  0  0  0  0  0  0  0  0  0  0
    0.6354   -0.6375    0.0429 C   0  0  0  0  0  0  0  0  0  0  0  0
    0.7385   -1.2254   -0.8756 H   0  0  0  0  0  0  0  0  0  0  0  0
    1.5132    0.0133    0.1041 H   0  0  0  0  0  0  0  0  0  0  0  0
    0.7226   -1.6067    1.2275 C   0  0  0  0  0  0  0  0  0  0  0  0
    1.6750   -2.1431    1.1660 H   0  0  0  0  0  0  0  0  0  0  0  0
   -0.0527   -2.3676    1.1813 H   0  0  0  0  0  0  0  0  0  0  0  0
    0.6686   -0.7108    2.8339 S   0  0  0  0  0  0  0  0  0  0  0  0
    2.2741    0.1822    2.8729 C   0  0  0  0  0  0  0  0  0  0  0  0
    2.3109    0.9431    2.0882 H   0  0  0  0  0  0  0  0  0  0  0  0
    2.4031    0.6765    3.8404 H   0  0  0  0  0  0  0  0  0  0  0  0
    3.1016   -0.5181    2.7249 H   0  0  0  0  0  0  0  0  0  0  0  0
   -0.3894    1.2465   -1.2720 C   0  0  0  0  0  0  0  0  0  0  0  0
    0.6919    1.3640   -1.8349 O   0  0  0  0  0  0  0  0  0  0  0  0
   -1.4408    2.0310   -1.7137 N   0  0  0  0  0  0  0  0  0  0  0  0
   -2.3201    1.9571   -1.2086 H   0  0  0  0  0  0  0  0  0  0  0  0
   -1.3287    2.9936   -2.8039 C   0  0  0  0  0  0  0  0  0  0  0  0
   -1.0547    2.4870   -3.7354 H   0  0  0  0  0  0  0  0  0  0  0  0
   -2.2838    3.5051   -2.9575 H   0  0  0  0  0  0  0  0  0  0  0  0
   -0.5665    3.7459   -2.5751 H   0  0  0  0  0  0  0  0  0  0  0  0
  1  2  1  0  0  0  0
  2  3  1  0  0  0  0
  2  4  1  0  0  0  0
  2  5  1  0  0  0  0
  5  6  2  0  0  0  0
  5  7  1  0  0  0  0
  7  8  1  0  0  0  0
  7  9  1  0  0  0  0
  9 10  1  0  0  0  0
  9 11  1  0  0  0  0
  9 22  1  0  0  0  0
 11 12  1  0  0  0  0
 11 13  1  0  0  0  0
 11 14  1  0  0  0  0
 14 15  1  0  0  0  0
 14 16  1  0  0  0  0
 14 17  1  0  0  0  0
 17 18  1  0  0  0  0
 18 19  1  0  0  0  0
 18 20  1  0  0  0  0
 18 21  1  0  0  0  0
 22 23  2  0  0  0  0
 22 24  1  0  0  0  0
 24 25  1  0  0  0  0
 24 26  1  0  0  0  0
 26 27  1  0  0  0  0
 26 28  1  0  0  0  0
 26 29  1  0  0  0  0
M  END
$$$$

  -OEChem-01062216093D

 29 28  0     1  0  0  0  0  0999 V2000
   -3.6725   -1.9984    1.5864 H   0  0  0  0  0  0  0  0  0  0  0  0
   -2.5924   -2.0243    1.4214 C   0  0  0  0  0  0  0  0  0  0  0  0
   -2.1231   -1.3079    2.0987 H   0  0  0  0  0  0  0  0  0  0  0  0
   -2.2252   -3.0280    1.6487 H   0  0  0  0  0  0  0  0  0  0  0  0
   -2.2907   -1.6704   -0.0258 C   0  0  0  0  0  0  0  0  0  0  0  0
   -2.8318   -2.2980   -0.9159 O   0  0  0  0  0  0  0  0  0  0  0  0
   -1.9120   -0.4062   -0.3955 N   0  0  0  0  0  0  0  0  0  0  0  0
   -2.2084   -0.2791   -1.3627 H   0  0  0  0  0  0  0  0  0  0  0  0
   -0.6231    0.2636   -0.1026 C   0  0  1  0  0  0  0  0  0  0  0  0
   -0.7333    0.8476    0.8161 H   0  0  0  0  0  0  0  0  0  0  0  0
    0.6408   -0.6427    0.0459 C   0  0  0  0  0  0  0  0  0  0  0  0
    0.7402   -1.2350   -0.8705 H   0  0  0  0  0  0  0  0  0  0  0  0
    1.5234    0.0019    0.1048 H   0  0  0  0  0  0  0  0  0  0  0  0
    0.7105   -1.6157    1.2284 C   0  0  0  0  0  0  0  0  0  0  0  0
    1.6577   -2.1621    1.1720 H   0  0  0  0  0  0  0  0  0  0  0  0
   -0.0729   -2.3677    1.1746 H   0  0  0  0  0  0  0  0  0  0  0  0
    0.6532   -0.7234    2.8370 S   0  0  0  0  0  0  0  0  0  0  0  0
    2.2667    0.1546    2.8901 C   0  0  0  0  0  0  0  0  0  0  0  0
    2.3192    0.9122    2.1030 H   0  0  0  0  0  0  0  0  0  0  0  0
    2.3899    0.6508    3.8574 H   0  0  0  0  0  0  0  0  0  0  0  0
    3.0894   -0.5538    2.7538 H   0  0  0  0  0  0  0  0  0  0  0  0
   -0.3533    1.2539   -1.2681 C   0  0  0  0  0  0  0  0  0  0  0  0
    0.6241    1.1784   -2.0020 O   0  0  0  0  0  0  0  0  0  0  0  0
   -1.2727    2.2605   -1.5025 N   0  0  0  0  0  0  0  0  0  0  0  0
   -2.0947    2.2890   -0.9052 H   0  0  0  0  0  0  0  0  0  0  0  0
   -1.1538    3.2259   -2.5893 C   0  0  0  0  0  0  0  0  0  0  0  0
   -1.1837    2.7173   -3.5587 H   0  0  0  0  0  0  0  0  0  0  0  0
   -1.9788    3.9437   -2.5493 H   0  0  0  0  0  0  0  0  0  0  0  0
   -0.2119    3.7791   -2.5108 H   0  0  0  0  0  0  0  0  0  0  0  0
  1  2  1  0  0  0  0
  2  3  1  0  0  0  0
  2  4  1  0  0  0  0
  2  5  1  0  0  0  0
  5  6  2  0  0  0  0
  5  7  1  0  0  0  0
  7  8  1  0  0  0  0
  7  9  1  0  0  0  0
  9 10  1  0  0  0  0
  9 11  1  0  0  0  0
  9 22  1  0  0  0  0
 11 12  1  0  0  0  0
 11 13  1  0  0  0  0
 11 14  1  0  0  0  0
 14 15  1  0  0  0  0
 14 16  1  0  0  0  0
 14 17  1  0  0  0  0
 17 18  1  0  0  0  0
 18 19  1  0  0  0  0
 18 20  1  0  0  0  0
 18 21  1  0  0  0  0
 22 23  2  0  0  0  0
 22 24  1  0  0  0  0
 24 25  1  0  0  0  0
 24 26  1  0  0  0  0
 26 27  1  0  0  0  0
 26 28  1  0  0  0  0
 26 29  1  0  0  0  0
M  END
$$$$

  -OEChem-01062216093D

 29 28  0     1  0  0  0  0  0999 V2000
   -3.6694   -1.9923    1.5893 H   0  0  0  0  0  0  0  0  0  0  0  0
   -2.5900   -2.0165    1.4198 C   0  0  0  0  0  0  0  0  0  0  0  0
   -2.1194   -1.2988    2.0948 H   0  0  0  0  0  0  0  0  0  0  0  0
   -2.2203   -3.0195    1.6459 H   0  0  0  0  0  0  0  0  0  0  0  0
   -2.2952   -1.6627   -0.0290 C   0  0  0  0  0  0  0  0  0  0  0  0
   -2.8421   -2.2908   -0.9150 O   0  0  0  0  0  0  0  0  0  0  0  0
   -1.9115   -0.4002   -0.4000 N   0  0  0  0  0  0  0  0  0  0  0  0
   -2.2058   -0.2718   -1.3679 H   0  0  0  0  0  0  0  0  0  0  0  0
   -0.6219    0.2649   -0.1060 C   0  0  1  0  0  0  0  0  0  0  0  0
   -0.7314    0.8453    0.8150 H   0  0  0  0  0  0  0  0  0  0  0  0
    0.6430   -0.6390    0.0400 C   0  0  0  0  0  0  0  0  0  0  0  0
    0.7403   -1.2349   -0.8745 H   0  0  0  0  0  0  0  0  0  0  0  0
    1.5240    0.0084    0.0923 H   0  0  0  0  0  0  0  0  0  0  0  0
    0.7140   -1.6138    1.2205 C   0  0  0  0  0  0  0  0  0  0  0  0
    1.6617   -2.1590    1.1637 H   0  0  0  0  0  0  0  0  0  0  0  0
   -0.0693   -2.3664    1.1650 H   0  0  0  0  0  0  0  0  0  0  0  0
    0.6554   -0.7219    2.8292 S   0  0  0  0  0  0  0  0  0  0  0  0
    2.2678    0.1581    2.8825 C   0  0  0  0  0  0  0  0  0  0  0  0
    2.3201    0.9147    2.0944 H   0  0  0  0  0  0  0  0  0  0  0  0
    2.3897    0.6560    3.8491 H   0  0  0  0  0  0  0  0  0  0  0  0
    3.0908   -0.5500    2.7478 H   0  0  0  0  0  0  0  0  0  0  0  0
   -0.3393    1.2536   -1.2669 C   0  0  0  0  0  0  0  0  0  0  0  0
    0.4649    1.0163   -2.1591 O   0  0  0  0  0  0  0  0  0  0  0  0
   -1.0550    2.4354   -1.3215 N   0  0  0  0  0  0  0  0  0  0  0  0
   -1.7714    2.5800   -0.6152 H   0  0  0  0  0  0  0  0  0  0  0  0
   -0.9233    3.4058   -2.4023 C   0  0  0  0  0  0  0  0  0  0  0  0
   -1.2307    2.9623   -3.3551 H   0  0  0  0  0  0  0  0  0  0  0  0
   -1.5542    4.2781   -2.2065 H   0  0  0  0  0  0  0  0  0  0  0  0
    0.1146    3.7445   -2.4899 H   0  0  0  0  0  0  0  0  0  0  0  0
  1  2  1  0  0  0  0
  2  3  1  0  0  0  0
  2  4  1  0  0  0  0
  2  5  1  0  0  0  0
  5  6  2  0  0  0  0
  5  7  1  0  0  0  0
  7  8  1  0  0  0  0
  7  9  1  0  0  0  0
  9 10  1  0  0  0  0
  9 11  1  0  0  0  0
  9 22  1  0  0  0  0
 11 12  1  0  0  0  0
 11 13  1  0  0  0  0
 11 14  1  0  0  0  0
 14 15  1  0  0  0  0
 14 16  1  0  0  0  0
 14 17  1  0  0  0  0
 17 18  1  0  0  0  0
 18 19  1  0  0  0  0
 18 20  1  0  0  0  0
 18 21  1  0  0  0  0
 22 23  2  0  0  0  0
 22 24  1  0  0  0  0
 24 25  1  0  0  0  0
 24 26  1  0  0  0  0
 26 27  1  0  0  0  0
 26 28  1  0  0  0  0
 26 29  1  0  0  0  0
M  END
$$$$

  -OEChem-01062216093D

 29 28  0     1  0  0  0  0  0999 V2000
   -3.6756   -1.9829    1.5825 H   0  0  0  0  0  0  0  0  0  0  0  0
   -2.5960   -2.0036    1.4138 C   0  0  0  0  0  0  0  0  0  0  0  0
   -2.1286   -1.2815    2.0861 H   0  0  0  0  0  0  0  0  0  0  0  0
   -2.2233   -3.0045    1.6444 H   0  0  0  0  0  0  0  0  0  0  0  0
   -2.3021   -1.6545   -0.0365 C   0  0  0  0  0  0  0  0  0  0  0  0
   -2.8506   -2.2870   -0.9184 O   0  0  0  0  0  0  0  0  0  0  0  0
   -1.9100   -0.3953   -0.4112 N   0  0  0  0  0  0  0  0  0  0  0  0
   -2.1906   -0.2710   -1.3843 H   0  0  0  0  0  0  0  0  0  0  0  0
   -0.6211    0.2662   -0.1096 C   0  0  1  0  0  0  0  0  0  0  0  0
   -0.7353    0.8438    0.8123 H   0  0  0  0  0  0  0  0  0  0  0  0
    0.6444   -0.6346    0.0367 C   0  0  0  0  0  0  0  0  0  0  0  0
    0.7445   -1.2297   -0.8779 H   0  0  0  0  0  0  0  0  0  0  0  0
    1.5245    0.0138    0.0904 H   0  0  0  0  0  0  0  0  0  0  0  0
    0.7108   -1.6130    1.2140 C   0  0  0  0  0  0  0  0  0  0  0  0
    1.6582   -2.1590    1.1598 H   0  0  0  0  0  0  0  0  0  0  0  0
   -0.0736   -2.3641    1.1524 H   0  0  0  0  0  0  0  0  0  0  0  0
    0.6433   -0.7248    2.8245 S   0  0  0  0  0  0  0  0  0  0  0  0
    2.2539    0.1578    2.8898 C   0  0  0  0  0  0  0  0  0  0  0  0
    2.3086    0.9189    2.1064 H   0  0  0  0  0  0  0  0  0  0  0  0
    2.3707    0.6506    3.8597 H   0  0  0  0  0  0  0  0  0  0  0  0
    3.0791   -0.5480    2.7552 H   0  0  0  0  0  0  0  0  0  0  0  0
   -0.3157    1.2486   -1.2670 C   0  0  0  0  0  0  0  0  0  0  0  0
    0.2569    0.8898   -2.2875 O   0  0  0  0  0  0  0  0  0  0  0  0
   -0.7688    2.5522   -1.1835 N   0  0  0  0  0  0  0  0  0  0  0  0
   -1.3268    2.8026   -0.3722 H   0  0  0  0  0  0  0  0  0  0  0  0
   -0.6174    3.5239   -2.2605 C   0  0  0  0  0  0  0  0  0  0  0  0
   -1.1570    3.1932   -3.1544 H   0  0  0  0  0  0  0  0  0  0  0  0
   -1.0184    4.4945   -1.9529 H   0  0  0  0  0  0  0  0  0  0  0  0
    0.4400    3.6531   -2.5149 H   0  0  0  0  0  0  0  0  0  0  0  0
  1  2  1  0  0  0  0
  2  3  1  0  0  0  0
  2  4  1  0  0  0  0
  2  5  1  0  0  0  0
  5  6  2  0  0  0  0
  5  7  1  0  0  0  0
  7  8  1  0  0  0  0
  7  9  1  0  0  0  0
  9 10  1  0  0  0  0
  9 11  1  0  0  0  0
  9 22  1  0  0  0  0
 11 12  1  0  0  0  0
 11 13  1  0  0  0  0
 11 14  1  0  0  0  0
 14 15  1  0  0  0  0
 14 16  1  0  0  0  0
 14 17  1  0  0  0  0
 17 18  1  0  0  0  0
 18 19  1  0  0  0  0
 18 20  1  0  0  0  0
 18 21  1  0  0  0  0
 22 23  2  0  0  0  0
 22 24  1  0  0  0  0
 24 25  1  0  0  0  0
 24 26  1  0  0  0  0
 26 27  1  0  0  0  0
 26 28  1  0  0  0  0
 26 29  1  0  0  0  0
M  END
$$$$

  -OEChem-01062216093D

 29 28  0     1  0  0  0  0  0999 V2000
   -3.6740   -1.9706    1.5773 H   0  0  0  0  0  0  0  0  0  0  0  0
   -2.5940   -1.9871    1.4103 C   0  0  0  0  0  0  0  0  0  0  0  0
   -2.1314   -1.2577    2.0781 H   0  0  0  0  0  0  0  0  0  0  0  0
   -2.2159   -2.9841    1.6485 H   0  0  0  0  0  0  0  0  0  0  0  0
   -2.3000   -1.6466   -0.0419 C   0  0  0  0  0  0  0  0  0  0  0  0
   -2.8358   -2.2940   -0.9209 O   0  0  0  0  0  0  0  0  0  0  0  0
   -1.9075   -0.3889   -0.4209 N   0  0  0  0  0  0  0  0  0  0  0  0
   -2.1680   -0.2734   -1.4013 H   0  0  0  0  0  0  0  0  0  0  0  0
   -0.6224    0.2729   -0.1081 C   0  0  1  0  0  0  0  0  0  0  0  0
   -0.7426    0.8457    0.8163 H   0  0  0  0  0  0  0  0  0  0  0  0
    0.6467   -0.6228    0.0250 C   0  0  0  0  0  0  0  0  0  0  0  0
    0.7514   -1.2019   -0.8997 H   0  0  0  0  0  0  0  0  0  0  0  0
    1.5235    0.0288    0.0911 H   0  0  0  0  0  0  0  0  0  0  0  0
    0.7161   -1.6191    1.1872 C   0  0  0  0  0  0  0  0  0  0  0  0
    1.6655   -2.1609    1.1256 H   0  0  0  0  0  0  0  0  0  0  0  0
   -0.0657   -2.3725    1.1124 H   0  0  0  0  0  0  0  0  0  0  0  0
    0.6425   -0.7575    2.8119 S   0  0  0  0  0  0  0  0  0  0  0  0
    2.2478    0.1329    2.8980 C   0  0  0  0  0  0  0  0  0  0  0  0
    2.3021    0.9047    2.1251 H   0  0  0  0  0  0  0  0  0  0  0  0
    2.3565    0.6124    3.8756 H   0  0  0  0  0  0  0  0  0  0  0  0
    3.0777   -0.5664    2.7586 H   0  0  0  0  0  0  0  0  0  0  0  0
   -0.3014    1.2491   -1.2639 C   0  0  0  0  0  0  0  0  0  0  0  0
    0.0058    0.8343   -2.3737 O   0  0  0  0  0  0  0  0  0  0  0  0
   -0.4637    2.6101   -1.0808 N   0  0  0  0  0  0  0  0  0  0  0  0
   -0.8236    2.9243   -0.1842 H   0  0  0  0  0  0  0  0  0  0  0  0
   -0.2977    3.5852   -2.1525 C   0  0  0  0  0  0  0  0  0  0  0  0
   -1.0249    3.4043   -2.9511 H   0  0  0  0  0  0  0  0  0  0  0  0
   -0.4497    4.5986   -1.7686 H   0  0  0  0  0  0  0  0  0  0  0  0
    0.7111    3.5242   -2.5743 H   0  0  0  0  0  0  0  0  0  0  0  0
  1  2  1  0  0  0  0
  2  3  1  0  0  0  0
  2  4  1  0  0  0  0
  2  5  1  0  0  0  0
  5  6  2  0  0  0  0
  5  7  1  0  0  0  0
  7  8  1  0  0  0  0
  7  9  1  0  0  0  0
  9 10  1  0  0  0  0
  9 11  1  0  0  0  0
  9 22  1  0  0  0  0
 11 12  1  0  0  0  0
 11 13  1  0  0  0  0
 11 14  1  0  0  0  0
 14 15  1  0  0  0  0
 14 16  1  0  0  0  0
 14 17  1  0  0  0  0
 17 18  1  0  0  0  0
 18 19  1  0  0  0  0
 18 20  1  0  0  0  0
 18 21  1  0  0  0  0
 22 23  2  0  0  0  0
 22 24  1  0  0  0  0
 24 25  1  0  0  0  0
 24 26  1  0  0  0  0
 26 27  1  0  0  0  0
 26 28  1  0  0  0  0
 26 29  1  0  0  0  0
M  END
$$$$

  -OEChem-01062216093D

 29 28  0     1  0  0  0  0  0999 V2000
   -3.6621   -1.9792    1.5889 H   0  0  0  0  0  0  0  0  0  0  0  0
   -2.5811   -1.9845    1.4286 C   0  0  0  0  0  0  0  0  0  0  0  0
   -2.1333   -1.2323    2.0808 H   0  0  0  0  0  0  0  0  0  0  0  0
   -2.1897   -2.9694    1.6940 H   0  0  0  0  0  0  0  0  0  0  0  0
   -2.2840   -1.6754   -0.0300 C   0  0  0  0  0  0  0  0  0  0  0  0
   -2.7986   -2.3575   -0.8955 O   0  0  0  0  0  0  0  0  0  0  0  0
   -1.9006   -0.4229   -0.4352 N   0  0  0  0  0  0  0  0  0  0  0  0
   -2.1434   -0.3307   -1.4235 H   0  0  0  0  0  0  0  0  0  0  0  0
   -0.6284    0.2612   -0.1199 C   0  0  1  0  0  0  0  0  0  0  0  0
   -0.7667    0.8488    0.7924 H   0  0  0  0  0  0  0  0  0  0  0  0
    0.6513   -0.6136    0.0308 C   0  0  0  0  0  0  0  0  0  0  0  0
    0.7699   -1.1981   -0.8887 H   0  0  0  0  0  0  0  0  0  0  0  0
    1.5189    0.0503    0.0978 H   0  0  0  0  0  0  0  0  0  0  0  0
    0.7254   -1.5969    1.2035 C   0  0  0  0  0  0  0  0  0  0  0  0
    1.6821   -2.1269    1.1555 H   0  0  0  0  0  0  0  0  0  0  0  0
   -0.0463   -2.3610    1.1310 H   0  0  0  0  0  0  0  0  0  0  0  0
    0.6266   -0.7161    2.8168 S   0  0  0  0  0  0  0  0  0  0  0  0
    2.2188    0.1969    2.9026 C   0  0  0  0  0  0  0  0  0  0  0  0
    2.2678    0.9613    2.1221 H   0  0  0  0  0  0  0  0  0  0  0  0
    2.3145    0.6885    3.8754 H   0  0  0  0  0  0  0  0  0  0  0  0
    3.0588   -0.4925    2.7754 H   0  0  0  0  0  0  0  0  0  0  0  0
   -0.2940    1.2134   -1.2900 C   0  0  0  0  0  0  0  0  0  0  0  0
   -0.2229    0.7888   -2.4357 O   0  0  0  0  0  0  0  0  0  0  0  0
   -0.1677    2.5722   -1.0659 N   0  0  0  0  0  0  0  0  0  0  0  0
   -0.3271    2.9115   -0.1219 H   0  0  0  0  0  0  0  0  0  0  0  0
    0.0415    3.5409   -2.1356 C   0  0  0  0  0  0  0  0  0  0  0  0
   -0.8073    3.5369   -2.8277 H   0  0  0  0  0  0  0  0  0  0  0  0
    0.1450    4.5476   -1.7194 H   0  0  0  0  0  0  0  0  0  0  0  0
    0.9527    3.3043   -2.6953 H   0  0  0  0  0  0  0  0  0  0  0  0
  1  2  1  0  0  0  0
  2  3  1  0  0  0  0
  2  4  1  0  0  0  0
  2  5  1  0  0  0  0
  5  6  2  0  0  0  0
  5  7  1  0  0  0  0
  7  8  1  0  0  0  0
  7  9  1  0  0  0  0
  9 10  1  0  0  0  0
  9 11  1  0  0  0  0
  9 22  1  0  0  0  0
 11 12  1  0  0  0  0
 11 13  1  0  0  0  0
 11 14  1  0  0  0  0
 14 15  1  0  0  0  0
 14 16  1  0  0  0  0
 14 17  1  0  0  0  0
 17 18  1  0  0  0  0
 18 19  1  0  0  0  0
 18 20  1  0  0  0  0
 18 21  1  0  0  0  0
 22 23  2  0  0  0  0
 22 24  1  0  0  0  0
 24 25  1  0  0  0  0
 24 26  1  0  0  0  0
 26 27  1  0  0  0  0
 26 28  1  0  0  0  0
 26 29  1  0  0  0  0
M  END
$$$$

  -OEChem-01062216093D

 29 28  0     1  0  0  0  0  0999 V2000
   -3.6722   -1.9593    1.5933 H   0  0  0  0  0  0  0  0  0  0  0  0
   -2.5909   -1.9676    1.4350 C   0  0  0  0  0  0  0  0  0  0  0  0
   -2.1430   -1.2079    2.0784 H   0  0  0  0  0  0  0  0  0  0  0  0
   -2.2016   -2.9499    1.7126 H   0  0  0  0  0  0  0  0  0  0  0  0
   -2.2905   -1.6757   -0.0264 C   0  0  0  0  0  0  0  0  0  0  0  0
   -2.7905   -2.3764   -0.8855 O   0  0  0  0  0  0  0  0  0  0  0  0
   -1.9046   -0.4277   -0.4434 N   0  0  0  0  0  0  0  0  0  0  0  0
   -2.1413   -0.3396   -1.4345 H   0  0  0  0  0  0  0  0  0  0  0  0
   -0.6343    0.2609   -0.1297 C   0  0  1  0  0  0  0  0  0  0  0  0
   -0.7748    0.8550    0.7779 H   0  0  0  0  0  0  0  0  0  0  0  0
    0.6438   -0.6163    0.0192 C   0  0  0  0  0  0  0  0  0  0  0  0
    0.7586   -1.1994   -0.9018 H   0  0  0  0  0  0  0  0  0  0  0  0
    1.5136    0.0447    0.0855 H   0  0  0  0  0  0  0  0  0  0  0  0
    0.7184   -1.6003    1.1917 C   0  0  0  0  0  0  0  0  0  0  0  0
    1.6745   -2.1314    1.1423 H   0  0  0  0  0  0  0  0  0  0  0  0
   -0.0544   -2.3636    1.1205 H   0  0  0  0  0  0  0  0  0  0  0  0
    0.6244   -0.7212    2.8059 S   0  0  0  0  0  0  0  0  0  0  0  0
    2.2180    0.1896    2.8918 C   0  0  0  0  0  0  0  0  0  0  0  0
    2.2679    0.9543    2.1119 H   0  0  0  0  0  0  0  0  0  0  0  0
    2.3151    0.6802    3.8649 H   0  0  0  0  0  0  0  0  0  0  0  0
    3.0571   -0.5008    2.7641 H   0  0  0  0  0  0  0  0  0  0  0  0
   -0.2899    1.2015   -1.3063 C   0  0  0  0  0  0  0  0  0  0  0  0
   -0.4495    0.8313   -2.4623 O   0  0  0  0  0  0  0  0  0  0  0  0
    0.1386    2.4939   -1.0633 N   0  0  0  0  0  0  0  0  0  0  0  0
    0.1835    2.8030   -0.0968 H   0  0  0  0  0  0  0  0  0  0  0  0
    0.3955    3.4607   -2.1243 C   0  0  0  0  0  0  0  0  0  0  0  0
   -0.5216    3.6644   -2.6872 H   0  0  0  0  0  0  0  0  0  0  0  0
    0.7574    4.4018   -1.6991 H   0  0  0  0  0  0  0  0  0  0  0  0
    1.1555    3.0800   -2.8150 H   0  0  0  0  0  0  0  0  0  0  0  0
  1  2  1  0  0  0  0
  2  3  1  0  0  0  0
  2  4  1  0  0  0  0
  2  5  1  0  0  0  0
  5  6  2  0  0  0  0
  5  7  1  0  0  0  0
  7  8  1  0  0  0  0
  7  9  1  0  0  0  0
  9 10  1  0  0  0  0
  9 11  1  0  0  0  0
  9 22  1  0  0  0  0
 11 12  1  0  0  0  0
 11 13  1  0  0  0  0
 11 14  1  0  0  0  0
 14 15  1  0  0  0  0
 14 16  1  0  0  0  0
 14 17  1  0  0  0  0
 17 18  1  0  0  0  0
 18 19  1  0  0  0  0
 18 20  1  0  0  0  0
 18 21  1  0  0  0  0
 22 23  2  0  0  0  0
 22 24  1  0  0  0  0
 24 25  1  0  0  0  0
 24 26  1  0  0  0  0
 26 27  1  0  0  0  0
 26 28  1  0  0  0  0
 26 29  1  0  0  0  0
M  END
$$$$

  -OEChem-01062216093D

 29 28  0     1  0  0  0  0  0999 V2000
   -3.6663   -1.9754    1.6112 H   0  0  0  0  0  0  0  0  0  0  0  0
   -2.5851   -1.9740    1.4517 C   0  0  0  0  0  0  0  0  0  0  0  0
   -2.1447   -1.2029    2.0868 H   0  0  0  0  0  0  0  0  0  0  0  0
   -2.1849   -2.9492    1.7391 H   0  0  0  0  0  0  0  0  0  0  0  0
   -2.2894   -1.6938   -0.0128 C   0  0  0  0  0  0  0  0  0  0  0  0
   -2.7844   -2.4080   -0.8640 O   0  0  0  0  0  0  0  0  0  0  0  0
   -1.9091   -0.4480   -0.4411 N   0  0  0  0  0  0  0  0  0  0  0  0
   -2.1596   -0.3549   -1.4290 H   0  0  0  0  0  0  0  0  0  0  0  0
   -0.6436    0.2554   -0.1390 C   0  0  1  0  0  0  0  0  0  0  0  0
   -0.7847    0.8588    0.7628 H   0  0  0  0  0  0  0  0  0  0  0  0
    0.6372   -0.6188    0.0095 C   0  0  0  0  0  0  0  0  0  0  0  0
    0.7481   -1.2066   -0.9090 H   0  0  0  0  0  0  0  0  0  0  0  0
    1.5078    0.0416    0.0686 H   0  0  0  0  0  0  0  0  0  0  0  0
    0.7200   -1.5944    1.1886 C   0  0  0  0  0  0  0  0  0  0  0  0
    1.6764   -2.1245    1.1375 H   0  0  0  0  0  0  0  0  0  0  0  0
   -0.0516   -2.3596    1.1282 H   0  0  0  0  0  0  0  0  0  0  0  0
    0.6334   -0.7037    2.7966 S   0  0  0  0  0  0  0  0  0  0  0  0
    2.2266    0.2093    2.8647 C   0  0  0  0  0  0  0  0  0  0  0  0
    2.2694    0.9693    2.0801 H   0  0  0  0  0  0  0  0  0  0  0  0
    2.3314    0.7053    3.8342 H   0  0  0  0  0  0  0  0  0  0  0  0
    3.0650   -0.4814    2.7341 H   0  0  0  0  0  0  0  0  0  0  0  0
   -0.3041    1.1886   -1.3249 C   0  0  0  0  0  0  0  0  0  0  0  0
   -0.6757    0.9139   -2.4592 O   0  0  0  0  0  0  0  0  0  0  0  0
    0.3995    2.3604   -1.1110 N   0  0  0  0  0  0  0  0  0  0  0  0
    0.6385    2.6000   -0.1535 H   0  0  0  0  0  0  0  0  0  0  0  0
    0.7028    3.3133   -2.1726 C   0  0  0  0  0  0  0  0  0  0  0  0
   -0.2205    3.7284   -2.5906 H   0  0  0  0  0  0  0  0  0  0  0  0
    1.3065    4.1374   -1.7807 H   0  0  0  0  0  0  0  0  0  0  0  0
    1.2653    2.8264   -2.9764 H   0  0  0  0  0  0  0  0  0  0  0  0
  1  2  1  0  0  0  0
  2  3  1  0  0  0  0
  2  4  1  0  0  0  0
  2  5  1  0  0  0  0
  5  6  2  0  0  0  0
  5  7  1  0  0  0  0
  7  8  1  0  0  0  0
  7  9  1  0  0  0  0
  9 10  1  0  0  0  0
  9 11  1  0  0  0  0
  9 22  1  0  0  0  0
 11 12  1  0  0  0  0
 11 13  1  0  0  0  0
 11 14  1  0  0  0  0
 14 15  1  0  0  0  0
 14 16  1  0  0  0  0
 14 17  1  0  0  0  0
 17 18  1  0  0  0  0
 18 19  1  0  0  0  0
 18 20  1  0  0  0  0
 18 21  1  0  0  0  0
 22 23  2  0  0  0  0
 22 24  1  0  0  0  0
 24 25  1  0  0  0  0
 24 26  1  0  0  0  0
 26 27  1  0  0  0  0
 26 28  1  0  0  0  0
 26 29  1  0  0  0  0
M  END
$$$$

  -OEChem-01062216093D

 29 28  0     1  0  0  0  0  0999 V2000
   -3.6716   -1.9860    1.5955 H   0  0  0  0  0  0  0  0  0  0  0  0
   -2.5898   -1.9912    1.4406 C   0  0  0  0  0  0  0  0  0  0  0  0
   -2.1466   -1.2267    2.0816 H   0  0  0  0  0  0  0  0  0  0  0  0
   -2.1976   -2.9706    1.7243 H   0  0  0  0  0  0  0  0  0  0  0  0
   -2.2870   -1.7062   -0.0217 C   0  0  0  0  0  0  0  0  0  0  0  0
   -2.7783   -2.4186   -0.8764 O   0  0  0  0  0  0  0  0  0  0  0  0
   -1.9033   -0.4596   -0.4454 N   0  0  0  0  0  0  0  0  0  0  0  0
   -2.1718   -0.3454   -1.4267 H   0  0  0  0  0  0  0  0  0  0  0  0
   -0.6413    0.2530   -0.1464 C   0  0  1  0  0  0  0  0  0  0  0  0
   -0.7825    0.8601    0.7528 H   0  0  0  0  0  0  0  0  0  0  0  0
    0.6366   -0.6281    0.0083 C   0  0  0  0  0  0  0  0  0  0  0  0
    0.7429   -1.2209   -0.9072 H   0  0  0  0  0  0  0  0  0  0  0  0
    1.5138    0.0225    0.0666 H   0  0  0  0  0  0  0  0  0  0  0  0
    0.7143   -1.5980    1.1927 C   0  0  0  0  0  0  0  0  0  0  0  0
    1.6688   -2.1323    1.1448 H   0  0  0  0  0  0  0  0  0  0  0  0
   -0.0595   -2.3609    1.1359 H   0  0  0  0  0  0  0  0  0  0  0  0
    0.6313   -0.6995    2.7965 S   0  0  0  0  0  0  0  0  0  0  0  0
    2.2271    0.2089    2.8672 C   0  0  0  0  0  0  0  0  0  0  0  0
    2.2744    0.9678    2.0817 H   0  0  0  0  0  0  0  0  0  0  0  0
    2.3304    0.7064    3.8364 H   0  0  0  0  0  0  0  0  0  0  0  0
    3.0640   -0.4846    2.7407 H   0  0  0  0  0  0  0  0  0  0  0  0
   -0.3086    1.1887   -1.3371 C   0  0  0  0  0  0  0  0  0  0  0  0
   -0.8743    1.0519   -2.4153 O   0  0  0  0  0  0  0  0  0  0  0  0
    0.6341    2.1937   -1.2031 N   0  0  0  0  0  0  0  0  0  0  0  0
    1.0471    2.3339   -0.2861 H   0  0  0  0  0  0  0  0  0  0  0  0
    0.9622    3.1289   -2.2734 C   0  0  0  0  0  0  0  0  0  0  0  0
    0.0876    3.7341   -2.5345 H   0  0  0  0  0  0  0  0  0  0  0  0
    1.7662    3.8002   -1.9564 H   0  0  0  0  0  0  0  0  0  0  0  0
    1.2962    2.5899   -3.1665 H   0  0  0  0  0  0  0  0  0  0  0  0
  1  2  1  0  0  0  0
  2  3  1  0  0  0  0
  2  4  1  0  0  0  0
  2  5  1  0  0  0  0
  5  6  2  0  0  0  0
  5  7  1  0  0  0  0
  7  8  1  0  0  0  0
  7  9  1  0  0  0  0
  9 10  1  0  0  0  0
  9 11  1  0  0  0  0
  9 22  1  0  0  0  0
 11 12  1  0  0  0  0
 11 13  1  0  0  0  0
 11 14  1  0  0  0  0
 14 15  1  0  0  0  0
 14 16  1  0  0  0  0
 14 17  1  0  0  0  0
 17 18  1  0  0  0  0
 18 19  1  0  0  0  0
 18 20  1  0  0  0  0
 18 21  1  0  0  0  0
 22 23  2  0  0  0  0
 22 24  1  0  0  0  0
 24 25  1  0  0  0  0
 24 26  1  0  0  0  0
 26 27  1  0  0  0  0
 26 28  1  0  0  0  0
 26 29  1  0  0  0  0
M  END
$$$$

  -OEChem-01062216093D

 29 28  0     1  0  0  0  0  0999 V2000
   -3.3940   -2.8621   -0.2928 H   0  0  0  0  0  0  0  0  0  0  0  0
   -2.4325   -2.5904    0.1505 C   0  0  0  0  0  0  0  0  0  0  0  0
   -2.1586   -3.3506    0.8859 H   0  0  0  0  0  0  0  0  0  0  0  0
   -1.6861   -2.5691   -0.6447 H   0  0  0  0  0  0  0  0  0  0  0  0
   -2.5531   -1.2310    0.8238 C   0  0  0  0  0  0  0  0  0  0  0  0
   -3.5139   -1.0389    1.5452 O   0  0  0  0  0  0  0  0  0  0  0  0
   -2.0381   -0.0840    0.2732 N   0  0  0  0  0  0  0  0  0  0  0  0
   -2.6896    0.6868    0.4192 H   0  0  0  0  0  0  0  0  0  0  0  0
   -0.6329    0.3680    0.1271 C   0  0  1  0  0  0  0  0  0  0  0  0
   -0.3678    0.8157    1.0895 H   0  0  0  0  0  0  0  0  0  0  0  0
    0.4558   -0.7025   -0.1669 C   0  0  0  0  0  0  0  0  0  0  0  0
    0.1687   -1.2418   -1.0746 H   0  0  0  0  0  0  0  0  0  0  0  0
    1.4058   -0.2090   -0.3845 H   0  0  0  0  0  0  0  0  0  0  0  0
    0.7235   -1.7234    0.9541 C   0  0  0  0  0  0  0  0  0  0  0  0
    1.4850   -2.4339    0.6168 H   0  0  0  0  0  0  0  0  0  0  0  0
   -0.1619   -2.3022    1.1998 H   0  0  0  0  0  0  0  0  0  0  0  0
    1.3106   -0.8991    2.4903 S   0  0  0  0  0  0  0  0  0  0  0  0
    2.9865   -0.2910    2.0475 C   0  0  0  0  0  0  0  0  0  0  0  0
    2.9255    0.4813    1.2763 H   0  0  0  0  0  0  0  0  0  0  0  0
    3.4716    0.1379    2.9296 H   0  0  0  0  0  0  0  0  0  0  0  0
    3.6033   -1.1151    1.6767 H   0  0  0  0  0  0  0  0  0  0  0  0
   -0.5420    1.5401   -0.8871 C   0  0  0  0  0  0  0  0  0  0  0  0
   -1.5526    2.0110   -1.3936 O   0  0  0  0  0  0  0  0  0  0  0  0
    0.6721    2.1335   -1.1906 N   0  0  0  0  0  0  0  0  0  0  0  0
    1.4974    1.7926   -0.7084 H   0  0  0  0  0  0  0  0  0  0  0  0
    0.8016    3.2829   -2.0796 C   0  0  0  0  0  0  0  0  0  0  0  0
    0.2277    4.1324   -1.6942 H   0  0  0  0  0  0  0  0  0  0  0  0
    1.8507    3.5833   -2.1611 H   0  0  0  0  0  0  0  0  0  0  0  0
    0.4345    3.0356   -3.0813 H   0  0  0  0  0  0  0  0  0  0  0  0
  1  2  1  0  0  0  0
  2  3  1  0  0  0  0
  2  4  1  0  0  0  0
  2  5  1  0  0  0  0
  5  6  2  0  0  0  0
  5  7  1  0  0  0  0
  7  8  1  0  0  0  0
  7  9  1  0  0  0  0
  9 10  1  0  0  0  0
  9 11  1  0  0  0  0
  9 22  1  0  0  0  0
 11 12  1  0  0  0  0
 11 13  1  0  0  0  0
 11 14  1  0  0  0  0
 14 15  1  0  0  0  0
 14 16  1  0  0  0  0
 14 17  1  0  0  0  0
 17 18  1  0  0  0  0
 18 19  1  0  0  0  0
 18 20  1  0  0  0  0
 18 21  1  0  0  0  0
 22 23  2  0  0  0  0
 22 24  1  0  0  0  0
 24 25  1  0  0  0  0
 24 26  1  0  0  0  0
 26 27  1  0  0  0  0
 26 28  1  0  0  0  0
 26 29  1  0  0  0  0
M  END
$$$$

  -OEChem-01062216093D

 29 28  0     1  0  0  0  0  0999 V2000
   -3.3947   -2.8342   -0.3029 H   0  0  0  0  0  0  0  0  0  0  0  0
   -2.4329   -2.5686    0.1435 C   0  0  0  0  0  0  0  0  0  0  0  0
   -2.1690   -3.3277    0.8835 H   0  0  0  0  0  0  0  0  0  0  0  0
   -1.6828   -2.5569   -0.6483 H   0  0  0  0  0  0  0  0  0  0  0  0
   -2.5465   -1.2055    0.8104 C   0  0  0  0  0  0  0  0  0  0  0  0
   -3.5135   -1.0015    1.5198 O   0  0  0  0  0  0  0  0  0  0  0  0
   -2.0102   -0.0662    0.2639 N   0  0  0  0  0  0  0  0  0  0  0  0
   -2.6444    0.7183    0.4182 H   0  0  0  0  0  0  0  0  0  0  0  0
   -0.5980    0.3631    0.1208 C   0  0  1  0  0  0  0  0  0  0  0  0
   -0.3292    0.8156    1.0801 H   0  0  0  0  0  0  0  0  0  0  0  0
    0.4788   -0.7261   -0.1522 C   0  0  0  0  0  0  0  0  0  0  0  0
    0.1951   -1.2715   -1.0573 H   0  0  0  0  0  0  0  0  0  0  0  0
    1.4389   -0.2486   -0.3595 H   0  0  0  0  0  0  0  0  0  0  0  0
    0.7243   -1.7354    0.9847 C   0  0  0  0  0  0  0  0  0  0  0  0
    1.4783   -2.4610    0.6630 H   0  0  0  0  0  0  0  0  0  0  0  0
   -0.1714   -2.2982    1.2311 H   0  0  0  0  0  0  0  0  0  0  0  0
    1.3115   -0.8989    2.5146 S   0  0  0  0  0  0  0  0  0  0  0  0
    2.9999   -0.3168    2.0831 C   0  0  0  0  0  0  0  0  0  0  0  0
    2.9570    0.4474    1.3027 H   0  0  0  0  0  0  0  0  0  0  0  0
    3.4803    0.1162    2.9659 H   0  0  0  0  0  0  0  0  0  0  0  0
    3.6109   -1.1523    1.7286 H   0  0  0  0  0  0  0  0  0  0  0  0
   -0.5098    1.5366   -0.8943 C   0  0  0  0  0  0  0  0  0  0  0  0
   -1.5120    2.1834   -1.1730 O   0  0  0  0  0  0  0  0  0  0  0  0
    0.6919    1.9385   -1.4545 N   0  0  0  0  0  0  0  0  0  0  0  0
    1.5309    1.4351   -1.1868 H   0  0  0  0  0  0  0  0  0  0  0  0
    0.8123    3.0694   -2.3684 C   0  0  0  0  0  0  0  0  0  0  0  0
    0.4767    3.9923   -1.8834 H   0  0  0  0  0  0  0  0  0  0  0  0
    1.8546    3.1998   -2.6748 H   0  0  0  0  0  0  0  0  0  0  0  0
    0.2067    2.9028   -3.2656 H   0  0  0  0  0  0  0  0  0  0  0  0
  1  2  1  0  0  0  0
  2  3  1  0  0  0  0
  2  4  1  0  0  0  0
  2  5  1  0  0  0  0
  5  6  2  0  0  0  0
  5  7  1  0  0  0  0
  7  8  1  0  0  0  0
  7  9  1  0  0  0  0
  9 10  1  0  0  0  0
  9 11  1  0  0  0  0
  9 22  1  0  0  0  0
 11 12  1  0  0  0  0
 11 13  1  0  0  0  0
 11 14  1  0  0  0  0
 14 15  1  0  0  0  0
 14 16  1  0  0  0  0
 14 17  1  0  0  0  0
 17 18  1  0  0  0  0
 18 19  1  0  0  0  0
 18 20  1  0  0  0  0
 18 21  1  0  0  0  0
 22 23  2  0  0  0  0
 22 24  1  0  0  0  0
 24 25  1  0  0  0  0
 24 26  1  0  0  0  0
 26 27  1  0  0  0  0
 26 28  1  0  0  0  0
 26 29  1  0  0  0  0
M  END
$$$$

  -OEChem-01062216093D

 29 28  0     1  0  0  0  0  0999 V2000
   -3.3753   -2.8249   -0.3289 H   0  0  0  0  0  0  0  0  0  0  0  0
   -2.4193   -2.5606    0.1309 C   0  0  0  0  0  0  0  0  0  0  0  0
   -2.1705   -3.3164    0.8797 H   0  0  0  0  0  0  0  0  0  0  0  0
   -1.6568   -2.5576   -0.6489 H   0  0  0  0  0  0  0  0  0  0  0  0
   -2.5376   -1.1934    0.7889 C   0  0  0  0  0  0  0  0  0  0  0  0
   -3.5110   -0.9841    1.4878 O   0  0  0  0  0  0  0  0  0  0  0  0
   -1.9886   -0.0567    0.2484 N   0  0  0  0  0  0  0  0  0  0  0  0
   -2.6079    0.7362    0.4229 H   0  0  0  0  0  0  0  0  0  0  0  0
   -0.5711    0.3552    0.1138 C   0  0  1  0  0  0  0  0  0  0  0  0
   -0.3045    0.8091    1.0732 H   0  0  0  0  0  0  0  0  0  0  0  0
    0.5034   -0.7397   -0.1426 C   0  0  0  0  0  0  0  0  0  0  0  0
    0.2306   -1.2889   -1.0487 H   0  0  0  0  0  0  0  0  0  0  0  0
    1.4669   -0.2624   -0.3359 H   0  0  0  0  0  0  0  0  0  0  0  0
    0.7335   -1.7428    1.0033 C   0  0  0  0  0  0  0  0  0  0  0  0
    1.4872   -2.4740    0.6940 H   0  0  0  0  0  0  0  0  0  0  0  0
   -0.1674   -2.2998    1.2443 H   0  0  0  0  0  0  0  0  0  0  0  0
    1.3094   -0.9006    2.5341 S   0  0  0  0  0  0  0  0  0  0  0  0
    3.0040   -0.3302    2.1117 C   0  0  0  0  0  0  0  0  0  0  0  0
    2.9709    0.4291    1.3256 H   0  0  0  0  0  0  0  0  0  0  0  0
    3.4800    0.1071    2.9947 H   0  0  0  0  0  0  0  0  0  0  0  0
    3.6132   -1.1714    1.7680 H   0  0  0  0  0  0  0  0  0  0  0  0
   -0.4810    1.5304   -0.8978 C   0  0  0  0  0  0  0  0  0  0  0  0
   -1.4057    2.3298   -0.9734 O   0  0  0  0  0  0  0  0  0  0  0  0
    0.6320    1.7512   -1.6931 N   0  0  0  0  0  0  0  0  0  0  0  0
    1.3927    1.0825   -1.6387 H   0  0  0  0  0  0  0  0  0  0  0  0
    0.7338    2.8552   -2.6414 C   0  0  0  0  0  0  0  0  0  0  0  0
    0.6134    3.8152   -2.1278 H   0  0  0  0  0  0  0  0  0  0  0  0
    1.7133    2.8466   -3.1292 H   0  0  0  0  0  0  0  0  0  0  0  0
   -0.0383    2.7695   -3.4134 H   0  0  0  0  0  0  0  0  0  0  0  0
  1  2  1  0  0  0  0
  2  3  1  0  0  0  0
  2  4  1  0  0  0  0
  2  5  1  0  0  0  0
  5  6  2  0  0  0  0
  5  7  1  0  0  0  0
  7  8  1  0  0  0  0
  7  9  1  0  0  0  0
  9 10  1  0  0  0  0
  9 11  1  0  0  0  0
  9 22  1  0  0  0  0
 11 12  1  0  0  0  0
 11 13  1  0  0  0  0
 11 14  1  0  0  0  0
 14 15  1  0  0  0  0
 14 16  1  0  0  0  0
 14 17  1  0  0  0  0
 17 18  1  0  0  0  0
 18 19  1  0  0  0  0
 18 20  1  0  0  0  0
 18 21  1  0  0  0  0
 22 23  2  0  0  0  0
 22 24  1  0  0  0  0
 24 25  1  0  0  0  0
 24 26  1  0  0  0  0
 26 27  1  0  0  0  0
 26 28  1  0  0  0  0
 26 29  1  0  0  0  0
M  END
$$$$

  -OEChem-01062216093D

 29 28  0     1  0  0  0  0  0999 V2000
   -3.3761   -2.8102   -0.3366 H   0  0  0  0  0  0  0  0  0  0  0  0
   -2.4180   -2.5484    0.1202 C   0  0  0  0  0  0  0  0  0  0  0  0
   -2.1709   -3.3029    0.8708 H   0  0  0  0  0  0  0  0  0  0  0  0
   -1.6569   -2.5508   -0.6609 H   0  0  0  0  0  0  0  0  0  0  0  0
   -2.5291   -1.1787    0.7740 C   0  0  0  0  0  0  0  0  0  0  0  0
   -3.5001   -0.9615    1.4735 O   0  0  0  0  0  0  0  0  0  0  0  0
   -1.9741   -0.0465    0.2303 N   0  0  0  0  0  0  0  0  0  0  0  0
   -2.5784    0.7514    0.4325 H   0  0  0  0  0  0  0  0  0  0  0  0
   -0.5524    0.3489    0.1034 C   0  0  1  0  0  0  0  0  0  0  0  0
   -0.2882    0.8058    1.0621 H   0  0  0  0  0  0  0  0  0  0  0  0
    0.5201   -0.7492   -0.1401 C   0  0  0  0  0  0  0  0  0  0  0  0
    0.2533   -1.3030   -1.0453 H   0  0  0  0  0  0  0  0  0  0  0  0
    1.4838   -0.2684   -0.3287 H   0  0  0  0  0  0  0  0  0  0  0  0
    0.7392   -1.7487    1.0110 C   0  0  0  0  0  0  0  0  0  0  0  0
    1.4938   -2.4825    0.7101 H   0  0  0  0  0  0  0  0  0  0  0  0
   -0.1654   -2.3026    1.2458 H   0  0  0  0  0  0  0  0  0  0  0  0
    1.3059   -0.9037    2.5437 S   0  0  0  0  0  0  0  0  0  0  0  0
    3.0052   -0.3388    2.1330 C   0  0  0  0  0  0  0  0  0  0  0  0
    2.9802    0.4178    1.3440 H   0  0  0  0  0  0  0  0  0  0  0  0
    3.4749    0.1004    3.0183 H   0  0  0  0  0  0  0  0  0  0  0  0
    3.6149   -1.1826    1.7969 H   0  0  0  0  0  0  0  0  0  0  0  0
   -0.4507    1.5165   -0.9116 C   0  0  0  0  0  0  0  0  0  0  0  0
   -1.2458    2.4438   -0.8306 O   0  0  0  0  0  0  0  0  0  0  0  0
    0.5104    1.5632   -1.9087 N   0  0  0  0  0  0  0  0  0  0  0  0
    1.1288    0.7647   -2.0058 H   0  0  0  0  0  0  0  0  0  0  0  0
    0.5935    2.6406   -2.8888 C   0  0  0  0  0  0  0  0  0  0  0  0
    0.7173    3.6065   -2.3875 H   0  0  0  0  0  0  0  0  0  0  0  0
    1.4501    2.4851   -3.5518 H   0  0  0  0  0  0  0  0  0  0  0  0
   -0.3156    2.6747   -3.4985 H   0  0  0  0  0  0  0  0  0  0  0  0
  1  2  1  0  0  0  0
  2  3  1  0  0  0  0
  2  4  1  0  0  0  0
  2  5  1  0  0  0  0
  5  6  2  0  0  0  0
  5  7  1  0  0  0  0
  7  8  1  0  0  0  0
  7  9  1  0  0  0  0
  9 10  1  0  0  0  0
  9 11  1  0  0  0  0
  9 22  1  0  0  0  0
 11 12  1  0  0  0  0
 11 13  1  0  0  0  0
 11 14  1  0  0  0  0
 14 15  1  0  0  0  0
 14 16  1  0  0  0  0
 14 17  1  0  0  0  0
 17 18  1  0  0  0  0
 18 19  1  0  0  0  0
 18 20  1  0  0  0  0
 18 21  1  0  0  0  0
 22 23  2  0  0  0  0
 22 24  1  0  0  0  0
 24 25  1  0  0  0  0
 24 26  1  0  0  0  0
 26 27  1  0  0  0  0
 26 28  1  0  0  0  0
 26 29  1  0  0  0  0
M  END
$$$$

  -OEChem-01062216093D

 29 28  0     1  0  0  0  0  0999 V2000
   -3.3734   -2.8040   -0.3367 H   0  0  0  0  0  0  0  0  0  0  0  0
   -2.4159   -2.5411    0.1207 C   0  0  0  0  0  0  0  0  0  0  0  0
   -2.1729   -3.2911    0.8774 H   0  0  0  0  0  0  0  0  0  0  0  0
   -1.6527   -2.5511   -0.6584 H   0  0  0  0  0  0  0  0  0  0  0  0
   -2.5250   -1.1663    0.7639 C   0  0  0  0  0  0  0  0  0  0  0  0
   -3.4965   -0.9394    1.4593 O   0  0  0  0  0  0  0  0  0  0  0  0
   -1.9671   -0.0396    0.2125 N   0  0  0  0  0  0  0  0  0  0  0  0
   -2.5609    0.7607    0.4344 H   0  0  0  0  0  0  0  0  0  0  0  0
   -0.5424    0.3431    0.0907 C   0  0  1  0  0  0  0  0  0  0  0  0
   -0.2810    0.8047    1.0484 H   0  0  0  0  0  0  0  0  0  0  0  0
    0.5301   -0.7562   -0.1413 C   0  0  0  0  0  0  0  0  0  0  0  0
    0.2663   -1.3177   -1.0423 H   0  0  0  0  0  0  0  0  0  0  0  0
    1.4919   -0.2716   -0.3340 H   0  0  0  0  0  0  0  0  0  0  0  0
    0.7438   -1.7514    1.0145 C   0  0  0  0  0  0  0  0  0  0  0  0
    1.4994   -2.4864    0.7194 H   0  0  0  0  0  0  0  0  0  0  0  0
   -0.1622   -2.3041    1.2474 H   0  0  0  0  0  0  0  0  0  0  0  0
    1.3032   -0.9010    2.5465 S   0  0  0  0  0  0  0  0  0  0  0  0
    3.0039   -0.3391    2.1382 C   0  0  0  0  0  0  0  0  0  0  0  0
    2.9805    0.4139    1.3457 H   0  0  0  0  0  0  0  0  0  0  0  0
    3.4719    0.1041    3.0224 H   0  0  0  0  0  0  0  0  0  0  0  0
    3.6144   -1.1844    1.8074 H   0  0  0  0  0  0  0  0  0  0  0  0
   -0.4256    1.4995   -0.9310 C   0  0  0  0  0  0  0  0  0  0  0  0
   -1.0452    2.5344   -0.7265 O   0  0  0  0  0  0  0  0  0  0  0  0
    0.3261    1.3945   -2.0898 N   0  0  0  0  0  0  0  0  0  0  0  0
    0.7598    0.4990   -2.2889 H   0  0  0  0  0  0  0  0  0  0  0  0
    0.3877    2.4463   -3.0988 C   0  0  0  0  0  0  0  0  0  0  0  0
    0.7465    3.3818   -2.6564 H   0  0  0  0  0  0  0  0  0  0  0  0
    1.0736    2.1613   -3.9023 H   0  0  0  0  0  0  0  0  0  0  0  0
   -0.6026    2.6196   -3.5331 H   0  0  0  0  0  0  0  0  0  0  0  0
  1  2  1  0  0  0  0
  2  3  1  0  0  0  0
  2  4  1  0  0  0  0
  2  5  1  0  0  0  0
  5  6  2  0  0  0  0
  5  7  1  0  0  0  0
  7  8  1  0  0  0  0
  7  9  1  0  0  0  0
  9 10  1  0  0  0  0
  9 11  1  0  0  0  0
  9 22  1  0  0  0  0
 11 12  1  0  0  0  0
 11 13  1  0  0  0  0
 11 14  1  0  0  0  0
 14 15  1  0  0  0  0
 14 16  1  0  0  0  0
 14 17  1  0  0  0  0
 17 18  1  0  0  0  0
 18 19  1  0  0  0  0
 18 20  1  0  0  0  0
 18 21  1  0  0  0  0
 22 23  2  0  0  0  0
 22 24  1  0  0  0  0
 24 25  1  0  0  0  0
 24 26  1  0  0  0  0
 26 27  1  0  0  0  0
 26 28  1  0  0  0  0
 26 29  1  0  0  0  0
M  END
$$$$

  -OEChem-01062216093D

 29 28  0     1  0  0  0  0  0999 V2000
   -3.3745   -2.8020   -0.3370 H   0  0  0  0  0  0  0  0  0  0  0  0
   -2.4183   -2.5420    0.1246 C   0  0  0  0  0  0  0  0  0  0  0  0
   -2.1846   -3.2879    0.8881 H   0  0  0  0  0  0  0  0  0  0  0  0
   -1.6497   -2.5621   -0.6490 H   0  0  0  0  0  0  0  0  0  0  0  0
   -2.5224   -1.1624    0.7581 C   0  0  0  0  0  0  0  0  0  0  0  0
   -3.4908   -0.9275    1.4548 O   0  0  0  0  0  0  0  0  0  0  0  0
   -1.9674   -0.0404    0.1945 N   0  0  0  0  0  0  0  0  0  0  0  0
   -2.5560    0.7594    0.4305 H   0  0  0  0  0  0  0  0  0  0  0  0
   -0.5411    0.3364    0.0758 C   0  0  1  0  0  0  0  0  0  0  0  0
   -0.2831    0.8028    1.0322 H   0  0  0  0  0  0  0  0  0  0  0  0
    0.5334   -0.7614   -0.1469 C   0  0  0  0  0  0  0  0  0  0  0  0
    0.2721   -1.3303   -1.0439 H   0  0  0  0  0  0  0  0  0  0  0  0
    1.4924   -0.2730   -0.3455 H   0  0  0  0  0  0  0  0  0  0  0  0
    0.7456   -1.7517    1.0132 C   0  0  0  0  0  0  0  0  0  0  0  0
    1.5043   -2.4854    0.7229 H   0  0  0  0  0  0  0  0  0  0  0  0
   -0.1599   -2.3059    1.2448 H   0  0  0  0  0  0  0  0  0  0  0  0
    1.2981   -0.8946    2.5436 S   0  0  0  0  0  0  0  0  0  0  0  0
    2.9986   -0.3314    2.1357 C   0  0  0  0  0  0  0  0  0  0  0  0
    2.9747    0.4182    1.3399 H   0  0  0  0  0  0  0  0  0  0  0  0
    3.4645    0.1167    3.0185 H   0  0  0  0  0  0  0  0  0  0  0  0
    3.6112   -1.1768    1.8090 H   0  0  0  0  0  0  0  0  0  0  0  0
   -0.4067    1.4789   -0.9557 C   0  0  0  0  0  0  0  0  0  0  0  0
   -0.7981    2.5987   -0.6588 O   0  0  0  0  0  0  0  0  0  0  0  0
    0.0908    1.2596   -2.2293 N   0  0  0  0  0  0  0  0  0  0  0  0
    0.2957    0.3009   -2.4917 H   0  0  0  0  0  0  0  0  0  0  0  0
    0.1334    2.2942   -3.2566 C   0  0  0  0  0  0  0  0  0  0  0  0
    0.7107    3.1574   -2.9085 H   0  0  0  0  0  0  0  0  0  0  0  0
    0.6070    1.9079   -4.1641 H   0  0  0  0  0  0  0  0  0  0  0  0
   -0.8793    2.6266   -3.5080 H   0  0  0  0  0  0  0  0  0  0  0  0
  1  2  1  0  0  0  0
  2  3  1  0  0  0  0
  2  4  1  0  0  0  0
  2  5  1  0  0  0  0
  5  6  2  0  0  0  0
  5  7  1  0  0  0  0
  7  8  1  0  0  0  0
  7  9  1  0  0  0  0
  9 10  1  0  0  0  0
  9 11  1  0  0  0  0
  9 22  1  0  0  0  0
 11 12  1  0  0  0  0
 11 13  1  0  0  0  0
 11 14  1  0  0  0  0
 14 15  1  0  0  0  0
 14 16  1  0  0  0  0
 14 17  1  0  0  0  0
 17 18  1  0  0  0  0
 18 19  1  0  0  0  0
 18 20  1  0  0  0  0
 18 21  1  0  0  0  0
 22 23  2  0  0  0  0
 22 24  1  0  0  0  0
 24 25  1  0  0  0  0
 24 26  1  0  0  0  0
 26 27  1  0  0  0  0
 26 28  1  0  0  0  0
 26 29  1  0  0  0  0
M  END
$$$$

  -OEChem-01062216093D

 29 28  0     1  0  0  0  0  0999 V2000
   -3.3837   -2.8102   -0.3168 H   0  0  0  0  0  0  0  0  0  0  0  0
   -2.4253   -2.5489    0.1397 C   0  0  0  0  0  0  0  0  0  0  0  0
   -2.1916   -3.2894    0.9086 H   0  0  0  0  0  0  0  0  0  0  0  0
   -1.6590   -2.5775   -0.6359 H   0  0  0  0  0  0  0  0  0  0  0  0
   -2.5230   -1.1641    0.7624 C   0  0  0  0  0  0  0  0  0  0  0  0
   -3.4862   -0.9205    1.4632 O   0  0  0  0  0  0  0  0  0  0  0  0
   -1.9775   -0.0468    0.1808 N   0  0  0  0  0  0  0  0  0  0  0  0
   -2.5643    0.7502    0.4289 H   0  0  0  0  0  0  0  0  0  0  0  0
   -0.5512    0.3299    0.0624 C   0  0  1  0  0  0  0  0  0  0  0  0
   -0.2958    0.8026    1.0169 H   0  0  0  0  0  0  0  0  0  0  0  0
    0.5288   -0.7621   -0.1578 C   0  0  0  0  0  0  0  0  0  0  0  0
    0.2714   -1.3336   -1.0541 H   0  0  0  0  0  0  0  0  0  0  0  0
    1.4843   -0.2674   -0.3597 H   0  0  0  0  0  0  0  0  0  0  0  0
    0.7464   -1.7510    1.0019 C   0  0  0  0  0  0  0  0  0  0  0  0
    1.5107   -2.4791    0.7123 H   0  0  0  0  0  0  0  0  0  0  0  0
   -0.1550   -2.3121    1.2321 H   0  0  0  0  0  0  0  0  0  0  0  0
    1.2931   -0.8902    2.5321 S   0  0  0  0  0  0  0  0  0  0  0  0
    2.9902   -0.3152    2.1274 C   0  0  0  0  0  0  0  0  0  0  0  0
    2.9627    0.4332    1.3305 H   0  0  0  0  0  0  0  0  0  0  0  0
    3.4501    0.1375    3.0110 H   0  0  0  0  0  0  0  0  0  0  0  0
    3.6101   -1.1561    1.8033 H   0  0  0  0  0  0  0  0  0  0  0  0
   -0.4057    1.4549   -0.9842 C   0  0  0  0  0  0  0  0  0  0  0  0
   -0.5123    2.6219   -0.6362 O   0  0  0  0  0  0  0  0  0  0  0  0
   -0.1955    1.1656   -2.3212 N   0  0  0  0  0  0  0  0  0  0  0  0
   -0.2482    0.1904   -2.5975 H   0  0  0  0  0  0  0  0  0  0  0  0
   -0.1476    2.1885   -3.3596 C   0  0  0  0  0  0  0  0  0  0  0  0
    0.6263    2.9299   -3.1337 H   0  0  0  0  0  0  0  0  0  0  0  0
    0.0852    1.7342   -4.3273 H   0  0  0  0  0  0  0  0  0  0  0  0
   -1.1126    2.7000   -3.4388 H   0  0  0  0  0  0  0  0  0  0  0  0
  1  2  1  0  0  0  0
  2  3  1  0  0  0  0
  2  4  1  0  0  0  0
  2  5  1  0  0  0  0
  5  6  2  0  0  0  0
  5  7  1  0  0  0  0
  7  8  1  0  0  0  0
  7  9  1  0  0  0  0
  9 10  1  0  0  0  0
  9 11  1  0  0  0  0
  9 22  1  0  0  0  0
 11 12  1  0  0  0  0
 11 13  1  0  0  0  0
 11 14  1  0  0  0  0
 14 15  1  0  0  0  0
 14 16  1  0  0  0  0
 14 17  1  0  0  0  0
 17 18  1  0  0  0  0
 18 19  1  0  0  0  0
 18 20  1  0  0  0  0
 18 21  1  0  0  0  0
 22 23  2  0  0  0  0
 22 24  1  0  0  0  0
 24 25  1  0  0  0  0
 24 26  1  0  0  0  0
 26 27  1  0  0  0  0
 26 28  1  0  0  0  0
 26 29  1  0  0  0  0
M  END
$$$$

  -OEChem-01062216093D

 29 28  0     1  0  0  0  0  0999 V2000
   -3.3840   -2.8363   -0.2944 H   0  0  0  0  0  0  0  0  0  0  0  0
   -2.4256   -2.5673    0.1574 C   0  0  0  0  0  0  0  0  0  0  0  0
   -2.1847   -3.3018    0.9301 H   0  0  0  0  0  0  0  0  0  0  0  0
   -1.6615   -2.5969   -0.6205 H   0  0  0  0  0  0  0  0  0  0  0  0
   -2.5282   -1.1791    0.7715 C   0  0  0  0  0  0  0  0  0  0  0  0
   -3.4957   -0.9312    1.4647 O   0  0  0  0  0  0  0  0  0  0  0  0
   -1.9925   -0.0633    0.1785 N   0  0  0  0  0  0  0  0  0  0  0  0
   -2.5841    0.7288    0.4292 H   0  0  0  0  0  0  0  0  0  0  0  0
   -0.5676    0.3198    0.0556 C   0  0  1  0  0  0  0  0  0  0  0  0
   -0.3128    0.7965    1.0084 H   0  0  0  0  0  0  0  0  0  0  0  0
    0.5194   -0.7625   -0.1700 C   0  0  0  0  0  0  0  0  0  0  0  0
    0.2650   -1.3320   -1.0684 H   0  0  0  0  0  0  0  0  0  0  0  0
    1.4696   -0.2585   -0.3736 H   0  0  0  0  0  0  0  0  0  0  0  0
    0.7498   -1.7525    0.9862 C   0  0  0  0  0  0  0  0  0  0  0  0
    1.5192   -2.4734    0.6920 H   0  0  0  0  0  0  0  0  0  0  0  0
   -0.1456   -2.3217    1.2192 H   0  0  0  0  0  0  0  0  0  0  0  0
    1.2953   -0.8885    2.5151 S   0  0  0  0  0  0  0  0  0  0  0  0
    2.9856   -0.3002    2.0991 C   0  0  0  0  0  0  0  0  0  0  0  0
    2.9468    0.4526    1.3066 H   0  0  0  0  0  0  0  0  0  0  0  0
    3.4506    0.1504    2.9811 H   0  0  0  0  0  0  0  0  0  0  0  0
    3.6076   -1.1356    1.7646 H   0  0  0  0  0  0  0  0  0  0  0  0
   -0.4222    1.4347   -0.9997 C   0  0  0  0  0  0  0  0  0  0  0  0
   -0.1994    2.5846   -0.6502 O   0  0  0  0  0  0  0  0  0  0  0  0
   -0.5196    1.1403   -2.3477 N   0  0  0  0  0  0  0  0  0  0  0  0
   -0.8341    0.2061   -2.5921 H   0  0  0  0  0  0  0  0  0  0  0  0
   -0.4581    2.1572   -3.3908 C   0  0  0  0  0  0  0  0  0  0  0  0
    0.4760    2.7244   -3.3191 H   0  0  0  0  0  0  0  0  0  0  0  0
   -0.5000    1.6887   -4.3788 H   0  0  0  0  0  0  0  0  0  0  0  0
   -1.2996    2.8519   -3.2992 H   0  0  0  0  0  0  0  0  0  0  0  0
  1  2  1  0  0  0  0
  2  3  1  0  0  0  0
  2  4  1  0  0  0  0
  2  5  1  0  0  0  0
  5  6  2  0  0  0  0
  5  7  1  0  0  0  0
  7  8  1  0  0  0  0
  7  9  1  0  0  0  0
  9 10  1  0  0  0  0
  9 11  1  0  0  0  0
  9 22  1  0  0  0  0
 11 12  1  0  0  0  0
 11 13  1  0  0  0  0
 11 14  1  0  0  0  0
 14 15  1  0  0  0  0
 14 16  1  0  0  0  0
 14 17  1  0  0  0  0
 17 18  1  0  0  0  0
 18 19  1  0  0  0  0
 18 20  1  0  0  0  0
 18 21  1  0  0  0  0
 22 23  2  0  0  0  0
 22 24  1  0  0  0  0
 24 25  1  0  0  0  0
 24 26  1  0  0  0  0
 26 27  1  0  0  0  0
 26 28  1  0  0  0  0
 26 29  1  0  0  0  0
M  END
$$$$

  -OEChem-01062216093D

 29 28  0     1  0  0  0  0  0999 V2000
   -3.3914   -2.8543   -0.2750 H   0  0  0  0  0  0  0  0  0  0  0  0
   -2.4322   -2.5833    0.1739 C   0  0  0  0  0  0  0  0  0  0  0  0
   -2.1892   -3.3148    0.9487 H   0  0  0  0  0  0  0  0  0  0  0  0
   -1.6697   -2.6149   -0.6057 H   0  0  0  0  0  0  0  0  0  0  0  0
   -2.5333   -1.1935    0.7843 C   0  0  0  0  0  0  0  0  0  0  0  0
   -3.4948   -0.9440    1.4850 O   0  0  0  0  0  0  0  0  0  0  0  0
   -2.0124   -0.0782    0.1777 N   0  0  0  0  0  0  0  0  0  0  0  0
   -2.6083    0.7085    0.4344 H   0  0  0  0  0  0  0  0  0  0  0  0
   -0.5893    0.3140    0.0515 C   0  0  1  0  0  0  0  0  0  0  0  0
   -0.3356    0.7978    1.0010 H   0  0  0  0  0  0  0  0  0  0  0  0
    0.5041   -0.7596   -0.1776 C   0  0  0  0  0  0  0  0  0  0  0  0
    0.2499   -1.3284   -1.0766 H   0  0  0  0  0  0  0  0  0  0  0  0
    1.4503   -0.2493   -0.3847 H   0  0  0  0  0  0  0  0  0  0  0  0
    0.7455   -1.7498    0.9758 C   0  0  0  0  0  0  0  0  0  0  0  0
    1.5212   -2.4624    0.6777 H   0  0  0  0  0  0  0  0  0  0  0  0
   -0.1434   -2.3286    1.2094 H   0  0  0  0  0  0  0  0  0  0  0  0
    1.2884   -0.8840    2.5047 S   0  0  0  0  0  0  0  0  0  0  0  0
    2.9721   -0.2825    2.0825 C   0  0  0  0  0  0  0  0  0  0  0  0
    2.9233    0.4710    1.2911 H   0  0  0  0  0  0  0  0  0  0  0  0
    3.4369    0.1715    2.9628 H   0  0  0  0  0  0  0  0  0  0  0  0
    3.5994   -1.1123    1.7443 H   0  0  0  0  0  0  0  0  0  0  0  0
   -0.4440    1.4178   -1.0138 C   0  0  0  0  0  0  0  0  0  0  0  0
    0.0875    2.4816   -0.7313 O   0  0  0  0  0  0  0  0  0  0  0  0
   -0.8376    1.1755   -2.3167 N   0  0  0  0  0  0  0  0  0  0  0  0
   -1.3683    0.3251   -2.4824 H   0  0  0  0  0  0  0  0  0  0  0  0
   -0.7563    2.1754   -3.3744 C   0  0  0  0  0  0  0  0  0  0  0  0
    0.2673    2.5536   -3.4683 H   0  0  0  0  0  0  0  0  0  0  0  0
   -1.0482    1.7360   -4.3330 H   0  0  0  0  0  0  0  0  0  0  0  0
   -1.4240    3.0161   -3.1586 H   0  0  0  0  0  0  0  0  0  0  0  0
  1  2  1  0  0  0  0
  2  3  1  0  0  0  0
  2  4  1  0  0  0  0
  2  5  1  0  0  0  0
  5  6  2  0  0  0  0
  5  7  1  0  0  0  0
  7  8  1  0  0  0  0
  7  9  1  0  0  0  0
  9 10  1  0  0  0  0
  9 11  1  0  0  0  0
  9 22  1  0  0  0  0
 11 12  1  0  0  0  0
 11 13  1  0  0  0  0
 11 14  1  0  0  0  0
 14 15  1  0  0  0  0
 14 16  1  0  0  0  0
 14 17  1  0  0  0  0
 17 18  1  0  0  0  0
 18 19  1  0  0  0  0
 18 20  1  0  0  0  0
 18 21  1  0  0  0  0
 22 23  2  0  0  0  0
 22 24  1  0  0  0  0
 24 25  1  0  0  0  0
 24 26  1  0  0  0  0
 26 27  1  0  0  0  0
 26 28  1  0  0  0  0
 26 29  1  0  0  0  0
M  END
$$$$

  -OEChem-01062216093D

 29 28  0     1  0  0  0  0  0999 V2000
   -3.3969   -2.8822   -0.2482 H   0  0  0  0  0  0  0  0  0  0  0  0
   -2.4357   -2.6043    0.1921 C   0  0  0  0  0  0  0  0  0  0  0  0
   -2.1839   -3.3305    0.9689 H   0  0  0  0  0  0  0  0  0  0  0  0
   -1.6780   -2.6371   -0.5924 H   0  0  0  0  0  0  0  0  0  0  0  0
   -2.5391   -1.2112    0.7951 C   0  0  0  0  0  0  0  0  0  0  0  0
   -3.5010   -0.9588    1.4944 O   0  0  0  0  0  0  0  0  0  0  0  0
   -2.0284   -0.0971    0.1781 N   0  0  0  0  0  0  0  0  0  0  0  0
   -2.6279    0.6862    0.4363 H   0  0  0  0  0  0  0  0  0  0  0  0
   -0.6070    0.3037    0.0448 C   0  0  1  0  0  0  0  0  0  0  0  0
   -0.3535    0.7970    0.9894 H   0  0  0  0  0  0  0  0  0  0  0  0
    0.4899   -0.7670   -0.1806 C   0  0  0  0  0  0  0  0  0  0  0  0
    0.2342   -1.3414   -1.0759 H   0  0  0  0  0  0  0  0  0  0  0  0
    1.4341   -0.2559   -0.3947 H   0  0  0  0  0  0  0  0  0  0  0  0
    0.7393   -1.7485    0.9787 C   0  0  0  0  0  0  0  0  0  0  0  0
    1.5169   -2.4599    0.6829 H   0  0  0  0  0  0  0  0  0  0  0  0
   -0.1461   -2.3293    1.2198 H   0  0  0  0  0  0  0  0  0  0  0  0
    1.2833   -0.8686    2.4993 S   0  0  0  0  0  0  0  0  0  0  0  0
    2.9631   -0.2613    2.0687 C   0  0  0  0  0  0  0  0  0  0  0  0
    2.9082    0.4826    1.2684 H   0  0  0  0  0  0  0  0  0  0  0  0
    3.4256    0.2062    2.9431 H   0  0  0  0  0  0  0  0  0  0  0  0
    3.5962   -1.0903    1.7397 H   0  0  0  0  0  0  0  0  0  0  0  0
   -0.4639    1.4003   -1.0287 C   0  0  0  0  0  0  0  0  0  0  0  0
    0.3024    2.3368   -0.8547 O   0  0  0  0  0  0  0  0  0  0  0  0
   -1.1248    1.2742   -2.2362 N   0  0  0  0  0  0  0  0  0  0  0  0
   -1.7993    0.5174   -2.3109 H   0  0  0  0  0  0  0  0  0  0  0  0
   -1.0515    2.2696   -3.2987 C   0  0  0  0  0  0  0  0  0  0  0  0
   -0.0111    2.4372   -3.5969 H   0  0  0  0  0  0  0  0  0  0  0  0
   -1.6098    1.9280   -4.1757 H   0  0  0  0  0  0  0  0  0  0  0  0
   -1.4790    3.2203   -2.9634 H   0  0  0  0  0  0  0  0  0  0  0  0
  1  2  1  0  0  0  0
  2  3  1  0  0  0  0
  2  4  1  0  0  0  0
  2  5  1  0  0  0  0
  5  6  2  0  0  0  0
  5  7  1  0  0  0  0
  7  8  1  0  0  0  0
  7  9  1  0  0  0  0
  9 10  1  0  0  0  0
  9 11  1  0  0  0  0
  9 22  1  0  0  0  0
 11 12  1  0  0  0  0
 11 13  1  0  0  0  0
 11 14  1  0  0  0  0
 14 15  1  0  0  0  0
 14 16  1  0  0  0  0
 14 17  1  0  0  0  0
 17 18  1  0  0  0  0
 18 19  1  0  0  0  0
 18 20  1  0  0  0  0
 18 21  1  0  0  0  0
 22 23  2  0  0  0  0
 22 24  1  0  0  0  0
 24 25  1  0  0  0  0
 24 26  1  0  0  0  0
 26 27  1  0  0  0  0
 26 28  1  0  0  0  0
 26 29  1  0  0  0  0
M  END
$$$$

  -OEChem-01062216093D

 29 28  0     1  0  0  0  0  0999 V2000
   -3.3895   -2.9167   -0.2304 H   0  0  0  0  0  0  0  0  0  0  0  0
   -2.4297   -2.6344    0.2101 C   0  0  0  0  0  0  0  0  0  0  0  0
   -2.1749   -3.3586    0.9878 H   0  0  0  0  0  0  0  0  0  0  0  0
   -1.6716   -2.6650   -0.5740 H   0  0  0  0  0  0  0  0  0  0  0  0
   -2.5387   -1.2414    0.8120 C   0  0  0  0  0  0  0  0  0  0  0  0
   -3.4977   -0.9947    1.5171 O   0  0  0  0  0  0  0  0  0  0  0  0
   -2.0443   -0.1225    0.1905 N   0  0  0  0  0  0  0  0  0  0  0  0
   -2.6469    0.6533    0.4632 H   0  0  0  0  0  0  0  0  0  0  0  0
   -0.6274    0.2945    0.0442 C   0  0  1  0  0  0  0  0  0  0  0  0
   -0.3709    0.7923    0.9852 H   0  0  0  0  0  0  0  0  0  0  0  0
    0.4737   -0.7726   -0.1851 C   0  0  0  0  0  0  0  0  0  0  0  0
    0.2135   -1.3513   -1.0762 H   0  0  0  0  0  0  0  0  0  0  0  0
    1.4148   -0.2600   -0.4082 H   0  0  0  0  0  0  0  0  0  0  0  0
    0.7381   -1.7472    0.9770 C   0  0  0  0  0  0  0  0  0  0  0  0
    1.5171   -2.4558    0.6776 H   0  0  0  0  0  0  0  0  0  0  0  0
   -0.1415   -2.3318    1.2298 H   0  0  0  0  0  0  0  0  0  0  0  0
    1.2911   -0.8574    2.4883 S   0  0  0  0  0  0  0  0  0  0  0  0
    2.9636   -0.2468    2.0348 C   0  0  0  0  0  0  0  0  0  0  0  0
    2.8968    0.4987    1.2369 H   0  0  0  0  0  0  0  0  0  0  0  0
    3.4390    0.2187    2.9032 H   0  0  0  0  0  0  0  0  0  0  0  0
    3.5920   -1.0750    1.6944 H   0  0  0  0  0  0  0  0  0  0  0  0
   -0.4975    1.3940   -1.0313 C   0  0  0  0  0  0  0  0  0  0  0  0
    0.4240    2.1965   -0.9834 O   0  0  0  0  0  0  0  0  0  0  0  0
   -1.3805    1.4366   -2.0944 N   0  0  0  0  0  0  0  0  0  0  0  0
   -2.1388    0.7593   -2.0888 H   0  0  0  0  0  0  0  0  0  0  0  0
   -1.3224    2.4371   -3.1530 C   0  0  0  0  0  0  0  0  0  0  0  0
   -0.3449    2.4179   -3.6464 H   0  0  0  0  0  0  0  0  0  0  0  0
   -2.0914    2.2374   -3.9055 H   0  0  0  0  0  0  0  0  0  0  0  0
   -1.4905    3.4384   -2.7427 H   0  0  0  0  0  0  0  0  0  0  0  0
  1  2  1  0  0  0  0
  2  3  1  0  0  0  0
  2  4  1  0  0  0  0
  2  5  1  0  0  0  0
  5  6  2  0  0  0  0
  5  7  1  0  0  0  0
  7  8  1  0  0  0  0
  7  9  1  0  0  0  0
  9 10  1  0  0  0  0
  9 11  1  0  0  0  0
  9 22  1  0  0  0  0
 11 12  1  0  0  0  0
 11 13  1  0  0  0  0
 11 14  1  0  0  0  0
 14 15  1  0  0  0  0
 14 16  1  0  0  0  0
 14 17  1  0  0  0  0
 17 18  1  0  0  0  0
 18 19  1  0  0  0  0
 18 20  1  0  0  0  0
 18 21  1  0  0  0  0
 22 23  2  0  0  0  0
 22 24  1  0  0  0  0
 24 25  1  0  0  0  0
 24 26  1  0  0  0  0
 26 27  1  0  0  0  0
 26 28  1  0  0  0  0
 26 29  1  0  0  0  0
M  END
$$$$

  -OEChem-01062216093D

 29 28  0     1  0  0  0  0  0999 V2000
   -3.3905   -2.9468   -0.2133 H   0  0  0  0  0  0  0  0  0  0  0  0
   -2.4259   -2.6577    0.2121 C   0  0  0  0  0  0  0  0  0  0  0  0
   -2.1511   -3.3840    0.9811 H   0  0  0  0  0  0  0  0  0  0  0  0
   -1.6812   -2.6769   -0.5852 H   0  0  0  0  0  0  0  0  0  0  0  0
   -2.5361   -1.2686    0.8230 C   0  0  0  0  0  0  0  0  0  0  0  0
   -3.4870   -1.0295    1.5418 O   0  0  0  0  0  0  0  0  0  0  0  0
   -2.0573   -0.1433    0.2013 N   0  0  0  0  0  0  0  0  0  0  0  0
   -2.6613    0.6243    0.4927 H   0  0  0  0  0  0  0  0  0  0  0  0
   -0.6446    0.2882    0.0443 C   0  0  1  0  0  0  0  0  0  0  0  0
   -0.3854    0.7891    0.9825 H   0  0  0  0  0  0  0  0  0  0  0  0
    0.4587   -0.7792   -0.1849 C   0  0  0  0  0  0  0  0  0  0  0  0
    0.1950   -1.3641   -1.0710 H   0  0  0  0  0  0  0  0  0  0  0  0
    1.3999   -0.2707   -0.4160 H   0  0  0  0  0  0  0  0  0  0  0  0
    0.7314   -1.7443    0.9831 C   0  0  0  0  0  0  0  0  0  0  0  0
    1.5098   -2.4537    0.6847 H   0  0  0  0  0  0  0  0  0  0  0  0
   -0.1453   -2.3289    1.2455 H   0  0  0  0  0  0  0  0  0  0  0  0
    1.2911   -0.8399    2.4837 S   0  0  0  0  0  0  0  0  0  0  0  0
    2.9596   -0.2305    2.0139 C   0  0  0  0  0  0  0  0  0  0  0  0
    2.8857    0.5145    1.2161 H   0  0  0  0  0  0  0  0  0  0  0  0
    3.4434    0.2349    2.8777 H   0  0  0  0  0  0  0  0  0  0  0  0
    3.5838   -1.0594    1.6678 H   0  0  0  0  0  0  0  0  0  0  0  0
   -0.5286    1.3943   -1.0301 C   0  0  0  0  0  0  0  0  0  0  0  0
    0.4928    2.0607   -1.1255 O   0  0  0  0  0  0  0  0  0  0  0  0
   -1.5718    1.6331   -1.9060 N   0  0  0  0  0  0  0  0  0  0  0  0
   -2.3824    1.0242   -1.8304 H   0  0  0  0  0  0  0  0  0  0  0  0
   -1.5298    2.6401   -2.9592 C   0  0  0  0  0  0  0  0  0  0  0  0
   -0.7142    2.4300   -3.6591 H   0  0  0  0  0  0  0  0  0  0  0  0
   -2.4715    2.6438   -3.5165 H   0  0  0  0  0  0  0  0  0  0  0  0
   -1.3784    3.6365   -2.5307 H   0  0  0  0  0  0  0  0  0  0  0  0
  1  2  1  0  0  0  0
  2  3  1  0  0  0  0
  2  4  1  0  0  0  0
  2  5  1  0  0  0  0
  5  6  2  0  0  0  0
  5  7  1  0  0  0  0
  7  8  1  0  0  0  0
  7  9  1  0  0  0  0
  9 10  1  0  0  0  0
  9 11  1  0  0  0  0
  9 22  1  0  0  0  0
 11 12  1  0  0  0  0
 11 13  1  0  0  0  0
 11 14  1  0  0  0  0
 14 15  1  0  0  0  0
 14 16  1  0  0  0  0
 14 17  1  0  0  0  0
 17 18  1  0  0  0  0
 18 19  1  0  0  0  0
 18 20  1  0  0  0  0
 18 21  1  0  0  0  0
 22 23  2  0  0  0  0
 22 24  1  0  0  0  0
 24 25  1  0  0  0  0
 24 26  1  0  0  0  0
 26 27  1  0  0  0  0
 26 28  1  0  0  0  0
 26 29  1  0  0  0  0
M  END
$$$$

  -OEChem-01062216093D

 29 28  0     1  0  0  0  0  0999 V2000
   -3.4030   -2.9452   -0.2093 H   0  0  0  0  0  0  0  0  0  0  0  0
   -2.4335   -2.6669    0.2120 C   0  0  0  0  0  0  0  0  0  0  0  0
   -2.1583   -3.4010    0.9732 H   0  0  0  0  0  0  0  0  0  0  0  0
   -1.6942   -2.6853   -0.5902 H   0  0  0  0  0  0  0  0  0  0  0  0
   -2.5297   -1.2821    0.8347 C   0  0  0  0  0  0  0  0  0  0  0  0
   -3.4620   -1.0459    1.5783 O   0  0  0  0  0  0  0  0  0  0  0  0
   -2.0659   -0.1534    0.2087 N   0  0  0  0  0  0  0  0  0  0  0  0
   -2.6649    0.6078    0.5250 H   0  0  0  0  0  0  0  0  0  0  0  0
   -0.6562    0.2860    0.0425 C   0  0  1  0  0  0  0  0  0  0  0  0
   -0.3932    0.7918    0.9769 H   0  0  0  0  0  0  0  0  0  0  0  0
    0.4447   -0.7879   -0.1833 C   0  0  0  0  0  0  0  0  0  0  0  0
    0.1746   -1.3782   -1.0635 H   0  0  0  0  0  0  0  0  0  0  0  0
    1.3885   -0.2880   -0.4214 H   0  0  0  0  0  0  0  0  0  0  0  0
    0.7219   -1.7451    0.9906 C   0  0  0  0  0  0  0  0  0  0  0  0
    1.4977   -2.4575    0.6925 H   0  0  0  0  0  0  0  0  0  0  0  0
   -0.1540   -2.3273    1.2613 H   0  0  0  0  0  0  0  0  0  0  0  0
    1.2922   -0.8311    2.4815 S   0  0  0  0  0  0  0  0  0  0  0  0
    2.9598   -0.2284    1.9992 C   0  0  0  0  0  0  0  0  0  0  0  0
    2.8853    0.5015    1.1876 H   0  0  0  0  0  0  0  0  0  0  0  0
    3.4427    0.2539    2.8543 H   0  0  0  0  0  0  0  0  0  0  0  0
    3.5860   -1.0625    1.6687 H   0  0  0  0  0  0  0  0  0  0  0  0
   -0.5542    1.3943   -1.0357 C   0  0  0  0  0  0  0  0  0  0  0  0
    0.5198    1.9239   -1.2876 O   0  0  0  0  0  0  0  0  0  0  0  0
   -1.6852    1.8410   -1.6963 N   0  0  0  0  0  0  0  0  0  0  0  0
   -2.5418    1.3162   -1.5419 H   0  0  0  0  0  0  0  0  0  0  0  0
   -1.6617    2.8716   -2.7271 C   0  0  0  0  0  0  0  0  0  0  0  0
   -1.0202    2.5665   -3.5605 H   0  0  0  0  0  0  0  0  0  0  0  0
   -2.6713    3.0452   -3.1120 H   0  0  0  0  0  0  0  0  0  0  0  0
   -1.2826    3.8137   -2.3171 H   0  0  0  0  0  0  0  0  0  0  0  0
  1  2  1  0  0  0  0
  2  3  1  0  0  0  0
  2  4  1  0  0  0  0
  2  5  1  0  0  0  0
  5  6  2  0  0  0  0
  5  7  1  0  0  0  0
  7  8  1  0  0  0  0
  7  9  1  0  0  0  0
  9 10  1  0  0  0  0
  9 11  1  0  0  0  0
  9 22  1  0  0  0  0
 11 12  1  0  0  0  0
 11 13  1  0  0  0  0
 11 14  1  0  0  0  0
 14 15  1  0  0  0  0
 14 16  1  0  0  0  0
 14 17  1  0  0  0  0
 17 18  1  0  0  0  0
 18 19  1  0  0  0  0
 18 20  1  0  0  0  0
 18 21  1  0  0  0  0
 22 23  2  0  0  0  0
 22 24  1  0  0  0  0
 24 25  1  0  0  0  0
 24 26  1  0  0  0  0
 26 27  1  0  0  0  0
 26 28  1  0  0  0  0
 26 29  1  0  0  0  0
M  END
$$$$

  -OEChem-01062216093D

 29 28  0     1  0  0  0  0  0999 V2000
   -3.4025   -2.9479   -0.2278 H   0  0  0  0  0  0  0  0  0  0  0  0
   -2.4317   -2.6783    0.1964 C   0  0  0  0  0  0  0  0  0  0  0  0
   -2.1580   -3.4226    0.9483 H   0  0  0  0  0  0  0  0  0  0  0  0
   -1.6932   -2.6897   -0.6067 H   0  0  0  0  0  0  0  0  0  0  0  0
   -2.5226   -1.3004    0.8355 C   0  0  0  0  0  0  0  0  0  0  0  0
   -3.4384   -1.0738    1.6026 O   0  0  0  0  0  0  0  0  0  0  0  0
   -2.0723   -0.1636    0.2148 N   0  0  0  0  0  0  0  0  0  0  0  0
   -2.6668    0.5878    0.5592 H   0  0  0  0  0  0  0  0  0  0  0  0
   -0.6659    0.2829    0.0402 C   0  0  1  0  0  0  0  0  0  0  0  0
   -0.3998    0.7870    0.9745 H   0  0  0  0  0  0  0  0  0  0  0  0
    0.4359   -0.7928   -0.1850 C   0  0  0  0  0  0  0  0  0  0  0  0
    0.1650   -1.3861   -1.0631 H   0  0  0  0  0  0  0  0  0  0  0  0
    1.3802   -0.2964   -0.4258 H   0  0  0  0  0  0  0  0  0  0  0  0
    0.7168   -1.7422    0.9946 C   0  0  0  0  0  0  0  0  0  0  0  0
    1.4925   -2.4556    0.6984 H   0  0  0  0  0  0  0  0  0  0  0  0
   -0.1576   -2.3242    1.2714 H   0  0  0  0  0  0  0  0  0  0  0  0
    1.2922   -0.8202    2.4788 S   0  0  0  0  0  0  0  0  0  0  0  0
    2.9585   -0.2218    1.9871 C   0  0  0  0  0  0  0  0  0  0  0  0
    2.8825    0.4928    1.1625 H   0  0  0  0  0  0  0  0  0  0  0  0
    3.4403    0.2768    2.8334 H   0  0  0  0  0  0  0  0  0  0  0  0
    3.5863   -1.0604    1.6721 H   0  0  0  0  0  0  0  0  0  0  0  0
   -0.5819    1.4026   -1.0318 C   0  0  0  0  0  0  0  0  0  0  0  0
    0.4967    1.7780   -1.4722 O   0  0  0  0  0  0  0  0  0  0  0  0
   -1.7249    2.0618   -1.4514 N   0  0  0  0  0  0  0  0  0  0  0  0
   -2.6130    1.6464   -1.1873 H   0  0  0  0  0  0  0  0  0  0  0  0
   -1.7178    3.1160   -2.4590 C   0  0  0  0  0  0  0  0  0  0  0  0
   -1.3434    2.7322   -3.4139 H   0  0  0  0  0  0  0  0  0  0  0  0
   -2.7313    3.4993   -2.6121 H   0  0  0  0  0  0  0  0  0  0  0  0
   -1.0810    3.9476   -2.1391 H   0  0  0  0  0  0  0  0  0  0  0  0
  1  2  1  0  0  0  0
  2  3  1  0  0  0  0
  2  4  1  0  0  0  0
  2  5  1  0  0  0  0
  5  6  2  0  0  0  0
  5  7  1  0  0  0  0
  7  8  1  0  0  0  0
  7  9  1  0  0  0  0
  9 10  1  0  0  0  0
  9 11  1  0  0  0  0
  9 22  1  0  0  0  0
 11 12  1  0  0  0  0
 11 13  1  0  0  0  0
 11 14  1  0  0  0  0
 14 15  1  0  0  0  0
 14 16  1  0  0  0  0
 14 17  1  0  0  0  0
 17 18  1  0  0  0  0
 18 19  1  0  0  0  0
 18 20  1  0  0  0  0
 18 21  1  0  0  0  0
 22 23  2  0  0  0  0
 22 24  1  0  0  0  0
 24 25  1  0  0  0  0
 24 26  1  0  0  0  0
 26 27  1  0  0  0  0
 26 28  1  0  0  0  0
 26 29  1  0  0  0  0
M  END
$$$$

  -OEChem-01062216093D

 29 28  0     1  0  0  0  0  0999 V2000
   -3.4030   -2.9644   -0.2304 H   0  0  0  0  0  0  0  0  0  0  0  0
   -2.4309   -2.6890    0.1867 C   0  0  0  0  0  0  0  0  0  0  0  0
   -2.1456   -3.4346    0.9328 H   0  0  0  0  0  0  0  0  0  0  0  0
   -1.6990   -2.6918   -0.6224 H   0  0  0  0  0  0  0  0  0  0  0  0
   -2.5281   -1.3144    0.8316 C   0  0  0  0  0  0  0  0  0  0  0  0
   -3.4423   -1.0945    1.6028 O   0  0  0  0  0  0  0  0  0  0  0  0
   -2.0824   -0.1713    0.2199 N   0  0  0  0  0  0  0  0  0  0  0  0
   -2.6857    0.5722    0.5618 H   0  0  0  0  0  0  0  0  0  0  0  0
   -0.6780    0.2783    0.0387 C   0  0  1  0  0  0  0  0  0  0  0  0
   -0.4085    0.7773    0.9743 H   0  0  0  0  0  0  0  0  0  0  0  0
    0.4254   -0.7966   -0.1874 C   0  0  0  0  0  0  0  0  0  0  0  0
    0.1557   -1.3909   -1.0651 H   0  0  0  0  0  0  0  0  0  0  0  0
    1.3687   -0.2979   -0.4273 H   0  0  0  0  0  0  0  0  0  0  0  0
    0.7132   -1.7426    0.9935 C   0  0  0  0  0  0  0  0  0  0  0  0
    1.4890   -2.4552    0.6959 H   0  0  0  0  0  0  0  0  0  0  0  0
   -0.1590   -2.3255    1.2756 H   0  0  0  0  0  0  0  0  0  0  0  0
    1.2930   -0.8144    2.4723 S   0  0  0  0  0  0  0  0  0  0  0  0
    2.9556   -0.2154    1.9687 C   0  0  0  0  0  0  0  0  0  0  0  0
    2.8741    0.4983    1.1438 H   0  0  0  0  0  0  0  0  0  0  0  0
    3.4435    0.2843    2.8107 H   0  0  0  0  0  0  0  0  0  0  0  0
    3.5813   -1.0542    1.6499 H   0  0  0  0  0  0  0  0  0  0  0  0
   -0.6056    1.4103   -1.0232 C   0  0  0  0  0  0  0  0  0  0  0  0
    0.4061    1.6044   -1.6849 O   0  0  0  0  0  0  0  0  0  0  0  0
   -1.6721    2.2755   -1.2033 N   0  0  0  0  0  0  0  0  0  0  0  0
   -2.5376    2.0558   -0.7225 H   0  0  0  0  0  0  0  0  0  0  0  0
   -1.6729    3.3543   -2.1849 C   0  0  0  0  0  0  0  0  0  0  0  0
   -1.5397    2.9540   -3.1956 H   0  0  0  0  0  0  0  0  0  0  0  0
   -2.6225    3.8968   -2.1498 H   0  0  0  0  0  0  0  0  0  0  0  0
   -0.8639    4.0624   -1.9764 H   0  0  0  0  0  0  0  0  0  0  0  0
  1  2  1  0  0  0  0
  2  3  1  0  0  0  0
  2  4  1  0  0  0  0
  2  5  1  0  0  0  0
  5  6  2  0  0  0  0
  5  7  1  0  0  0  0
  7  8  1  0  0  0  0
  7  9  1  0  0  0  0
  9 10  1  0  0  0  0
  9 11  1  0  0  0  0
  9 22  1  0  0  0  0
 11 12  1  0  0  0  0
 11 13  1  0  0  0  0
 11 14  1  0  0  0  0
 14 15  1  0  0  0  0
 14 16  1  0  0  0  0
 14 17  1  0  0  0  0
 17 18  1  0  0  0  0
 18 19  1  0  0  0  0
 18 20  1  0  0  0  0
 18 21  1  0  0  0  0
 22 23  2  0  0  0  0
 22 24  1  0  0  0  0
 24 25  1  0  0  0  0
 24 26  1  0  0  0  0
 26 27  1  0  0  0  0
 26 28  1  0  0  0  0
 26 29  1  0  0  0  0
M  END
$$$$

  -OEChem-01062216093D

 29 28  0     1  0  0  0  0  0999 V2000
   -3.4043   -2.9896   -0.2084 H   0  0  0  0  0  0  0  0  0  0  0  0
   -2.4336   -2.6918    0.1966 C   0  0  0  0  0  0  0  0  0  0  0  0
   -2.1279   -3.4246    0.9472 H   0  0  0  0  0  0  0  0  0  0  0  0
   -1.7103   -2.6879   -0.6204 H   0  0  0  0  0  0  0  0  0  0  0  0
   -2.5501   -1.3125    0.8284 C   0  0  0  0  0  0  0  0  0  0  0  0
   -3.4841   -1.0914    1.5757 O   0  0  0  0  0  0  0  0  0  0  0  0
   -2.0904   -0.1716    0.2221 N   0  0  0  0  0  0  0  0  0  0  0  0
   -2.7185    0.5776    0.4989 H   0  0  0  0  0  0  0  0  0  0  0  0
   -0.6863    0.2751    0.0379 C   0  0  1  0  0  0  0  0  0  0  0  0
   -0.4136    0.7705    0.9743 H   0  0  0  0  0  0  0  0  0  0  0  0
    0.4203   -0.7935   -0.1932 C   0  0  0  0  0  0  0  0  0  0  0  0
    0.1505   -1.3889   -1.0703 H   0  0  0  0  0  0  0  0  0  0  0  0
    1.3583   -0.2858   -0.4374 H   0  0  0  0  0  0  0  0  0  0  0  0
    0.7128   -1.7390    0.9862 C   0  0  0  0  0  0  0  0  0  0  0  0
    1.4889   -2.4508    0.6871 H   0  0  0  0  0  0  0  0  0  0  0  0
   -0.1592   -2.3221    1.2688 H   0  0  0  0  0  0  0  0  0  0  0  0
    1.2912   -0.8092    2.4650 S   0  0  0  0  0  0  0  0  0  0  0  0
    2.9517   -0.2029    1.9618 C   0  0  0  0  0  0  0  0  0  0  0  0
    2.8670    0.5159    1.1417 H   0  0  0  0  0  0  0  0  0  0  0  0
    3.4399    0.2925    2.8064 H   0  0  0  0  0  0  0  0  0  0  0  0
    3.5788   -1.0380    1.6360 H   0  0  0  0  0  0  0  0  0  0  0  0
   -0.6250    1.4097   -1.0188 C   0  0  0  0  0  0  0  0  0  0  0  0
    0.2259    1.4256   -1.8993 O   0  0  0  0  0  0  0  0  0  0  0  0
   -1.5405    2.4483   -0.9774 N   0  0  0  0  0  0  0  0  0  0  0  0
   -2.2264    2.4466   -0.2299 H   0  0  0  0  0  0  0  0  0  0  0  0
   -1.5442    3.5528   -1.9301 C   0  0  0  0  0  0  0  0  0  0  0  0
   -1.6449    3.1765   -2.9538 H   0  0  0  0  0  0  0  0  0  0  0  0
   -2.3831    4.2254   -1.7269 H   0  0  0  0  0  0  0  0  0  0  0  0
   -0.6143    4.1263   -1.8554 H   0  0  0  0  0  0  0  0  0  0  0  0
  1  2  1  0  0  0  0
  2  3  1  0  0  0  0
  2  4  1  0  0  0  0
  2  5  1  0  0  0  0
  5  6  2  0  0  0  0
  5  7  1  0  0  0  0
  7  8  1  0  0  0  0
  7  9  1  0  0  0  0
  9 10  1  0  0  0  0
  9 11  1  0  0  0  0
  9 22  1  0  0  0  0
 11 12  1  0  0  0  0
 11 13  1  0  0  0  0
 11 14  1  0  0  0  0
 14 15  1  0  0  0  0
 14 16  1  0  0  0  0
 14 17  1  0  0  0  0
 17 18  1  0  0  0  0
 18 19  1  0  0  0  0
 18 20  1  0  0  0  0
 18 21  1  0  0  0  0
 22 23  2  0  0  0  0
 22 24  1  0  0  0  0
 24 25  1  0  0  0  0
 24 26  1  0  0  0  0
 26 27  1  0  0  0  0
 26 28  1  0  0  0  0
 26 29  1  0  0  0  0
M  END
$$$$

  -OEChem-01062216093D

 29 28  0     1  0  0  0  0  0999 V2000
   -3.4004   -2.9735   -0.2302 H   0  0  0  0  0  0  0  0  0  0  0  0
   -2.4374   -2.6811    0.1965 C   0  0  0  0  0  0  0  0  0  0  0  0
   -2.1513   -3.4159    0.9528 H   0  0  0  0  0  0  0  0  0  0  0  0
   -1.6963   -2.6795   -0.6044 H   0  0  0  0  0  0  0  0  0  0  0  0
   -2.5619   -1.3026    0.8280 C   0  0  0  0  0  0  0  0  0  0  0  0
   -3.5044   -1.0845    1.5657 O   0  0  0  0  0  0  0  0  0  0  0  0
   -2.0946   -0.1615    0.2277 N   0  0  0  0  0  0  0  0  0  0  0  0
   -2.7343    0.5911    0.4686 H   0  0  0  0  0  0  0  0  0  0  0  0
   -0.6913    0.2860    0.0509 C   0  0  1  0  0  0  0  0  0  0  0  0
   -0.4175    0.7731    0.9912 H   0  0  0  0  0  0  0  0  0  0  0  0
    0.4191   -0.7729   -0.1947 C   0  0  0  0  0  0  0  0  0  0  0  0
    0.1493   -1.3590   -1.0784 H   0  0  0  0  0  0  0  0  0  0  0  0
    1.3512   -0.2536   -0.4375 H   0  0  0  0  0  0  0  0  0  0  0  0
    0.7152   -1.7342    0.9707 C   0  0  0  0  0  0  0  0  0  0  0  0
    1.4940   -2.4386    0.6611 H   0  0  0  0  0  0  0  0  0  0  0  0
   -0.1551   -2.3243    1.2438 H   0  0  0  0  0  0  0  0  0  0  0  0
    1.2890   -0.8243    2.4638 S   0  0  0  0  0  0  0  0  0  0  0  0
    2.9470   -0.2041    1.9702 C   0  0  0  0  0  0  0  0  0  0  0  0
    2.8607    0.5239    1.1586 H   0  0  0  0  0  0  0  0  0  0  0  0
    3.4321    0.2829    2.8214 H   0  0  0  0  0  0  0  0  0  0  0  0
    3.5782   -1.0328    1.6359 H   0  0  0  0  0  0  0  0  0  0  0  0
   -0.6386    1.4204   -1.0013 C   0  0  0  0  0  0  0  0  0  0  0  0
    0.0213    1.3178   -2.0276 O   0  0  0  0  0  0  0  0  0  0  0  0
   -1.3423    2.5917   -0.7796 N   0  0  0  0  0  0  0  0  0  0  0  0
   -1.8516    2.6799    0.0943 H   0  0  0  0  0  0  0  0  0  0  0  0
   -1.3428    3.7143   -1.7105 C   0  0  0  0  0  0  0  0  0  0  0  0
   -1.6943    3.3942   -2.6972 H   0  0  0  0  0  0  0  0  0  0  0  0
   -2.0065    4.5055   -1.3488 H   0  0  0  0  0  0  0  0  0  0  0  0
   -0.3339    4.1277   -1.8129 H   0  0  0  0  0  0  0  0  0  0  0  0
  1  2  1  0  0  0  0
  2  3  1  0  0  0  0
  2  4  1  0  0  0  0
  2  5  1  0  0  0  0
  5  6  2  0  0  0  0
  5  7  1  0  0  0  0
  7  8  1  0  0  0  0
  7  9  1  0  0  0  0
  9 10  1  0  0  0  0
  9 11  1  0  0  0  0
  9 22  1  0  0  0  0
 11 12  1  0  0  0  0
 11 13  1  0  0  0  0
 11 14  1  0  0  0  0
 14 15  1  0  0  0  0
 14 16  1  0  0  0  0
 14 17  1  0  0  0  0
 17 18  1  0  0  0  0
 18 19  1  0  0  0  0
 18 20  1  0  0  0  0
 18 21  1  0  0  0  0
 22 23  2  0  0  0  0
 22 24  1  0  0  0  0
 24 25  1  0  0  0  0
 24 26  1  0  0  0  0
 26 27  1  0  0  0  0
 26 28  1  0  0  0  0
 26 29  1  0  0  0  0
M  END
$$$$

  -OEChem-01062216093D

 29 28  0     1  0  0  0  0  0999 V2000
   -3.4122   -2.9632   -0.2228 H   0  0  0  0  0  0  0  0  0  0  0  0
   -2.4439   -2.6697    0.1908 C   0  0  0  0  0  0  0  0  0  0  0  0
   -2.1410   -3.4109    0.9343 H   0  0  0  0  0  0  0  0  0  0  0  0
   -1.7165   -2.6550   -0.6225 H   0  0  0  0  0  0  0  0  0  0  0  0
   -2.5651   -1.2983    0.8378 C   0  0  0  0  0  0  0  0  0  0  0  0
   -3.5000   -1.0906    1.5880 O   0  0  0  0  0  0  0  0  0  0  0  0
   -2.1028   -0.1524    0.2431 N   0  0  0  0  0  0  0  0  0  0  0  0
   -2.7449    0.5989    0.4837 H   0  0  0  0  0  0  0  0  0  0  0  0
   -0.7016    0.2997    0.0722 C   0  0  1  0  0  0  0  0  0  0  0  0
   -0.4274    0.7745    1.0186 H   0  0  0  0  0  0  0  0  0  0  0  0
    0.4128   -0.7485   -0.1939 C   0  0  0  0  0  0  0  0  0  0  0  0
    0.1417   -1.3226   -1.0854 H   0  0  0  0  0  0  0  0  0  0  0  0
    1.3393   -0.2180   -0.4341 H   0  0  0  0  0  0  0  0  0  0  0  0
    0.7161   -1.7296    0.9526 C   0  0  0  0  0  0  0  0  0  0  0  0
    1.4985   -2.4236    0.6291 H   0  0  0  0  0  0  0  0  0  0  0  0
   -0.1504   -2.3296    1.2158 H   0  0  0  0  0  0  0  0  0  0  0  0
    1.2884   -0.8446    2.4610 S   0  0  0  0  0  0  0  0  0  0  0  0
    2.9423   -0.2073    1.9751 C   0  0  0  0  0  0  0  0  0  0  0  0
    2.8505    0.5353    1.1775 H   0  0  0  0  0  0  0  0  0  0  0  0
    3.4278    0.2651    2.8343 H   0  0  0  0  0  0  0  0  0  0  0  0
    3.5765   -1.0265    1.6236 H   0  0  0  0  0  0  0  0  0  0  0  0
   -0.6500    1.4373   -0.9735 C   0  0  0  0  0  0  0  0  0  0  0  0
   -0.2038    1.2523   -2.0985 O   0  0  0  0  0  0  0  0  0  0  0  0
   -1.0862    2.7042   -0.6274 N   0  0  0  0  0  0  0  0  0  0  0  0
   -1.4346    2.8443    0.3164 H   0  0  0  0  0  0  0  0  0  0  0  0
   -1.0626    3.8367   -1.5457 C   0  0  0  0  0  0  0  0  0  0  0  0
   -1.6386    3.6099   -2.4492 H   0  0  0  0  0  0  0  0  0  0  0  0
   -1.5014    4.7193   -1.0702 H   0  0  0  0  0  0  0  0  0  0  0  0
   -0.0333    4.0743   -1.8346 H   0  0  0  0  0  0  0  0  0  0  0  0
  1  2  1  0  0  0  0
  2  3  1  0  0  0  0
  2  4  1  0  0  0  0
  2  5  1  0  0  0  0
  5  6  2  0  0  0  0
  5  7  1  0  0  0  0
  7  8  1  0  0  0  0
  7  9  1  0  0  0  0
  9 10  1  0  0  0  0
  9 11  1  0  0  0  0
  9 22  1  0  0  0  0
 11 12  1  0  0  0  0
 11 13  1  0  0  0  0
 11 14  1  0  0  0  0
 14 15  1  0  0  0  0
 14 16  1  0  0  0  0
 14 17  1  0  0  0  0
 17 18  1  0  0  0  0
 18 19  1  0  0  0  0
 18 20  1  0  0  0  0
 18 21  1  0  0  0  0
 22 23  2  0  0  0  0
 22 24  1  0  0  0  0
 24 25  1  0  0  0  0
 24 26  1  0  0  0  0
 26 27  1  0  0  0  0
 26 28  1  0  0  0  0
 26 29  1  0  0  0  0
M  END
$$$$

  -OEChem-01062216093D

 29 28  0     1  0  0  0  0  0999 V2000
   -3.4192   -2.9383   -0.2434 H   0  0  0  0  0  0  0  0  0  0  0  0
   -2.4506   -2.6586    0.1792 C   0  0  0  0  0  0  0  0  0  0  0  0
   -2.1570   -3.4124    0.9134 H   0  0  0  0  0  0  0  0  0  0  0  0
   -1.7186   -2.6376   -0.6301 H   0  0  0  0  0  0  0  0  0  0  0  0
   -2.5642   -1.2962    0.8461 C   0  0  0  0  0  0  0  0  0  0  0  0
   -3.4853   -1.1007    1.6166 O   0  0  0  0  0  0  0  0  0  0  0  0
   -2.1097   -0.1438    0.2581 N   0  0  0  0  0  0  0  0  0  0  0  0
   -2.7524    0.6046    0.5076 H   0  0  0  0  0  0  0  0  0  0  0  0
   -0.7101    0.3141    0.0941 C   0  0  1  0  0  0  0  0  0  0  0  0
   -0.4383    0.7749    1.0480 H   0  0  0  0  0  0  0  0  0  0  0  0
    0.4073   -0.7243   -0.1914 C   0  0  0  0  0  0  0  0  0  0  0  0
    0.1352   -1.2849   -1.0913 H   0  0  0  0  0  0  0  0  0  0  0  0
    1.3306   -0.1861   -0.4273 H   0  0  0  0  0  0  0  0  0  0  0  0
    0.7152   -1.7244    0.9372 C   0  0  0  0  0  0  0  0  0  0  0  0
    1.4993   -2.4100    0.6008 H   0  0  0  0  0  0  0  0  0  0  0  0
   -0.1489   -2.3325    1.1906 H   0  0  0  0  0  0  0  0  0  0  0  0
    1.2851   -0.8616    2.4596 S   0  0  0  0  0  0  0  0  0  0  0  0
    2.9357   -0.2087    1.9843 C   0  0  0  0  0  0  0  0  0  0  0  0
    2.8403    0.5480    1.2005 H   0  0  0  0  0  0  0  0  0  0  0  0
    3.4194    0.2503    2.8517 H   0  0  0  0  0  0  0  0  0  0  0  0
    3.5731   -1.0187    1.6177 H   0  0  0  0  0  0  0  0  0  0  0  0
   -0.6515    1.4573   -0.9432 C   0  0  0  0  0  0  0  0  0  0  0  0
   -0.4412    1.2263   -2.1267 O   0  0  0  0  0  0  0  0  0  0  0  0
   -0.7863    2.7706   -0.5295 N   0  0  0  0  0  0  0  0  0  0  0  0
   -0.9590    2.9412    0.4569 H   0  0  0  0  0  0  0  0  0  0  0  0
   -0.7337    3.9062   -1.4428 C   0  0  0  0  0  0  0  0  0  0  0  0
   -1.5038    3.8125   -2.2159 H   0  0  0  0  0  0  0  0  0  0  0  0
   -0.9047    4.8392   -0.8970 H   0  0  0  0  0  0  0  0  0  0  0  0
    0.2467    3.9634   -1.9273 H   0  0  0  0  0  0  0  0  0  0  0  0
  1  2  1  0  0  0  0
  2  3  1  0  0  0  0
  2  4  1  0  0  0  0
  2  5  1  0  0  0  0
  5  6  2  0  0  0  0
  5  7  1  0  0  0  0
  7  8  1  0  0  0  0
  7  9  1  0  0  0  0
  9 10  1  0  0  0  0
  9 11  1  0  0  0  0
  9 22  1  0  0  0  0
 11 12  1  0  0  0  0
 11 13  1  0  0  0  0
 11 14  1  0  0  0  0
 14 15  1  0  0  0  0
 14 16  1  0  0  0  0
 14 17  1  0  0  0  0
 17 18  1  0  0  0  0
 18 19  1  0  0  0  0
 18 20  1  0  0  0  0
 18 21  1  0  0  0  0
 22 23  2  0  0  0  0
 22 24  1  0  0  0  0
 24 25  1  0  0  0  0
 24 26  1  0  0  0  0
 26 27  1  0  0  0  0
 26 28  1  0  0  0  0
 26 29  1  0  0  0  0
M  END
$$$$

  -OEChem-01062216093D

 29 28  0     1  0  0  0  0  0999 V2000
   -3.4274   -2.9160   -0.2512 H   0  0  0  0  0  0  0  0  0  0  0  0
   -2.4568   -2.6428    0.1705 C   0  0  0  0  0  0  0  0  0  0  0  0
   -2.1606   -3.4060    0.8940 H   0  0  0  0  0  0  0  0  0  0  0  0
   -1.7285   -2.6122   -0.6418 H   0  0  0  0  0  0  0  0  0  0  0  0
   -2.5653   -1.2879    0.8531 C   0  0  0  0  0  0  0  0  0  0  0  0
   -3.4820   -1.1009    1.6310 O   0  0  0  0  0  0  0  0  0  0  0  0
   -2.1122   -0.1319    0.2717 N   0  0  0  0  0  0  0  0  0  0  0  0
   -2.7579    0.6147    0.5193 H   0  0  0  0  0  0  0  0  0  0  0  0
   -0.7137    0.3310    0.1160 C   0  0  1  0  0  0  0  0  0  0  0  0
   -0.4463    0.7801    1.0767 H   0  0  0  0  0  0  0  0  0  0  0  0
    0.4044   -0.6997   -0.1872 C   0  0  0  0  0  0  0  0  0  0  0  0
    0.1309   -1.2453   -1.0959 H   0  0  0  0  0  0  0  0  0  0  0  0
    1.3265   -0.1563   -0.4147 H   0  0  0  0  0  0  0  0  0  0  0  0
    0.7149   -1.7193    0.9229 C   0  0  0  0  0  0  0  0  0  0  0  0
    1.4998   -2.3979    0.5737 H   0  0  0  0  0  0  0  0  0  0  0  0
   -0.1479   -2.3333    1.1657 H   0  0  0  0  0  0  0  0  0  0  0  0
    1.2842   -0.8835    2.4604 S   0  0  0  0  0  0  0  0  0  0  0  0
    2.9338   -0.2185    1.9985 C   0  0  0  0  0  0  0  0  0  0  0  0
    2.8374    0.5536    1.2301 H   0  0  0  0  0  0  0  0  0  0  0  0
    3.4168    0.2234    2.8753 H   0  0  0  0  0  0  0  0  0  0  0  0
    3.5722   -1.0203    1.6157 H   0  0  0  0  0  0  0  0  0  0  0  0
   -0.6459    1.4783   -0.9150 C   0  0  0  0  0  0  0  0  0  0  0  0
   -0.6897    1.2437   -2.1153 O   0  0  0  0  0  0  0  0  0  0  0  0
   -0.4702    2.7834   -0.4912 N   0  0  0  0  0  0  0  0  0  0  0  0
   -0.4428    2.9577    0.5092 H   0  0  0  0  0  0  0  0  0  0  0  0
   -0.3833    3.9153   -1.4064 C   0  0  0  0  0  0  0  0  0  0  0  0
   -1.2799    3.9726   -2.0329 H   0  0  0  0  0  0  0  0  0  0  0  0
   -0.2952    4.8502   -0.8446 H   0  0  0  0  0  0  0  0  0  0  0  0
    0.4936    3.8170   -2.0550 H   0  0  0  0  0  0  0  0  0  0  0  0
  1  2  1  0  0  0  0
  2  3  1  0  0  0  0
  2  4  1  0  0  0  0
  2  5  1  0  0  0  0
  5  6  2  0  0  0  0
  5  7  1  0  0  0  0
  7  8  1  0  0  0  0
  7  9  1  0  0  0  0
  9 10  1  0  0  0  0
  9 11  1  0  0  0  0
  9 22  1  0  0  0  0
 11 12  1  0  0  0  0
 11 13  1  0  0  0  0
 11 14  1  0  0  0  0
 14 15  1  0  0  0  0
 14 16  1  0  0  0  0
 14 17  1  0  0  0  0
 17 18  1  0  0  0  0
 18 19  1  0  0  0  0
 18 20  1  0  0  0  0
 18 21  1  0  0  0  0
 22 23  2  0  0  0  0
 22 24  1  0  0  0  0
 24 25  1  0  0  0  0
 24 26  1  0  0  0  0
 26 27  1  0  0  0  0
 26 28  1  0  0  0  0
 26 29  1  0  0  0  0
M  END
$$$$

  -OEChem-01062216093D

 29 28  0     1  0  0  0  0  0999 V2000
   -3.4293   -2.8980   -0.2694 H   0  0  0  0  0  0  0  0  0  0  0  0
   -2.4597   -2.6315    0.1593 C   0  0  0  0  0  0  0  0  0  0  0  0
   -2.1695   -3.4010    0.8785 H   0  0  0  0  0  0  0  0  0  0  0  0
   -1.7275   -2.5973   -0.6494 H   0  0  0  0  0  0  0  0  0  0  0  0
   -2.5677   -1.2817    0.8523 C   0  0  0  0  0  0  0  0  0  0  0  0
   -3.4838   -1.1024    1.6328 O   0  0  0  0  0  0  0  0  0  0  0  0
   -2.1132   -0.1227    0.2780 N   0  0  0  0  0  0  0  0  0  0  0  0
   -2.7634    0.6232    0.5157 H   0  0  0  0  0  0  0  0  0  0  0  0
   -0.7150    0.3438    0.1281 C   0  0  1  0  0  0  0  0  0  0  0  0
   -0.4547    0.7854    1.0942 H   0  0  0  0  0  0  0  0  0  0  0  0
    0.4036   -0.6827   -0.1839 C   0  0  0  0  0  0  0  0  0  0  0  0
    0.1298   -1.2198   -1.0977 H   0  0  0  0  0  0  0  0  0  0  0  0
    1.3264   -0.1382   -0.4065 H   0  0  0  0  0  0  0  0  0  0  0  0
    0.7130   -1.7117    0.9176 C   0  0  0  0  0  0  0  0  0  0  0  0
    1.4985   -2.3873    0.5639 H   0  0  0  0  0  0  0  0  0  0  0  0
   -0.1502   -2.3274    1.1548 H   0  0  0  0  0  0  0  0  0  0  0  0
    1.2801   -0.8871    2.4621 S   0  0  0  0  0  0  0  0  0  0  0  0
    2.9297   -0.2175    2.0070 C   0  0  0  0  0  0  0  0  0  0  0  0
    2.8339    0.5590    1.2431 H   0  0  0  0  0  0  0  0  0  0  0  0
    3.4103    0.2198    2.8873 H   0  0  0  0  0  0  0  0  0  0  0  0
    3.5696   -1.0166    1.6212 H   0  0  0  0  0  0  0  0  0  0  0  0
   -0.6307    1.4972   -0.8947 C   0  0  0  0  0  0  0  0  0  0  0  0
   -0.9342    1.3155   -2.0659 O   0  0  0  0  0  0  0  0  0  0  0  0
   -0.1492    2.7358   -0.5093 N   0  0  0  0  0  0  0  0  0  0  0  0
    0.0868    2.8695    0.4698 H   0  0  0  0  0  0  0  0  0  0  0  0
   -0.0298    3.8656   -1.4238 C   0  0  0  0  0  0  0  0  0  0  0  0
   -1.0030    4.1082   -1.8635 H   0  0  0  0  0  0  0  0  0  0  0  0
    0.3369    4.7479   -0.8903 H   0  0  0  0  0  0  0  0  0  0  0  0
    0.6727    3.6324   -2.2307 H   0  0  0  0  0  0  0  0  0  0  0  0
  1  2  1  0  0  0  0
  2  3  1  0  0  0  0
  2  4  1  0  0  0  0
  2  5  1  0  0  0  0
  5  6  2  0  0  0  0
  5  7  1  0  0  0  0
  7  8  1  0  0  0  0
  7  9  1  0  0  0  0
  9 10  1  0  0  0  0
  9 11  1  0  0  0  0
  9 22  1  0  0  0  0
 11 12  1  0  0  0  0
 11 13  1  0  0  0  0
 11 14  1  0  0  0  0
 14 15  1  0  0  0  0
 14 16  1  0  0  0  0
 14 17  1  0  0  0  0
 17 18  1  0  0  0  0
 18 19  1  0  0  0  0
 18 20  1  0  0  0  0
 18 21  1  0  0  0  0
 22 23  2  0  0  0  0
 22 24  1  0  0  0  0
 24 25  1  0  0  0  0
 24 26  1  0  0  0  0
 26 27  1  0  0  0  0
 26 28  1  0  0  0  0
 26 29  1  0  0  0  0
M  END
$$$$

  -OEChem-01062216093D

 29 28  0     1  0  0  0  0  0999 V2000
   -3.4296   -2.8963   -0.2650 H   0  0  0  0  0  0  0  0  0  0  0  0
   -2.4584   -2.6227    0.1556 C   0  0  0  0  0  0  0  0  0  0  0  0
   -2.1581   -3.3893    0.8737 H   0  0  0  0  0  0  0  0  0  0  0  0
   -1.7326   -2.5845   -0.6588 H   0  0  0  0  0  0  0  0  0  0  0  0
   -2.5695   -1.2725    0.8473 C   0  0  0  0  0  0  0  0  0  0  0  0
   -3.4896   -1.0947    1.6236 O   0  0  0  0  0  0  0  0  0  0  0  0
   -2.1073   -0.1142    0.2770 N   0  0  0  0  0  0  0  0  0  0  0  0
   -2.7629    0.6346    0.4902 H   0  0  0  0  0  0  0  0  0  0  0  0
   -0.7088    0.3536    0.1296 C   0  0  1  0  0  0  0  0  0  0  0  0
   -0.4546    0.7948    1.0975 H   0  0  0  0  0  0  0  0  0  0  0  0
    0.4080   -0.6749   -0.1815 C   0  0  0  0  0  0  0  0  0  0  0  0
    0.1334   -1.2105   -1.0958 H   0  0  0  0  0  0  0  0  0  0  0  0
    1.3333   -0.1343   -0.4019 H   0  0  0  0  0  0  0  0  0  0  0  0
    0.7134   -1.7046    0.9204 C   0  0  0  0  0  0  0  0  0  0  0  0
    1.4973   -2.3834    0.5689 H   0  0  0  0  0  0  0  0  0  0  0  0
   -0.1520   -2.3173    1.1569 H   0  0  0  0  0  0  0  0  0  0  0  0
    1.2803   -0.8794    2.4644 S   0  0  0  0  0  0  0  0  0  0  0  0
    2.9321   -0.2128    2.0129 C   0  0  0  0  0  0  0  0  0  0  0  0
    2.8402    0.5600    1.2450 H   0  0  0  0  0  0  0  0  0  0  0  0
    3.4093    0.2284    2.8931 H   0  0  0  0  0  0  0  0  0  0  0  0
    3.5736   -1.0138    1.6334 H   0  0  0  0  0  0  0  0  0  0  0  0
   -0.6091    1.5101   -0.8893 C   0  0  0  0  0  0  0  0  0  0  0  0
   -1.1672    1.4417   -1.9756 O   0  0  0  0  0  0  0  0  0  0  0  0
    0.1509    2.6281   -0.5940 N   0  0  0  0  0  0  0  0  0  0  0  0
    0.5787    2.6800    0.3260 H   0  0  0  0  0  0  0  0  0  0  0  0
    0.2896    3.7620   -1.5004 C   0  0  0  0  0  0  0  0  0  0  0  0
   -0.6905    4.1964   -1.7246 H   0  0  0  0  0  0  0  0  0  0  0  0
    0.9144    4.5364   -1.0449 H   0  0  0  0  0  0  0  0  0  0  0  0
    0.7582    3.4472   -2.4388 H   0  0  0  0  0  0  0  0  0  0  0  0
  1  2  1  0  0  0  0
  2  3  1  0  0  0  0
  2  4  1  0  0  0  0
  2  5  1  0  0  0  0
  5  6  2  0  0  0  0
  5  7  1  0  0  0  0
  7  8  1  0  0  0  0
  7  9  1  0  0  0  0
  9 10  1  0  0  0  0
  9 11  1  0  0  0  0
  9 22  1  0  0  0  0
 11 12  1  0  0  0  0
 11 13  1  0  0  0  0
 11 14  1  0  0  0  0
 14 15  1  0  0  0  0
 14 16  1  0  0  0  0
 14 17  1  0  0  0  0
 17 18  1  0  0  0  0
 18 19  1  0  0  0  0
 18 20  1  0  0  0  0
 18 21  1  0  0  0  0
 22 23  2  0  0  0  0
 22 24  1  0  0  0  0
 24 25  1  0  0  0  0
 24 26  1  0  0  0  0
 26 27  1  0  0  0  0
 26 28  1  0  0  0  0
 26 29  1  0  0  0  0
M  END
$$$$

  -OEChem-01062216093D

 29 28  0     1  0  0  0  0  0999 V2000
   -3.4229   -2.8836   -0.2783 H   0  0  0  0  0  0  0  0  0  0  0  0
   -2.4553   -2.6106    0.1507 C   0  0  0  0  0  0  0  0  0  0  0  0
   -2.1638   -3.3757    0.8741 H   0  0  0  0  0  0  0  0  0  0  0  0
   -1.7223   -2.5768   -0.6569 H   0  0  0  0  0  0  0  0  0  0  0  0
   -2.5708   -1.2578    0.8374 C   0  0  0  0  0  0  0  0  0  0  0  0
   -3.5029   -1.0775    1.5985 O   0  0  0  0  0  0  0  0  0  0  0  0
   -2.0940   -0.1021    0.2728 N   0  0  0  0  0  0  0  0  0  0  0  0
   -2.7515    0.6521    0.4617 H   0  0  0  0  0  0  0  0  0  0  0  0
   -0.6940    0.3633    0.1266 C   0  0  1  0  0  0  0  0  0  0  0  0
   -0.4410    0.8058    1.0945 H   0  0  0  0  0  0  0  0  0  0  0  0
    0.4153   -0.6759   -0.1799 C   0  0  0  0  0  0  0  0  0  0  0  0
    0.1358   -1.2138   -1.0913 H   0  0  0  0  0  0  0  0  0  0  0  0
    1.3468   -0.1475   -0.4028 H   0  0  0  0  0  0  0  0  0  0  0  0
    0.7098   -1.7029    0.9275 C   0  0  0  0  0  0  0  0  0  0  0  0
    1.4877   -2.3903    0.5800 H   0  0  0  0  0  0  0  0  0  0  0  0
   -0.1614   -2.3060    1.1667 H   0  0  0  0  0  0  0  0  0  0  0  0
    1.2814   -0.8773    2.4694 S   0  0  0  0  0  0  0  0  0  0  0  0
    2.9405   -0.2270    2.0208 C   0  0  0  0  0  0  0  0  0  0  0  0
    2.8596    0.5381    1.2439 H   0  0  0  0  0  0  0  0  0  0  0  0
    3.4150    0.2200    2.8997 H   0  0  0  0  0  0  0  0  0  0  0  0
    3.5784   -1.0372    1.6548 H   0  0  0  0  0  0  0  0  0  0  0  0
   -0.5837    1.5243   -0.8887 C   0  0  0  0  0  0  0  0  0  0  0  0
   -1.3600    1.6220   -1.8292 O   0  0  0  0  0  0  0  0  0  0  0  0
    0.4061    2.4799   -0.7387 N   0  0  0  0  0  0  0  0  0  0  0  0
    1.0079    2.4126    0.0766 H   0  0  0  0  0  0  0  0  0  0  0  0
    0.5572    3.6214   -1.6339 C   0  0  0  0  0  0  0  0  0  0  0  0
   -0.3557    4.2265   -1.6419 H   0  0  0  0  0  0  0  0  0  0  0  0
    1.3874    4.2540   -1.3052 H   0  0  0  0  0  0  0  0  0  0  0  0
    0.7641    3.2828   -2.6547 H   0  0  0  0  0  0  0  0  0  0  0  0
  1  2  1  0  0  0  0
  2  3  1  0  0  0  0
  2  4  1  0  0  0  0
  2  5  1  0  0  0  0
  5  6  2  0  0  0  0
  5  7  1  0  0  0  0
  7  8  1  0  0  0  0
  7  9  1  0  0  0  0
  9 10  1  0  0  0  0
  9 11  1  0  0  0  0
  9 22  1  0  0  0  0
 11 12  1  0  0  0  0
 11 13  1  0  0  0  0
 11 14  1  0  0  0  0
 14 15  1  0  0  0  0
 14 16  1  0  0  0  0
 14 17  1  0  0  0  0
 17 18  1  0  0  0  0
 18 19  1  0  0  0  0
 18 20  1  0  0  0  0
 18 21  1  0  0  0  0
 22 23  2  0  0  0  0
 22 24  1  0  0  0  0
 24 25  1  0  0  0  0
 24 26  1  0  0  0  0
 26 27  1  0  0  0  0
 26 28  1  0  0  0  0
 26 29  1  0  0  0  0
M  END
$$$$

  -OEChem-01062216093D

 29 28  0     1  0  0  0  0  0999 V2000
   -3.4134   -2.8753   -0.2799 H   0  0  0  0  0  0  0  0  0  0  0  0
   -2.4462   -2.6005    0.1492 C   0  0  0  0  0  0  0  0  0  0  0  0
   -2.1560   -3.3623    0.8766 H   0  0  0  0  0  0  0  0  0  0  0  0
   -1.7121   -2.5707   -0.6575 H   0  0  0  0  0  0  0  0  0  0  0  0
   -2.5634   -1.2446    0.8296 C   0  0  0  0  0  0  0  0  0  0  0  0
   -3.5091   -1.0594    1.5724 O   0  0  0  0  0  0  0  0  0  0  0  0
   -2.0688   -0.0932    0.2707 N   0  0  0  0  0  0  0  0  0  0  0  0
   -2.7275    0.6678    0.4294 H   0  0  0  0  0  0  0  0  0  0  0  0
   -0.6673    0.3691    0.1255 C   0  0  1  0  0  0  0  0  0  0  0  0
   -0.4099    0.8152    1.0906 H   0  0  0  0  0  0  0  0  0  0  0  0
    0.4315   -0.6865   -0.1744 C   0  0  0  0  0  0  0  0  0  0  0  0
    0.1467   -1.2254   -1.0834 H   0  0  0  0  0  0  0  0  0  0  0  0
    1.3723   -0.1760   -0.3968 H   0  0  0  0  0  0  0  0  0  0  0  0
    0.7133   -1.7111    0.9393 C   0  0  0  0  0  0  0  0  0  0  0  0
    1.4825   -2.4106    0.5969 H   0  0  0  0  0  0  0  0  0  0  0  0
   -0.1646   -2.3020    1.1833 H   0  0  0  0  0  0  0  0  0  0  0  0
    1.2938   -0.8844    2.4769 S   0  0  0  0  0  0  0  0  0  0  0  0
    2.9608   -0.2562    2.0268 C   0  0  0  0  0  0  0  0  0  0  0  0
    2.8883    0.5133    1.2538 H   0  0  0  0  0  0  0  0  0  0  0  0
    3.4438    0.1805    2.9061 H   0  0  0  0  0  0  0  0  0  0  0  0
    3.5862   -1.0736    1.6556 H   0  0  0  0  0  0  0  0  0  0  0  0
   -0.5611    1.5344   -0.8901 C   0  0  0  0  0  0  0  0  0  0  0  0
   -1.4913    1.8171   -1.6335 O   0  0  0  0  0  0  0  0  0  0  0  0
    0.5842    2.3104   -0.9430 N   0  0  0  0  0  0  0  0  0  0  0  0
    1.3144    2.1180   -0.2644 H   0  0  0  0  0  0  0  0  0  0  0  0
    0.7302    3.4621   -1.8260 C   0  0  0  0  0  0  0  0  0  0  0  0
   -0.0448    4.2073   -1.6168 H   0  0  0  0  0  0  0  0  0  0  0  0
    1.7082    3.9304   -1.6793 H   0  0  0  0  0  0  0  0  0  0  0  0
    0.6487    3.1540   -2.8738 H   0  0  0  0  0  0  0  0  0  0  0  0
  1  2  1  0  0  0  0
  2  3  1  0  0  0  0
  2  4  1  0  0  0  0
  2  5  1  0  0  0  0
  5  6  2  0  0  0  0
  5  7  1  0  0  0  0
  7  8  1  0  0  0  0
  7  9  1  0  0  0  0
  9 10  1  0  0  0  0
  9 11  1  0  0  0  0
  9 22  1  0  0  0  0
 11 12  1  0  0  0  0
 11 13  1  0  0  0  0
 11 14  1  0  0  0  0
 14 15  1  0  0  0  0
 14 16  1  0  0  0  0
 14 17  1  0  0  0  0
 17 18  1  0  0  0  0
 18 19  1  0  0  0  0
 18 20  1  0  0  0  0
 18 21  1  0  0  0  0
 22 23  2  0  0  0  0
 22 24  1  0  0  0  0
 24 25  1  0  0  0  0
 24 26  1  0  0  0  0
 26 27  1  0  0  0  0
 26 28  1  0  0  0  0
 26 29  1  0  0  0  0
M  END
$$$$
