default_name
  -OEChem-01062215323D

 22 21  0     1  0  0  0  0  0999 V2000
   -2.5423   -3.6749    0.8058 H   0  0  0  0  0  0  0  0  0  0  0  0
   -2.5063   -2.6779    0.3688 C   0  0  0  0  0  0  0  0  0  0  0  0
   -3.1603   -2.0109    0.9268 H   0  0  0  0  0  0  0  0  0  0  0  0
   -2.8193   -2.7229   -0.6722 H   0  0  0  0  0  0  0  0  0  0  0  0
   -1.0873   -2.1629    0.4418 C   0  0  0  0  0  0  0  0  0  0  0  0
   -0.2073   -2.8549    0.9368 O   0  0  0  0  0  0  0  0  0  0  0  0
   -0.8713   -0.9449   -0.0482 N   0  0  0  0  0  0  0  0  0  0  0  0
   -1.6543   -0.4189   -0.4062 H   0  0  0  0  0  0  0  0  0  0  0  0
    0.4237   -0.2649   -0.0462 C   0  0  1  0  0  0  0  0  0  0  0  0
    0.7513   -0.1332    0.9863 H   0  0  0  0  0  0  0  0  0  0  0  0
    1.4503   -1.1453   -0.7755 C   0  0  0  0  0  0  0  0  0  0  0  0
    1.1418   -1.2951   -1.8115 H   0  0  0  0  0  0  0  0  0  0  0  0
    2.4297   -0.6684   -0.7588 H   0  0  0  0  0  0  0  0  0  0  0  0
    1.5236   -2.1142   -0.2788 H   0  0  0  0  0  0  0  0  0  0  0  0
    0.3163    1.1308   -0.6910 C   0  0  0  0  0  0  0  0  0  0  0  0
   -0.7591    1.5312   -1.1361 O   0  0  0  0  0  0  0  0  0  0  0  0
    1.4374    1.8605   -0.7519 N   0  0  0  0  0  0  0  0  0  0  0  0
    2.2809    1.4626   -0.3709 H   0  0  0  0  0  0  0  0  0  0  0  0
    1.5105    3.1979   -1.3385 C   0  0  0  0  0  0  0  0  0  0  0  0
    0.7784    3.8508   -0.8592 H   0  0  0  0  0  0  0  0  0  0  0  0
    2.5083    3.6178   -1.2037 H   0  0  0  0  0  0  0  0  0  0  0  0
    1.2820    3.1450   -2.4043 H   0  0  0  0  0  0  0  0  0  0  0  0
  5  6  2  0  0  0  0
  5  7  1  0  0  0  0
  2  3  1  0  0  0  0
  2  4  1  0  0  0  0
  2  5  1  0  0  0  0
  1  2  1  0  0  0  0
 15 16  2  0  0  0  0
 15 17  1  0  0  0  0
 11 12  1  0  0  0  0
 11 13  1  0  0  0  0
 11 14  1  0  0  0  0
  9 10  1  0  0  0  0
  9 11  1  0  0  0  0
  9 15  1  0  0  0  0
  7  8  1  0  0  0  0
  7  9  1  0  0  0  0
 19 20  1  0  0  0  0
 19 21  1  0  0  0  0
 19 22  1  0  0  0  0
 17 18  1  0  0  0  0
 17 19  1  0  0  0  0
M  END
$$$$
default_name
  -OEChem-01062215323D

 22 21  0     1  0  0  0  0  0999 V2000
   -2.5423   -3.6749    0.8058 H   0  0  0  0  0  0  0  0  0  0  0  0
   -2.5063   -2.6779    0.3688 C   0  0  0  0  0  0  0  0  0  0  0  0
   -3.1603   -2.0109    0.9268 H   0  0  0  0  0  0  0  0  0  0  0  0
   -2.8193   -2.7229   -0.6722 H   0  0  0  0  0  0  0  0  0  0  0  0
   -1.0873   -2.1629    0.4418 C   0  0  0  0  0  0  0  0  0  0  0  0
   -0.2073   -2.8549    0.9368 O   0  0  0  0  0  0  0  0  0  0  0  0
   -0.8713   -0.9449   -0.0482 N   0  0  0  0  0  0  0  0  0  0  0  0
   -1.6543   -0.4189   -0.4062 H   0  0  0  0  0  0  0  0  0  0  0  0
    0.4237   -0.2649   -0.0462 C   0  0  1  0  0  0  0  0  0  0  0  0
    0.7513   -0.1332    0.9863 H   0  0  0  0  0  0  0  0  0  0  0  0
    1.4503   -1.1453   -0.7755 C   0  0  0  0  0  0  0  0  0  0  0  0
    1.1418   -1.2951   -1.8115 H   0  0  0  0  0  0  0  0  0  0  0  0
    2.4297   -0.6684   -0.7588 H   0  0  0  0  0  0  0  0  0  0  0  0
    1.5236   -2.1142   -0.2788 H   0  0  0  0  0  0  0  0  0  0  0  0
    0.3163    1.1308   -0.6910 C   0  0  0  0  0  0  0  0  0  0  0  0
   -0.7849    1.6452   -0.8850 O   0  0  0  0  0  0  0  0  0  0  0  0
    1.4625    1.7320   -1.0344 N   0  0  0  0  0  0  0  0  0  0  0  0
    2.3248    1.2453   -0.8487 H   0  0  0  0  0  0  0  0  0  0  0  0
    1.5370    3.0500   -1.6630 C   0  0  0  0  0  0  0  0  0  0  0  0
    1.0118    3.7823   -1.0465 H   0  0  0  0  0  0  0  0  0  0  0  0
    2.5773    3.3578   -1.7778 H   0  0  0  0  0  0  0  0  0  0  0  0
    1.0598    3.0172   -2.6439 H   0  0  0  0  0  0  0  0  0  0  0  0
  5  6  2  0  0  0  0
  5  7  1  0  0  0  0
  2  3  1  0  0  0  0
  2  4  1  0  0  0  0
  2  5  1  0  0  0  0
  1  2  1  0  0  0  0
 15 16  2  0  0  0  0
 15 17  1  0  0  0  0
 11 12  1  0  0  0  0
 11 13  1  0  0  0  0
 11 14  1  0  0  0  0
  9 10  1  0  0  0  0
  9 11  1  0  0  0  0
  9 15  1  0  0  0  0
  7  8  1  0  0  0  0
  7  9  1  0  0  0  0
 19 20  1  0  0  0  0
 19 21  1  0  0  0  0
 19 22  1  0  0  0  0
 17 18  1  0  0  0  0
 17 19  1  0  0  0  0
M  END
$$$$
default_name
  -OEChem-01062215323D

 22 21  0     1  0  0  0  0  0999 V2000
   -2.5423   -3.6749    0.8058 H   0  0  0  0  0  0  0  0  0  0  0  0
   -2.5063   -2.6779    0.3688 C   0  0  0  0  0  0  0  0  0  0  0  0
   -3.1603   -2.0109    0.9268 H   0  0  0  0  0  0  0  0  0  0  0  0
   -2.8193   -2.7229   -0.6722 H   0  0  0  0  0  0  0  0  0  0  0  0
   -1.0873   -2.1629    0.4418 C   0  0  0  0  0  0  0  0  0  0  0  0
   -0.2073   -2.8549    0.9368 O   0  0  0  0  0  0  0  0  0  0  0  0
   -0.8713   -0.9449   -0.0482 N   0  0  0  0  0  0  0  0  0  0  0  0
   -1.6543   -0.4189   -0.4062 H   0  0  0  0  0  0  0  0  0  0  0  0
    0.4237   -0.2649   -0.0462 C   0  0  1  0  0  0  0  0  0  0  0  0
    0.7513   -0.1332    0.9863 H   0  0  0  0  0  0  0  0  0  0  0  0
    1.4503   -1.1453   -0.7755 C   0  0  0  0  0  0  0  0  0  0  0  0
    1.1418   -1.2951   -1.8115 H   0  0  0  0  0  0  0  0  0  0  0  0
    2.4297   -0.6684   -0.7588 H   0  0  0  0  0  0  0  0  0  0  0  0
    1.5236   -2.1142   -0.2788 H   0  0  0  0  0  0  0  0  0  0  0  0
    0.3163    1.1308   -0.6910 C   0  0  0  0  0  0  0  0  0  0  0  0
   -0.7386    1.7627   -0.6384 O   0  0  0  0  0  0  0  0  0  0  0  0
    1.4066    1.5999   -1.3109 N   0  0  0  0  0  0  0  0  0  0  0  0
    2.2318    1.0220   -1.3166 H   0  0  0  0  0  0  0  0  0  0  0  0
    1.4705    2.8985   -1.9799 C   0  0  0  0  0  0  0  0  0  0  0  0
    1.1860    3.6874   -1.2809 H   0  0  0  0  0  0  0  0  0  0  0  0
    2.4811    3.0889   -2.3439 H   0  0  0  0  0  0  0  0  0  0  0  0
    0.7751    2.9135   -2.8209 H   0  0  0  0  0  0  0  0  0  0  0  0
  5  6  2  0  0  0  0
  5  7  1  0  0  0  0
  2  3  1  0  0  0  0
  2  4  1  0  0  0  0
  2  5  1  0  0  0  0
  1  2  1  0  0  0  0
 15 16  2  0  0  0  0
 15 17  1  0  0  0  0
 11 12  1  0  0  0  0
 11 13  1  0  0  0  0
 11 14  1  0  0  0  0
  9 10  1  0  0  0  0
  9 11  1  0  0  0  0
  9 15  1  0  0  0  0
  7  8  1  0  0  0  0
  7  9  1  0  0  0  0
 19 20  1  0  0  0  0
 19 21  1  0  0  0  0
 19 22  1  0  0  0  0
 17 18  1  0  0  0  0
 17 19  1  0  0  0  0
M  END
$$$$
default_name
  -OEChem-01062215323D

 22 21  0     1  0  0  0  0  0999 V2000
   -2.5423   -3.6749    0.8058 H   0  0  0  0  0  0  0  0  0  0  0  0
   -2.5063   -2.6779    0.3688 C   0  0  0  0  0  0  0  0  0  0  0  0
   -3.1603   -2.0109    0.9268 H   0  0  0  0  0  0  0  0  0  0  0  0
   -2.8193   -2.7229   -0.6722 H   0  0  0  0  0  0  0  0  0  0  0  0
   -1.0873   -2.1629    0.4418 C   0  0  0  0  0  0  0  0  0  0  0  0
   -0.2073   -2.8549    0.9368 O   0  0  0  0  0  0  0  0  0  0  0  0
   -0.8713   -0.9449   -0.0482 N   0  0  0  0  0  0  0  0  0  0  0  0
   -1.6543   -0.4189   -0.4062 H   0  0  0  0  0  0  0  0  0  0  0  0
    0.4237   -0.2649   -0.0462 C   0  0  1  0  0  0  0  0  0  0  0  0
    0.7513   -0.1332    0.9863 H   0  0  0  0  0  0  0  0  0  0  0  0
    1.4503   -1.1453   -0.7755 C   0  0  0  0  0  0  0  0  0  0  0  0
    1.1418   -1.2951   -1.8115 H   0  0  0  0  0  0  0  0  0  0  0  0
    2.4297   -0.6684   -0.7588 H   0  0  0  0  0  0  0  0  0  0  0  0
    1.5236   -2.1142   -0.2788 H   0  0  0  0  0  0  0  0  0  0  0  0
    0.3163    1.1308   -0.6910 C   0  0  0  0  0  0  0  0  0  0  0  0
   -0.6234    1.8755   -0.4132 O   0  0  0  0  0  0  0  0  0  0  0  0
    1.2735    1.4735   -1.5624 N   0  0  0  0  0  0  0  0  0  0  0  0
    2.0080    0.8079   -1.7427 H   0  0  0  0  0  0  0  0  0  0  0  0
    1.3156    2.7536   -2.2678 C   0  0  0  0  0  0  0  0  0  0  0  0
    1.2890    3.5727   -1.5464 H   0  0  0  0  0  0  0  0  0  0  0  0
    2.2265    2.8294   -2.8633 H   0  0  0  0  0  0  0  0  0  0  0  0
    0.4474    2.8410   -2.9233 H   0  0  0  0  0  0  0  0  0  0  0  0
  5  6  2  0  0  0  0
  5  7  1  0  0  0  0
  2  3  1  0  0  0  0
  2  4  1  0  0  0  0
  2  5  1  0  0  0  0
  1  2  1  0  0  0  0
 15 16  2  0  0  0  0
 15 17  1  0  0  0  0
 11 12  1  0  0  0  0
 11 13  1  0  0  0  0
 11 14  1  0  0  0  0
  9 10  1  0  0  0  0
  9 11  1  0  0  0  0
  9 15  1  0  0  0  0
  7  8  1  0  0  0  0
  7  9  1  0  0  0  0
 19 20  1  0  0  0  0
 19 21  1  0  0  0  0
 19 22  1  0  0  0  0
 17 18  1  0  0  0  0
 17 19  1  0  0  0  0
M  END
$$$$
default_name
  -OEChem-01062215323D

 22 21  0     1  0  0  0  0  0999 V2000
   -2.5423   -3.6749    0.8058 H   0  0  0  0  0  0  0  0  0  0  0  0
   -2.5063   -2.6779    0.3688 C   0  0  0  0  0  0  0  0  0  0  0  0
   -3.1603   -2.0109    0.9268 H   0  0  0  0  0  0  0  0  0  0  0  0
   -2.8193   -2.7229   -0.6722 H   0  0  0  0  0  0  0  0  0  0  0  0
   -1.0873   -2.1629    0.4418 C   0  0  0  0  0  0  0  0  0  0  0  0
   -0.2073   -2.8549    0.9368 O   0  0  0  0  0  0  0  0  0  0  0  0
   -0.8713   -0.9449   -0.0482 N   0  0  0  0  0  0  0  0  0  0  0  0
   -1.6543   -0.4189   -0.4062 H   0  0  0  0  0  0  0  0  0  0  0  0
    0.4237   -0.2649   -0.0462 C   0  0  1  0  0  0  0  0  0  0  0  0
    0.7513   -0.1332    0.9863 H   0  0  0  0  0  0  0  0  0  0  0  0
    1.4503   -1.1453   -0.7755 C   0  0  0  0  0  0  0  0  0  0  0  0
    1.1418   -1.2951   -1.8115 H   0  0  0  0  0  0  0  0  0  0  0  0
    2.4297   -0.6684   -0.7588 H   0  0  0  0  0  0  0  0  0  0  0  0
    1.5236   -2.1142   -0.2788 H   0  0  0  0  0  0  0  0  0  0  0  0
    0.3163    1.1308   -0.6910 C   0  0  0  0  0  0  0  0  0  0  0  0
   -0.4471    1.9762   -0.2248 O   0  0  0  0  0  0  0  0  0  0  0  0
    1.0723    1.3612   -1.7719 N   0  0  0  0  0  0  0  0  0  0  0  0
    1.6689    0.6177   -2.0979 H   0  0  0  0  0  0  0  0  0  0  0  0
    1.0828    2.6252   -2.5069 C   0  0  0  0  0  0  0  0  0  0  0  0
    1.3138    3.4459   -1.8249 H   0  0  0  0  0  0  0  0  0  0  0  0
    1.8307    2.5969   -3.3006 H   0  0  0  0  0  0  0  0  0  0  0  0
    0.0990    2.8046   -2.9440 H   0  0  0  0  0  0  0  0  0  0  0  0
  5  6  2  0  0  0  0
  5  7  1  0  0  0  0
  2  3  1  0  0  0  0
  2  4  1  0  0  0  0
  2  5  1  0  0  0  0
  1  2  1  0  0  0  0
 15 16  2  0  0  0  0
 15 17  1  0  0  0  0
 11 12  1  0  0  0  0
 11 13  1  0  0  0  0
 11 14  1  0  0  0  0
  9 10  1  0  0  0  0
  9 11  1  0  0  0  0
  9 15  1  0  0  0  0
  7  8  1  0  0  0  0
  7  9  1  0  0  0  0
 19 20  1  0  0  0  0
 19 21  1  0  0  0  0
 19 22  1  0  0  0  0
 17 18  1  0  0  0  0
 17 19  1  0  0  0  0
M  END
$$$$
default_name
  -OEChem-01062215323D

 22 21  0     1  0  0  0  0  0999 V2000
   -2.5423   -3.6749    0.8058 H   0  0  0  0  0  0  0  0  0  0  0  0
   -2.5063   -2.6779    0.3688 C   0  0  0  0  0  0  0  0  0  0  0  0
   -3.1603   -2.0109    0.9268 H   0  0  0  0  0  0  0  0  0  0  0  0
   -2.8193   -2.7229   -0.6722 H   0  0  0  0  0  0  0  0  0  0  0  0
   -1.0873   -2.1629    0.4418 C   0  0  0  0  0  0  0  0  0  0  0  0
   -0.2073   -2.8549    0.9368 O   0  0  0  0  0  0  0  0  0  0  0  0
   -0.8713   -0.9449   -0.0482 N   0  0  0  0  0  0  0  0  0  0  0  0
   -1.6543   -0.4189   -0.4062 H   0  0  0  0  0  0  0  0  0  0  0  0
    0.4237   -0.2649   -0.0462 C   0  0  1  0  0  0  0  0  0  0  0  0
    0.7513   -0.1332    0.9863 H   0  0  0  0  0  0  0  0  0  0  0  0
    1.4503   -1.1453   -0.7755 C   0  0  0  0  0  0  0  0  0  0  0  0
    1.1418   -1.2951   -1.8115 H   0  0  0  0  0  0  0  0  0  0  0  0
    2.4297   -0.6684   -0.7588 H   0  0  0  0  0  0  0  0  0  0  0  0
    1.5236   -2.1142   -0.2788 H   0  0  0  0  0  0  0  0  0  0  0  0
    0.3163    1.1308   -0.6910 C   0  0  0  0  0  0  0  0  0  0  0  0
   -0.2218    2.0577   -0.0859 O   0  0  0  0  0  0  0  0  0  0  0  0
    0.8167    1.2708   -1.9251 N   0  0  0  0  0  0  0  0  0  0  0  0
    1.2374    0.4643   -2.3582 H   0  0  0  0  0  0  0  0  0  0  0  0
    0.7879    2.5221   -2.6810 C   0  0  0  0  0  0  0  0  0  0  0  0
    1.2588    3.3158   -2.0975 H   0  0  0  0  0  0  0  0  0  0  0  0
    1.3207    2.4073   -3.6261 H   0  0  0  0  0  0  0  0  0  0  0  0
   -0.2463    2.8068   -2.8818 H   0  0  0  0  0  0  0  0  0  0  0  0
  5  6  2  0  0  0  0
  5  7  1  0  0  0  0
  2  3  1  0  0  0  0
  2  4  1  0  0  0  0
  2  5  1  0  0  0  0
  1  2  1  0  0  0  0
 15 16  2  0  0  0  0
 15 17  1  0  0  0  0
 11 12  1  0  0  0  0
 11 13  1  0  0  0  0
 11 14  1  0  0  0  0
  9 10  1  0  0  0  0
  9 11  1  0  0  0  0
  9 15  1  0  0  0  0
  7  8  1  0  0  0  0
  7  9  1  0  0  0  0
 19 20  1  0  0  0  0
 19 21  1  0  0  0  0
 19 22  1  0  0  0  0
 17 18  1  0  0  0  0
 17 19  1  0  0  0  0
M  END
$$$$
default_name
  -OEChem-01062215323D

 22 21  0     1  0  0  0  0  0999 V2000
   -2.5423   -3.6749    0.8058 H   0  0  0  0  0  0  0  0  0  0  0  0
   -2.5063   -2.6779    0.3688 C   0  0  0  0  0  0  0  0  0  0  0  0
   -3.1603   -2.0109    0.9268 H   0  0  0  0  0  0  0  0  0  0  0  0
   -2.8193   -2.7229   -0.6722 H   0  0  0  0  0  0  0  0  0  0  0  0
   -1.0873   -2.1629    0.4418 C   0  0  0  0  0  0  0  0  0  0  0  0
   -0.2073   -2.8549    0.9368 O   0  0  0  0  0  0  0  0  0  0  0  0
   -0.8713   -0.9449   -0.0482 N   0  0  0  0  0  0  0  0  0  0  0  0
   -1.6543   -0.4189   -0.4062 H   0  0  0  0  0  0  0  0  0  0  0  0
    0.4237   -0.2649   -0.0462 C   0  0  1  0  0  0  0  0  0  0  0  0
    0.7513   -0.1332    0.9863 H   0  0  0  0  0  0  0  0  0  0  0  0
    1.4503   -1.1453   -0.7755 C   0  0  0  0  0  0  0  0  0  0  0  0
    1.1418   -1.2951   -1.8115 H   0  0  0  0  0  0  0  0  0  0  0  0
    2.4297   -0.6684   -0.7588 H   0  0  0  0  0  0  0  0  0  0  0  0
    1.5236   -2.1142   -0.2788 H   0  0  0  0  0  0  0  0  0  0  0  0
    0.3163    1.1308   -0.6910 C   0  0  0  0  0  0  0  0  0  0  0  0
    0.0373    2.1145   -0.0060 O   0  0  0  0  0  0  0  0  0  0  0  0
    0.5241    1.2083   -2.0116 N   0  0  0  0  0  0  0  0  0  0  0  0
    0.7430    0.3581   -2.5057 H   0  0  0  0  0  0  0  0  0  0  0  0
    0.4512    2.4513   -2.7782 C   0  0  0  0  0  0  0  0  0  0  0  0
    1.1276    3.1911   -2.3455 H   0  0  0  0  0  0  0  0  0  0  0  0
    0.7312    2.2735   -3.8175 H   0  0  0  0  0  0  0  0  0  0  0  0
   -0.5650    2.8474   -2.7408 H   0  0  0  0  0  0  0  0  0  0  0  0
  5  6  2  0  0  0  0
  5  7  1  0  0  0  0
  2  3  1  0  0  0  0
  2  4  1  0  0  0  0
  2  5  1  0  0  0  0
  1  2  1  0  0  0  0
 15 16  2  0  0  0  0
 15 17  1  0  0  0  0
 11 12  1  0  0  0  0
 11 13  1  0  0  0  0
 11 14  1  0  0  0  0
  9 10  1  0  0  0  0
  9 11  1  0  0  0  0
  9 15  1  0  0  0  0
  7  8  1  0  0  0  0
  7  9  1  0  0  0  0
 19 20  1  0  0  0  0
 19 21  1  0  0  0  0
 19 22  1  0  0  0  0
 17 18  1  0  0  0  0
 17 19  1  0  0  0  0
M  END
$$$$
default_name
  -OEChem-01062215323D

 22 21  0     1  0  0  0  0  0999 V2000
   -2.5423   -3.6749    0.8058 H   0  0  0  0  0  0  0  0  0  0  0  0
   -2.5063   -2.6779    0.3688 C   0  0  0  0  0  0  0  0  0  0  0  0
   -3.1603   -2.0109    0.9268 H   0  0  0  0  0  0  0  0  0  0  0  0
   -2.8193   -2.7229   -0.6722 H   0  0  0  0  0  0  0  0  0  0  0  0
   -1.0873   -2.1629    0.4418 C   0  0  0  0  0  0  0  0  0  0  0  0
   -0.2073   -2.8549    0.9368 O   0  0  0  0  0  0  0  0  0  0  0  0
   -0.8713   -0.9449   -0.0482 N   0  0  0  0  0  0  0  0  0  0  0  0
   -1.6543   -0.4189   -0.4062 H   0  0  0  0  0  0  0  0  0  0  0  0
    0.4237   -0.2649   -0.0462 C   0  0  1  0  0  0  0  0  0  0  0  0
    0.7513   -0.1332    0.9863 H   0  0  0  0  0  0  0  0  0  0  0  0
    1.4503   -1.1453   -0.7755 C   0  0  0  0  0  0  0  0  0  0  0  0
    1.1418   -1.2951   -1.8115 H   0  0  0  0  0  0  0  0  0  0  0  0
    2.4297   -0.6684   -0.7588 H   0  0  0  0  0  0  0  0  0  0  0  0
    1.5236   -2.1142   -0.2788 H   0  0  0  0  0  0  0  0  0  0  0  0
    0.3163    1.1308   -0.6910 C   0  0  0  0  0  0  0  0  0  0  0  0
    0.3124    2.1428    0.0095 O   0  0  0  0  0  0  0  0  0  0  0  0
    0.2144    1.1781   -2.0253 N   0  0  0  0  0  0  0  0  0  0  0  0
    0.2194    0.3064   -2.5303 H   0  0  0  0  0  0  0  0  0  0  0  0
    0.0955    2.4176   -2.7919 C   0  0  0  0  0  0  0  0  0  0  0  0
    0.9293    3.0804   -2.5521 H   0  0  0  0  0  0  0  0  0  0  0  0
    0.1025    2.2047   -3.8618 H   0  0  0  0  0  0  0  0  0  0  0  0
   -0.8354    2.9237   -2.5306 H   0  0  0  0  0  0  0  0  0  0  0  0
  5  6  2  0  0  0  0
  5  7  1  0  0  0  0
  2  3  1  0  0  0  0
  2  4  1  0  0  0  0
  2  5  1  0  0  0  0
  1  2  1  0  0  0  0
 15 16  2  0  0  0  0
 15 17  1  0  0  0  0
 11 12  1  0  0  0  0
 11 13  1  0  0  0  0
 11 14  1  0  0  0  0
  9 10  1  0  0  0  0
  9 11  1  0  0  0  0
  9 15  1  0  0  0  0
  7  8  1  0  0  0  0
  7  9  1  0  0  0  0
 19 20  1  0  0  0  0
 19 21  1  0  0  0  0
 19 22  1  0  0  0  0
 17 18  1  0  0  0  0
 17 19  1  0  0  0  0
M  END
$$$$
default_name
  -OEChem-01062215323D

 22 21  0     1  0  0  0  0  0999 V2000
   -2.5423   -3.6749    0.8058 H   0  0  0  0  0  0  0  0  0  0  0  0
   -2.5063   -2.6779    0.3688 C   0  0  0  0  0  0  0  0  0  0  0  0
   -3.1603   -2.0109    0.9268 H   0  0  0  0  0  0  0  0  0  0  0  0
   -2.8193   -2.7229   -0.6722 H   0  0  0  0  0  0  0  0  0  0  0  0
   -1.0873   -2.1629    0.4418 C   0  0  0  0  0  0  0  0  0  0  0  0
   -0.2073   -2.8549    0.9368 O   0  0  0  0  0  0  0  0  0  0  0  0
   -0.8713   -0.9449   -0.0482 N   0  0  0  0  0  0  0  0  0  0  0  0
   -1.6543   -0.4189   -0.4062 H   0  0  0  0  0  0  0  0  0  0  0  0
    0.4237   -0.2649   -0.0462 C   0  0  1  0  0  0  0  0  0  0  0  0
    0.7513   -0.1332    0.9863 H   0  0  0  0  0  0  0  0  0  0  0  0
    1.4503   -1.1453   -0.7755 C   0  0  0  0  0  0  0  0  0  0  0  0
    1.1418   -1.2951   -1.8115 H   0  0  0  0  0  0  0  0  0  0  0  0
    2.4297   -0.6684   -0.7588 H   0  0  0  0  0  0  0  0  0  0  0  0
    1.5236   -2.1142   -0.2788 H   0  0  0  0  0  0  0  0  0  0  0  0
    0.3163    1.1308   -0.6910 C   0  0  0  0  0  0  0  0  0  0  0  0
    0.5848    2.1407   -0.0406 O   0  0  0  0  0  0  0  0  0  0  0  0
   -0.0912    1.1823   -1.9655 N   0  0  0  0  0  0  0  0  0  0  0  0
   -0.2978    0.3127   -2.4305 H   0  0  0  0  0  0  0  0  0  0  0  0
   -0.2550    2.4233   -2.7211 C   0  0  0  0  0  0  0  0  0  0  0  0
    0.6774    2.9912   -2.7032 H   0  0  0  0  0  0  0  0  0  0  0  0
   -0.5226    2.2054   -3.7560 H   0  0  0  0  0  0  0  0  0  0  0  0
   -1.0391    3.0305   -2.2656 H   0  0  0  0  0  0  0  0  0  0  0  0
  5  6  2  0  0  0  0
  5  7  1  0  0  0  0
  2  3  1  0  0  0  0
  2  4  1  0  0  0  0
  2  5  1  0  0  0  0
  1  2  1  0  0  0  0
 15 16  2  0  0  0  0
 15 17  1  0  0  0  0
 11 12  1  0  0  0  0
 11 13  1  0  0  0  0
 11 14  1  0  0  0  0
  9 10  1  0  0  0  0
  9 11  1  0  0  0  0
  9 15  1  0  0  0  0
  7  8  1  0  0  0  0
  7  9  1  0  0  0  0
 19 20  1  0  0  0  0
 19 21  1  0  0  0  0
 19 22  1  0  0  0  0
 17 18  1  0  0  0  0
 17 19  1  0  0  0  0
M  END
$$$$
default_name
  -OEChem-01062215323D

 22 21  0     1  0  0  0  0  0999 V2000
   -2.5423   -3.6749    0.8058 H   0  0  0  0  0  0  0  0  0  0  0  0
   -2.5063   -2.6779    0.3688 C   0  0  0  0  0  0  0  0  0  0  0  0
   -3.1603   -2.0109    0.9268 H   0  0  0  0  0  0  0  0  0  0  0  0
   -2.8193   -2.7229   -0.6722 H   0  0  0  0  0  0  0  0  0  0  0  0
   -1.0873   -2.1629    0.4418 C   0  0  0  0  0  0  0  0  0  0  0  0
   -0.2073   -2.8549    0.9368 O   0  0  0  0  0  0  0  0  0  0  0  0
   -0.8713   -0.9449   -0.0482 N   0  0  0  0  0  0  0  0  0  0  0  0
   -1.6543   -0.4189   -0.4062 H   0  0  0  0  0  0  0  0  0  0  0  0
    0.4237   -0.2649   -0.0462 C   0  0  1  0  0  0  0  0  0  0  0  0
    0.7513   -0.1332    0.9863 H   0  0  0  0  0  0  0  0  0  0  0  0
    1.4503   -1.1453   -0.7755 C   0  0  0  0  0  0  0  0  0  0  0  0
    1.1418   -1.2951   -1.8115 H   0  0  0  0  0  0  0  0  0  0  0  0
    2.4297   -0.6684   -0.7588 H   0  0  0  0  0  0  0  0  0  0  0  0
    1.5236   -2.1142   -0.2788 H   0  0  0  0  0  0  0  0  0  0  0  0
    0.3163    1.1308   -0.6910 C   0  0  0  0  0  0  0  0  0  0  0  0
    0.8360    2.1082   -0.1528 O   0  0  0  0  0  0  0  0  0  0  0  0
   -0.3719    1.2204   -1.8362 N   0  0  0  0  0  0  0  0  0  0  0  0
   -0.7732    0.3766   -2.2129 H   0  0  0  0  0  0  0  0  0  0  0  0
   -0.5763    2.4680   -2.5707 C   0  0  0  0  0  0  0  0  0  0  0  0
    0.3889    2.9296   -2.7885 H   0  0  0  0  0  0  0  0  0  0  0  0
   -1.1015    2.2758   -3.5073 H   0  0  0  0  0  0  0  0  0  0  0  0
   -1.1621    3.1604   -1.9637 H   0  0  0  0  0  0  0  0  0  0  0  0
  5  6  2  0  0  0  0
  5  7  1  0  0  0  0
  2  3  1  0  0  0  0
  2  4  1  0  0  0  0
  2  5  1  0  0  0  0
  1  2  1  0  0  0  0
 15 16  2  0  0  0  0
 15 17  1  0  0  0  0
 11 12  1  0  0  0  0
 11 13  1  0  0  0  0
 11 14  1  0  0  0  0
  9 10  1  0  0  0  0
  9 11  1  0  0  0  0
  9 15  1  0  0  0  0
  7  8  1  0  0  0  0
  7  9  1  0  0  0  0
 19 20  1  0  0  0  0
 19 21  1  0  0  0  0
 19 22  1  0  0  0  0
 17 18  1  0  0  0  0
 17 19  1  0  0  0  0
M  END
$$$$
default_name
  -OEChem-01062215323D

 22 21  0     1  0  0  0  0  0999 V2000
   -2.5423   -3.6749    0.8058 H   0  0  0  0  0  0  0  0  0  0  0  0
   -2.5063   -2.6779    0.3688 C   0  0  0  0  0  0  0  0  0  0  0  0
   -3.1603   -2.0109    0.9268 H   0  0  0  0  0  0  0  0  0  0  0  0
   -2.8193   -2.7229   -0.6722 H   0  0  0  0  0  0  0  0  0  0  0  0
   -1.0873   -2.1629    0.4418 C   0  0  0  0  0  0  0  0  0  0  0  0
   -0.2073   -2.8549    0.9368 O   0  0  0  0  0  0  0  0  0  0  0  0
   -0.8713   -0.9449   -0.0482 N   0  0  0  0  0  0  0  0  0  0  0  0
   -1.6543   -0.4189   -0.4062 H   0  0  0  0  0  0  0  0  0  0  0  0
    0.4237   -0.2649   -0.0462 C   0  0  1  0  0  0  0  0  0  0  0  0
    0.7513   -0.1332    0.9863 H   0  0  0  0  0  0  0  0  0  0  0  0
    1.4503   -1.1453   -0.7755 C   0  0  0  0  0  0  0  0  0  0  0  0
    1.1418   -1.2951   -1.8115 H   0  0  0  0  0  0  0  0  0  0  0  0
    2.4297   -0.6684   -0.7588 H   0  0  0  0  0  0  0  0  0  0  0  0
    1.5236   -2.1142   -0.2788 H   0  0  0  0  0  0  0  0  0  0  0  0
    0.3163    1.1308   -0.6910 C   0  0  0  0  0  0  0  0  0  0  0  0
    1.0487    2.0475   -0.3195 O   0  0  0  0  0  0  0  0  0  0  0  0
   -0.6086    1.2900   -1.6461 N   0  0  0  0  0  0  0  0  0  0  0  0
   -1.1746    0.4938   -1.8925 H   0  0  0  0  0  0  0  0  0  0  0  0
   -0.8465    2.5488   -2.3509 C   0  0  0  0  0  0  0  0  0  0  0  0
    0.0837    2.8998   -2.8022 H   0  0  0  0  0  0  0  0  0  0  0  0
   -1.5949    2.4109   -3.1326 H   0  0  0  0  0  0  0  0  0  0  0  0
   -1.1962    3.3047   -1.6457 H   0  0  0  0  0  0  0  0  0  0  0  0
  5  6  2  0  0  0  0
  5  7  1  0  0  0  0
  2  3  1  0  0  0  0
  2  4  1  0  0  0  0
  2  5  1  0  0  0  0
  1  2  1  0  0  0  0
 15 16  2  0  0  0  0
 15 17  1  0  0  0  0
 11 12  1  0  0  0  0
 11 13  1  0  0  0  0
 11 14  1  0  0  0  0
  9 10  1  0  0  0  0
  9 11  1  0  0  0  0
  9 15  1  0  0  0  0
  7  8  1  0  0  0  0
  7  9  1  0  0  0  0
 19 20  1  0  0  0  0
 19 21  1  0  0  0  0
 19 22  1  0  0  0  0
 17 18  1  0  0  0  0
 17 19  1  0  0  0  0
M  END
$$$$
default_name
  -OEChem-01062215323D

 22 21  0     1  0  0  0  0  0999 V2000
   -2.5423   -3.6749    0.8058 H   0  0  0  0  0  0  0  0  0  0  0  0
   -2.5063   -2.6779    0.3688 C   0  0  0  0  0  0  0  0  0  0  0  0
   -3.1603   -2.0109    0.9268 H   0  0  0  0  0  0  0  0  0  0  0  0
   -2.8193   -2.7229   -0.6722 H   0  0  0  0  0  0  0  0  0  0  0  0
   -1.0873   -2.1629    0.4418 C   0  0  0  0  0  0  0  0  0  0  0  0
   -0.2073   -2.8549    0.9368 O   0  0  0  0  0  0  0  0  0  0  0  0
   -0.8713   -0.9449   -0.0482 N   0  0  0  0  0  0  0  0  0  0  0  0
   -1.6543   -0.4189   -0.4062 H   0  0  0  0  0  0  0  0  0  0  0  0
    0.4237   -0.2649   -0.0462 C   0  0  1  0  0  0  0  0  0  0  0  0
    0.7513   -0.1332    0.9863 H   0  0  0  0  0  0  0  0  0  0  0  0
    1.4503   -1.1453   -0.7755 C   0  0  0  0  0  0  0  0  0  0  0  0
    1.1418   -1.2951   -1.8115 H   0  0  0  0  0  0  0  0  0  0  0  0
    2.4297   -0.6684   -0.7588 H   0  0  0  0  0  0  0  0  0  0  0  0
    1.5236   -2.1142   -0.2788 H   0  0  0  0  0  0  0  0  0  0  0  0
    0.3163    1.1308   -0.6910 C   0  0  0  0  0  0  0  0  0  0  0  0
    1.2086    1.9629   -0.5293 O   0  0  0  0  0  0  0  0  0  0  0  0
   -0.7852    1.3862   -1.4083 N   0  0  0  0  0  0  0  0  0  0  0  0
   -1.4744    0.6561   -1.4911 H   0  0  0  0  0  0  0  0  0  0  0  0
   -1.0473    2.6600   -2.0767 C   0  0  0  0  0  0  0  0  0  0  0  0
   -0.2176    2.9038   -2.7433 H   0  0  0  0  0  0  0  0  0  0  0  0
   -1.9689    2.6016   -2.6576 H   0  0  0  0  0  0  0  0  0  0  0  0
   -1.1389    3.4535   -1.3331 H   0  0  0  0  0  0  0  0  0  0  0  0
  5  6  2  0  0  0  0
  5  7  1  0  0  0  0
  2  3  1  0  0  0  0
  2  4  1  0  0  0  0
  2  5  1  0  0  0  0
  1  2  1  0  0  0  0
 15 16  2  0  0  0  0
 15 17  1  0  0  0  0
 11 12  1  0  0  0  0
 11 13  1  0  0  0  0
 11 14  1  0  0  0  0
  9 10  1  0  0  0  0
  9 11  1  0  0  0  0
  9 15  1  0  0  0  0
  7  8  1  0  0  0  0
  7  9  1  0  0  0  0
 19 20  1  0  0  0  0
 19 21  1  0  0  0  0
 19 22  1  0  0  0  0
 17 18  1  0  0  0  0
 17 19  1  0  0  0  0
M  END
$$$$
default_name
  -OEChem-01062215323D

 22 21  0     1  0  0  0  0  0999 V2000
   -2.5423   -3.6749    0.8058 H   0  0  0  0  0  0  0  0  0  0  0  0
   -2.5063   -2.6779    0.3688 C   0  0  0  0  0  0  0  0  0  0  0  0
   -3.1603   -2.0109    0.9268 H   0  0  0  0  0  0  0  0  0  0  0  0
   -2.8193   -2.7229   -0.6722 H   0  0  0  0  0  0  0  0  0  0  0  0
   -1.0873   -2.1629    0.4418 C   0  0  0  0  0  0  0  0  0  0  0  0
   -0.2073   -2.8549    0.9368 O   0  0  0  0  0  0  0  0  0  0  0  0
   -0.8713   -0.9449   -0.0482 N   0  0  0  0  0  0  0  0  0  0  0  0
   -1.6543   -0.4189   -0.4062 H   0  0  0  0  0  0  0  0  0  0  0  0
    0.4237   -0.2649   -0.0462 C   0  0  1  0  0  0  0  0  0  0  0  0
    0.7513   -0.1332    0.9863 H   0  0  0  0  0  0  0  0  0  0  0  0
    1.4503   -1.1453   -0.7755 C   0  0  0  0  0  0  0  0  0  0  0  0
    1.1418   -1.2951   -1.8115 H   0  0  0  0  0  0  0  0  0  0  0  0
    2.4297   -0.6684   -0.7588 H   0  0  0  0  0  0  0  0  0  0  0  0
    1.5236   -2.1142   -0.2788 H   0  0  0  0  0  0  0  0  0  0  0  0
    0.3163    1.1308   -0.6910 C   0  0  0  0  0  0  0  0  0  0  0  0
    1.3048    1.8601   -0.7678 O   0  0  0  0  0  0  0  0  0  0  0  0
   -0.8895    1.5026   -1.1390 N   0  0  0  0  0  0  0  0  0  0  0  0
   -1.6524    0.8527   -1.0359 H   0  0  0  0  0  0  0  0  0  0  0  0
   -1.1650    2.7941   -1.7668 C   0  0  0  0  0  0  0  0  0  0  0  0
   -0.4944    2.9414   -2.6158 H   0  0  0  0  0  0  0  0  0  0  0  0
   -2.1982    2.8348   -2.1144 H   0  0  0  0  0  0  0  0  0  0  0  0
   -0.9942    3.5967   -1.0473 H   0  0  0  0  0  0  0  0  0  0  0  0
  5  6  2  0  0  0  0
  5  7  1  0  0  0  0
  2  3  1  0  0  0  0
  2  4  1  0  0  0  0
  2  5  1  0  0  0  0
  1  2  1  0  0  0  0
 15 16  2  0  0  0  0
 15 17  1  0  0  0  0
 11 12  1  0  0  0  0
 11 13  1  0  0  0  0
 11 14  1  0  0  0  0
  9 10  1  0  0  0  0
  9 11  1  0  0  0  0
  9 15  1  0  0  0  0
  7  8  1  0  0  0  0
  7  9  1  0  0  0  0
 19 20  1  0  0  0  0
 19 21  1  0  0  0  0
 19 22  1  0  0  0  0
 17 18  1  0  0  0  0
 17 19  1  0  0  0  0
M  END
$$$$
default_name
  -OEChem-01062215323D

 22 21  0     1  0  0  0  0  0999 V2000
   -2.5423   -3.6749    0.8058 H   0  0  0  0  0  0  0  0  0  0  0  0
   -2.5063   -2.6779    0.3688 C   0  0  0  0  0  0  0  0  0  0  0  0
   -3.1603   -2.0109    0.9268 H   0  0  0  0  0  0  0  0  0  0  0  0
   -2.8193   -2.7229   -0.6722 H   0  0  0  0  0  0  0  0  0  0  0  0
   -1.0873   -2.1629    0.4418 C   0  0  0  0  0  0  0  0  0  0  0  0
   -0.2073   -2.8549    0.9368 O   0  0  0  0  0  0  0  0  0  0  0  0
   -0.8713   -0.9449   -0.0482 N   0  0  0  0  0  0  0  0  0  0  0  0
   -1.6543   -0.4189   -0.4062 H   0  0  0  0  0  0  0  0  0  0  0  0
    0.4237   -0.2649   -0.0462 C   0  0  1  0  0  0  0  0  0  0  0  0
    0.7513   -0.1332    0.9863 H   0  0  0  0  0  0  0  0  0  0  0  0
    1.4503   -1.1453   -0.7755 C   0  0  0  0  0  0  0  0  0  0  0  0
    1.1418   -1.2951   -1.8115 H   0  0  0  0  0  0  0  0  0  0  0  0
    2.4297   -0.6684   -0.7588 H   0  0  0  0  0  0  0  0  0  0  0  0
    1.5236   -2.1142   -0.2788 H   0  0  0  0  0  0  0  0  0  0  0  0
    0.3163    1.1308   -0.6910 C   0  0  0  0  0  0  0  0  0  0  0  0
    1.3306    1.7461   -1.0189 O   0  0  0  0  0  0  0  0  0  0  0  0
   -0.9146    1.6312   -0.8565 N   0  0  0  0  0  0  0  0  0  0  0  0
   -1.6963    1.0700   -0.5581 H   0  0  0  0  0  0  0  0  0  0  0  0
   -1.1915    2.9420   -1.4423 C   0  0  0  0  0  0  0  0  0  0  0  0
   -0.7279    3.0099   -2.4285 H   0  0  0  0  0  0  0  0  0  0  0  0
   -2.2672    3.0947   -1.5403 H   0  0  0  0  0  0  0  0  0  0  0  0
   -0.7719    3.7245   -0.8078 H   0  0  0  0  0  0  0  0  0  0  0  0
  5  6  2  0  0  0  0
  5  7  1  0  0  0  0
  2  3  1  0  0  0  0
  2  4  1  0  0  0  0
  2  5  1  0  0  0  0
  1  2  1  0  0  0  0
 15 16  2  0  0  0  0
 15 17  1  0  0  0  0
 11 12  1  0  0  0  0
 11 13  1  0  0  0  0
 11 14  1  0  0  0  0
  9 10  1  0  0  0  0
  9 11  1  0  0  0  0
  9 15  1  0  0  0  0
  7  8  1  0  0  0  0
  7  9  1  0  0  0  0
 19 20  1  0  0  0  0
 19 21  1  0  0  0  0
 19 22  1  0  0  0  0
 17 18  1  0  0  0  0
 17 19  1  0  0  0  0
M  END
$$$$
default_name
  -OEChem-01062215323D

 22 21  0     1  0  0  0  0  0999 V2000
   -2.5423   -3.6749    0.8058 H   0  0  0  0  0  0  0  0  0  0  0  0
   -2.5063   -2.6779    0.3688 C   0  0  0  0  0  0  0  0  0  0  0  0
   -3.1603   -2.0109    0.9268 H   0  0  0  0  0  0  0  0  0  0  0  0
   -2.8193   -2.7229   -0.6722 H   0  0  0  0  0  0  0  0  0  0  0  0
   -1.0873   -2.1629    0.4418 C   0  0  0  0  0  0  0  0  0  0  0  0
   -0.2073   -2.8549    0.9368 O   0  0  0  0  0  0  0  0  0  0  0  0
   -0.8713   -0.9449   -0.0482 N   0  0  0  0  0  0  0  0  0  0  0  0
   -1.6543   -0.4189   -0.4062 H   0  0  0  0  0  0  0  0  0  0  0  0
    0.4237   -0.2649   -0.0462 C   0  0  1  0  0  0  0  0  0  0  0  0
    0.7513   -0.1332    0.9863 H   0  0  0  0  0  0  0  0  0  0  0  0
    1.4503   -1.1453   -0.7755 C   0  0  0  0  0  0  0  0  0  0  0  0
    1.1418   -1.2951   -1.8115 H   0  0  0  0  0  0  0  0  0  0  0  0
    2.4297   -0.6684   -0.7588 H   0  0  0  0  0  0  0  0  0  0  0  0
    1.5236   -2.1142   -0.2788 H   0  0  0  0  0  0  0  0  0  0  0  0
    0.3163    1.1308   -0.6910 C   0  0  0  0  0  0  0  0  0  0  0  0
    1.2843    1.6287   -1.2655 O   0  0  0  0  0  0  0  0  0  0  0  0
   -0.8587    1.7632   -0.5800 N   0  0  0  0  0  0  0  0  0  0  0  0
   -1.6033    1.2934   -0.0903 H   0  0  0  0  0  0  0  0  0  0  0  0
   -1.1250    3.0935   -1.1254 C   0  0  0  0  0  0  0  0  0  0  0  0
   -0.9020    3.1048   -2.1941 H   0  0  0  0  0  0  0  0  0  0  0  0
   -2.1710    3.3636   -0.9742 H   0  0  0  0  0  0  0  0  0  0  0  0
   -0.4873    3.8282   -0.6308 H   0  0  0  0  0  0  0  0  0  0  0  0
  5  6  2  0  0  0  0
  5  7  1  0  0  0  0
  2  3  1  0  0  0  0
  2  4  1  0  0  0  0
  2  5  1  0  0  0  0
  1  2  1  0  0  0  0
 15 16  2  0  0  0  0
 15 17  1  0  0  0  0
 11 12  1  0  0  0  0
 11 13  1  0  0  0  0
 11 14  1  0  0  0  0
  9 10  1  0  0  0  0
  9 11  1  0  0  0  0
  9 15  1  0  0  0  0
  7  8  1  0  0  0  0
  7  9  1  0  0  0  0
 19 20  1  0  0  0  0
 19 21  1  0  0  0  0
 19 22  1  0  0  0  0
 17 18  1  0  0  0  0
 17 19  1  0  0  0  0
M  END
$$$$
default_name
  -OEChem-01062215323D

 22 21  0     1  0  0  0  0  0999 V2000
   -2.5423   -3.6749    0.8058 H   0  0  0  0  0  0  0  0  0  0  0  0
   -2.5063   -2.6779    0.3688 C   0  0  0  0  0  0  0  0  0  0  0  0
   -3.1603   -2.0109    0.9268 H   0  0  0  0  0  0  0  0  0  0  0  0
   -2.8193   -2.7229   -0.6722 H   0  0  0  0  0  0  0  0  0  0  0  0
   -1.0873   -2.1629    0.4418 C   0  0  0  0  0  0  0  0  0  0  0  0
   -0.2073   -2.8549    0.9368 O   0  0  0  0  0  0  0  0  0  0  0  0
   -0.8713   -0.9449   -0.0482 N   0  0  0  0  0  0  0  0  0  0  0  0
   -1.6543   -0.4189   -0.4062 H   0  0  0  0  0  0  0  0  0  0  0  0
    0.4237   -0.2649   -0.0462 C   0  0  1  0  0  0  0  0  0  0  0  0
    0.7513   -0.1332    0.9863 H   0  0  0  0  0  0  0  0  0  0  0  0
    1.4503   -1.1453   -0.7755 C   0  0  0  0  0  0  0  0  0  0  0  0
    1.1418   -1.2951   -1.8115 H   0  0  0  0  0  0  0  0  0  0  0  0
    2.4297   -0.6684   -0.7588 H   0  0  0  0  0  0  0  0  0  0  0  0
    1.5236   -2.1142   -0.2788 H   0  0  0  0  0  0  0  0  0  0  0  0
    0.3163    1.1308   -0.6910 C   0  0  0  0  0  0  0  0  0  0  0  0
    1.1691    1.5158   -1.4907 O   0  0  0  0  0  0  0  0  0  0  0  0
   -0.7257    1.8897   -0.3285 N   0  0  0  0  0  0  0  0  0  0  0  0
   -1.3795    1.5074    0.3358 H   0  0  0  0  0  0  0  0  0  0  0  0
   -0.9700    3.2384   -0.8375 C   0  0  0  0  0  0  0  0  0  0  0  0
   -1.0050    3.2195   -1.9286 H   0  0  0  0  0  0  0  0  0  0  0  0
   -1.9164    3.6232   -0.4548 H   0  0  0  0  0  0  0  0  0  0  0  0
   -0.1596    3.9007   -0.5284 H   0  0  0  0  0  0  0  0  0  0  0  0
  5  6  2  0  0  0  0
  5  7  1  0  0  0  0
  2  3  1  0  0  0  0
  2  4  1  0  0  0  0
  2  5  1  0  0  0  0
  1  2  1  0  0  0  0
 15 16  2  0  0  0  0
 15 17  1  0  0  0  0
 11 12  1  0  0  0  0
 11 13  1  0  0  0  0
 11 14  1  0  0  0  0
  9 10  1  0  0  0  0
  9 11  1  0  0  0  0
  9 15  1  0  0  0  0
  7  8  1  0  0  0  0
  7  9  1  0  0  0  0
 19 20  1  0  0  0  0
 19 21  1  0  0  0  0
 19 22  1  0  0  0  0
 17 18  1  0  0  0  0
 17 19  1  0  0  0  0
M  END
$$$$
default_name
  -OEChem-01062215323D

 22 21  0     1  0  0  0  0  0999 V2000
   -2.5423   -3.6749    0.8058 H   0  0  0  0  0  0  0  0  0  0  0  0
   -2.5063   -2.6779    0.3688 C   0  0  0  0  0  0  0  0  0  0  0  0
   -3.1603   -2.0109    0.9268 H   0  0  0  0  0  0  0  0  0  0  0  0
   -2.8193   -2.7229   -0.6722 H   0  0  0  0  0  0  0  0  0  0  0  0
   -1.0873   -2.1629    0.4418 C   0  0  0  0  0  0  0  0  0  0  0  0
   -0.2073   -2.8549    0.9368 O   0  0  0  0  0  0  0  0  0  0  0  0
   -0.8713   -0.9449   -0.0482 N   0  0  0  0  0  0  0  0  0  0  0  0
   -1.6543   -0.4189   -0.4062 H   0  0  0  0  0  0  0  0  0  0  0  0
    0.4237   -0.2649   -0.0462 C   0  0  1  0  0  0  0  0  0  0  0  0
    0.7513   -0.1332    0.9863 H   0  0  0  0  0  0  0  0  0  0  0  0
    1.4503   -1.1453   -0.7755 C   0  0  0  0  0  0  0  0  0  0  0  0
    1.1418   -1.2951   -1.8115 H   0  0  0  0  0  0  0  0  0  0  0  0
    2.4297   -0.6684   -0.7588 H   0  0  0  0  0  0  0  0  0  0  0  0
    1.5236   -2.1142   -0.2788 H   0  0  0  0  0  0  0  0  0  0  0  0
    0.3163    1.1308   -0.6910 C   0  0  0  0  0  0  0  0  0  0  0  0
    0.9928    1.4151   -1.6791 O   0  0  0  0  0  0  0  0  0  0  0  0
   -0.5244    2.0020   -0.1189 N   0  0  0  0  0  0  0  0  0  0  0  0
   -1.0404    1.6976    0.6911 H   0  0  0  0  0  0  0  0  0  0  0  0
   -0.7372    3.3668   -0.5984 C   0  0  0  0  0  0  0  0  0  0  0  0
   -1.0298    3.3463   -1.6501 H   0  0  0  0  0  0  0  0  0  0  0  0
   -1.5206    3.8557   -0.0175 H   0  0  0  0  0  0  0  0  0  0  0  0
    0.1888    3.9371   -0.5076 H   0  0  0  0  0  0  0  0  0  0  0  0
  5  6  2  0  0  0  0
  5  7  1  0  0  0  0
  2  3  1  0  0  0  0
  2  4  1  0  0  0  0
  2  5  1  0  0  0  0
  1  2  1  0  0  0  0
 15 16  2  0  0  0  0
 15 17  1  0  0  0  0
 11 12  1  0  0  0  0
 11 13  1  0  0  0  0
 11 14  1  0  0  0  0
  9 10  1  0  0  0  0
  9 11  1  0  0  0  0
  9 15  1  0  0  0  0
  7  8  1  0  0  0  0
  7  9  1  0  0  0  0
 19 20  1  0  0  0  0
 19 21  1  0  0  0  0
 19 22  1  0  0  0  0
 17 18  1  0  0  0  0
 17 19  1  0  0  0  0
M  END
$$$$
default_name
  -OEChem-01062215323D

 22 21  0     1  0  0  0  0  0999 V2000
   -2.5423   -3.6749    0.8058 H   0  0  0  0  0  0  0  0  0  0  0  0
   -2.5063   -2.6779    0.3688 C   0  0  0  0  0  0  0  0  0  0  0  0
   -3.1603   -2.0109    0.9268 H   0  0  0  0  0  0  0  0  0  0  0  0
   -2.8193   -2.7229   -0.6722 H   0  0  0  0  0  0  0  0  0  0  0  0
   -1.0873   -2.1629    0.4418 C   0  0  0  0  0  0  0  0  0  0  0  0
   -0.2073   -2.8549    0.9368 O   0  0  0  0  0  0  0  0  0  0  0  0
   -0.8713   -0.9449   -0.0482 N   0  0  0  0  0  0  0  0  0  0  0  0
   -1.6543   -0.4189   -0.4062 H   0  0  0  0  0  0  0  0  0  0  0  0
    0.4237   -0.2649   -0.0462 C   0  0  1  0  0  0  0  0  0  0  0  0
    0.7513   -0.1332    0.9863 H   0  0  0  0  0  0  0  0  0  0  0  0
    1.4503   -1.1453   -0.7755 C   0  0  0  0  0  0  0  0  0  0  0  0
    1.1418   -1.2951   -1.8115 H   0  0  0  0  0  0  0  0  0  0  0  0
    2.4297   -0.6684   -0.7588 H   0  0  0  0  0  0  0  0  0  0  0  0
    1.5236   -2.1142   -0.2788 H   0  0  0  0  0  0  0  0  0  0  0  0
    0.3163    1.1308   -0.6910 C   0  0  0  0  0  0  0  0  0  0  0  0
    0.7675    1.3336   -1.8180 O   0  0  0  0  0  0  0  0  0  0  0  0
   -0.2688    2.0924    0.0342 N   0  0  0  0  0  0  0  0  0  0  0  0
   -0.6089    1.8511    0.9514 H   0  0  0  0  0  0  0  0  0  0  0  0
   -0.4424    3.4699   -0.4243 C   0  0  0  0  0  0  0  0  0  0  0  0
   -0.9748    3.4765   -1.3775 H   0  0  0  0  0  0  0  0  0  0  0  0
   -1.0106    4.0453    0.3080 H   0  0  0  0  0  0  0  0  0  0  0  0
    0.5341    3.9349   -0.5699 H   0  0  0  0  0  0  0  0  0  0  0  0
  5  6  2  0  0  0  0
  5  7  1  0  0  0  0
  2  3  1  0  0  0  0
  2  4  1  0  0  0  0
  2  5  1  0  0  0  0
  1  2  1  0  0  0  0
 15 16  2  0  0  0  0
 15 17  1  0  0  0  0
 11 12  1  0  0  0  0
 11 13  1  0  0  0  0
 11 14  1  0  0  0  0
  9 10  1  0  0  0  0
  9 11  1  0  0  0  0
  9 15  1  0  0  0  0
  7  8  1  0  0  0  0
  7  9  1  0  0  0  0
 19 20  1  0  0  0  0
 19 21  1  0  0  0  0
 19 22  1  0  0  0  0
 17 18  1  0  0  0  0
 17 19  1  0  0  0  0
M  END
$$$$
default_name
  -OEChem-01062215323D

 22 21  0     1  0  0  0  0  0999 V2000
   -2.5423   -3.6749    0.8058 H   0  0  0  0  0  0  0  0  0  0  0  0
   -2.5063   -2.6779    0.3688 C   0  0  0  0  0  0  0  0  0  0  0  0
   -3.1603   -2.0109    0.9268 H   0  0  0  0  0  0  0  0  0  0  0  0
   -2.8193   -2.7229   -0.6722 H   0  0  0  0  0  0  0  0  0  0  0  0
   -1.0873   -2.1629    0.4418 C   0  0  0  0  0  0  0  0  0  0  0  0
   -0.2073   -2.8549    0.9368 O   0  0  0  0  0  0  0  0  0  0  0  0
   -0.8713   -0.9449   -0.0482 N   0  0  0  0  0  0  0  0  0  0  0  0
   -1.6543   -0.4189   -0.4062 H   0  0  0  0  0  0  0  0  0  0  0  0
    0.4237   -0.2649   -0.0462 C   0  0  1  0  0  0  0  0  0  0  0  0
    0.7513   -0.1332    0.9863 H   0  0  0  0  0  0  0  0  0  0  0  0
    1.4503   -1.1453   -0.7755 C   0  0  0  0  0  0  0  0  0  0  0  0
    1.1418   -1.2951   -1.8115 H   0  0  0  0  0  0  0  0  0  0  0  0
    2.4297   -0.6684   -0.7588 H   0  0  0  0  0  0  0  0  0  0  0  0
    1.5236   -2.1142   -0.2788 H   0  0  0  0  0  0  0  0  0  0  0  0
    0.3163    1.1308   -0.6910 C   0  0  0  0  0  0  0  0  0  0  0  0
    0.5084    1.2768   -1.8979 O   0  0  0  0  0  0  0  0  0  0  0  0
    0.0238    2.1548    0.1207 N   0  0  0  0  0  0  0  0  0  0  0  0
   -0.1145    1.9573    1.0988 H   0  0  0  0  0  0  0  0  0  0  0  0
   -0.1057    3.5407   -0.3271 C   0  0  0  0  0  0  0  0  0  0  0  0
   -0.8437    3.6011   -1.1295 H   0  0  0  0  0  0  0  0  0  0  0  0
   -0.4211    4.1791    0.4994 H   0  0  0  0  0  0  0  0  0  0  0  0
    0.8529    3.8943   -0.7109 H   0  0  0  0  0  0  0  0  0  0  0  0
  5  6  2  0  0  0  0
  5  7  1  0  0  0  0
  2  3  1  0  0  0  0
  2  4  1  0  0  0  0
  2  5  1  0  0  0  0
  1  2  1  0  0  0  0
 15 16  2  0  0  0  0
 15 17  1  0  0  0  0
 11 12  1  0  0  0  0
 11 13  1  0  0  0  0
 11 14  1  0  0  0  0
  9 10  1  0  0  0  0
  9 11  1  0  0  0  0
  9 15  1  0  0  0  0
  7  8  1  0  0  0  0
  7  9  1  0  0  0  0
 19 20  1  0  0  0  0
 19 21  1  0  0  0  0
 19 22  1  0  0  0  0
 17 18  1  0  0  0  0
 17 19  1  0  0  0  0
M  END
$$$$
default_name
  -OEChem-01062215323D

 22 21  0     1  0  0  0  0  0999 V2000
   -2.5423   -3.6749    0.8058 H   0  0  0  0  0  0  0  0  0  0  0  0
   -2.5063   -2.6779    0.3688 C   0  0  0  0  0  0  0  0  0  0  0  0
   -3.1603   -2.0109    0.9268 H   0  0  0  0  0  0  0  0  0  0  0  0
   -2.8193   -2.7229   -0.6722 H   0  0  0  0  0  0  0  0  0  0  0  0
   -1.0873   -2.1629    0.4418 C   0  0  0  0  0  0  0  0  0  0  0  0
   -0.2073   -2.8549    0.9368 O   0  0  0  0  0  0  0  0  0  0  0  0
   -0.8713   -0.9449   -0.0482 N   0  0  0  0  0  0  0  0  0  0  0  0
   -1.6543   -0.4189   -0.4062 H   0  0  0  0  0  0  0  0  0  0  0  0
    0.4237   -0.2649   -0.0462 C   0  0  1  0  0  0  0  0  0  0  0  0
    0.7513   -0.1332    0.9863 H   0  0  0  0  0  0  0  0  0  0  0  0
    1.4503   -1.1453   -0.7755 C   0  0  0  0  0  0  0  0  0  0  0  0
    1.1418   -1.2951   -1.8115 H   0  0  0  0  0  0  0  0  0  0  0  0
    2.4297   -0.6684   -0.7588 H   0  0  0  0  0  0  0  0  0  0  0  0
    1.5236   -2.1142   -0.2788 H   0  0  0  0  0  0  0  0  0  0  0  0
    0.3163    1.1308   -0.6910 C   0  0  0  0  0  0  0  0  0  0  0  0
    0.2333    1.2485   -1.9133 O   0  0  0  0  0  0  0  0  0  0  0  0
    0.3334    2.1850    0.1344 N   0  0  0  0  0  0  0  0  0  0  0  0
    0.4091    2.0089    1.1235 H   0  0  0  0  0  0  0  0  0  0  0  0
    0.2501    3.5744   -0.3134 C   0  0  0  0  0  0  0  0  0  0  0  0
   -0.6454    3.7118   -0.9229 H   0  0  0  0  0  0  0  0  0  0  0  0
    0.2076    4.2479    0.5437 H   0  0  0  0  0  0  0  0  0  0  0  0
    1.1233    3.8180   -0.9211 H   0  0  0  0  0  0  0  0  0  0  0  0
  5  6  2  0  0  0  0
  5  7  1  0  0  0  0
  2  3  1  0  0  0  0
  2  4  1  0  0  0  0
  2  5  1  0  0  0  0
  1  2  1  0  0  0  0
 15 16  2  0  0  0  0
 15 17  1  0  0  0  0
 11 12  1  0  0  0  0
 11 13  1  0  0  0  0
 11 14  1  0  0  0  0
  9 10  1  0  0  0  0
  9 11  1  0  0  0  0
  9 15  1  0  0  0  0
  7  8  1  0  0  0  0
  7  9  1  0  0  0  0
 19 20  1  0  0  0  0
 19 21  1  0  0  0  0
 19 22  1  0  0  0  0
 17 18  1  0  0  0  0
 17 19  1  0  0  0  0
M  END
$$$$
default_name
  -OEChem-01062215323D

 22 21  0     1  0  0  0  0  0999 V2000
   -2.5423   -3.6749    0.8058 H   0  0  0  0  0  0  0  0  0  0  0  0
   -2.5063   -2.6779    0.3688 C   0  0  0  0  0  0  0  0  0  0  0  0
   -3.1603   -2.0109    0.9268 H   0  0  0  0  0  0  0  0  0  0  0  0
   -2.8193   -2.7229   -0.6722 H   0  0  0  0  0  0  0  0  0  0  0  0
   -1.0873   -2.1629    0.4418 C   0  0  0  0  0  0  0  0  0  0  0  0
   -0.2073   -2.8549    0.9368 O   0  0  0  0  0  0  0  0  0  0  0  0
   -0.8713   -0.9449   -0.0482 N   0  0  0  0  0  0  0  0  0  0  0  0
   -1.6543   -0.4189   -0.4062 H   0  0  0  0  0  0  0  0  0  0  0  0
    0.4237   -0.2649   -0.0462 C   0  0  1  0  0  0  0  0  0  0  0  0
    0.7513   -0.1332    0.9863 H   0  0  0  0  0  0  0  0  0  0  0  0
    1.4503   -1.1453   -0.7755 C   0  0  0  0  0  0  0  0  0  0  0  0
    1.1418   -1.2951   -1.8115 H   0  0  0  0  0  0  0  0  0  0  0  0
    2.4297   -0.6684   -0.7588 H   0  0  0  0  0  0  0  0  0  0  0  0
    1.5236   -2.1142   -0.2788 H   0  0  0  0  0  0  0  0  0  0  0  0
    0.3163    1.1308   -0.6910 C   0  0  0  0  0  0  0  0  0  0  0  0
   -0.0391    1.2507   -1.8632 O   0  0  0  0  0  0  0  0  0  0  0  0
    0.6390    2.1809    0.0746 N   0  0  0  0  0  0  0  0  0  0  0  0
    0.9263    2.0026    1.0237 H   0  0  0  0  0  0  0  0  0  0  0  0
    0.6005    3.5687   -0.3842 C   0  0  0  0  0  0  0  0  0  0  0  0
   -0.3934    3.8010   -0.7718 H   0  0  0  0  0  0  0  0  0  0  0  0
    0.8327    4.2472    0.4379 H   0  0  0  0  0  0  0  0  0  0  0  0
    1.3269    3.7112   -1.1861 H   0  0  0  0  0  0  0  0  0  0  0  0
  5  6  2  0  0  0  0
  5  7  1  0  0  0  0
  2  3  1  0  0  0  0
  2  4  1  0  0  0  0
  2  5  1  0  0  0  0
  1  2  1  0  0  0  0
 15 16  2  0  0  0  0
 15 17  1  0  0  0  0
 11 12  1  0  0  0  0
 11 13  1  0  0  0  0
 11 14  1  0  0  0  0
  9 10  1  0  0  0  0
  9 11  1  0  0  0  0
  9 15  1  0  0  0  0
  7  8  1  0  0  0  0
  7  9  1  0  0  0  0
 19 20  1  0  0  0  0
 19 21  1  0  0  0  0
 19 22  1  0  0  0  0
 17 18  1  0  0  0  0
 17 19  1  0  0  0  0
M  END
$$$$
default_name
  -OEChem-01062215323D

 22 21  0     1  0  0  0  0  0999 V2000
   -2.5423   -3.6749    0.8058 H   0  0  0  0  0  0  0  0  0  0  0  0
   -2.5063   -2.6779    0.3688 C   0  0  0  0  0  0  0  0  0  0  0  0
   -3.1603   -2.0109    0.9268 H   0  0  0  0  0  0  0  0  0  0  0  0
   -2.8193   -2.7229   -0.6722 H   0  0  0  0  0  0  0  0  0  0  0  0
   -1.0873   -2.1629    0.4418 C   0  0  0  0  0  0  0  0  0  0  0  0
   -0.2073   -2.8549    0.9368 O   0  0  0  0  0  0  0  0  0  0  0  0
   -0.8713   -0.9449   -0.0482 N   0  0  0  0  0  0  0  0  0  0  0  0
   -1.6543   -0.4189   -0.4062 H   0  0  0  0  0  0  0  0  0  0  0  0
    0.4237   -0.2649   -0.0462 C   0  0  1  0  0  0  0  0  0  0  0  0
    0.7513   -0.1332    0.9863 H   0  0  0  0  0  0  0  0  0  0  0  0
    1.4503   -1.1453   -0.7755 C   0  0  0  0  0  0  0  0  0  0  0  0
    1.1418   -1.2951   -1.8115 H   0  0  0  0  0  0  0  0  0  0  0  0
    2.4297   -0.6684   -0.7588 H   0  0  0  0  0  0  0  0  0  0  0  0
    1.5236   -2.1142   -0.2788 H   0  0  0  0  0  0  0  0  0  0  0  0
    0.3163    1.1308   -0.6910 C   0  0  0  0  0  0  0  0  0  0  0  0
   -0.2903    1.2832   -1.7510 O   0  0  0  0  0  0  0  0  0  0  0  0
    0.9197    2.1428   -0.0547 N   0  0  0  0  0  0  0  0  0  0  0  0
    1.4017    1.9387    0.8061 H   0  0  0  0  0  0  0  0  0  0  0  0
    0.9218    3.5239   -0.5346 C   0  0  0  0  0  0  0  0  0  0  0  0
   -0.1050    3.8626   -0.6865 H   0  0  0  0  0  0  0  0  0  0  0  0
    1.4116    4.1768    0.1892 H   0  0  0  0  0  0  0  0  0  0  0  0
    1.4500    3.5813   -1.4879 H   0  0  0  0  0  0  0  0  0  0  0  0
  5  6  2  0  0  0  0
  5  7  1  0  0  0  0
  2  3  1  0  0  0  0
  2  4  1  0  0  0  0
  2  5  1  0  0  0  0
  1  2  1  0  0  0  0
 15 16  2  0  0  0  0
 15 17  1  0  0  0  0
 11 12  1  0  0  0  0
 11 13  1  0  0  0  0
 11 14  1  0  0  0  0
  9 10  1  0  0  0  0
  9 11  1  0  0  0  0
  9 15  1  0  0  0  0
  7  8  1  0  0  0  0
  7  9  1  0  0  0  0
 19 20  1  0  0  0  0
 19 21  1  0  0  0  0
 19 22  1  0  0  0  0
 17 18  1  0  0  0  0
 17 19  1  0  0  0  0
M  END
$$$$
default_name
  -OEChem-01062215323D

 22 21  0     1  0  0  0  0  0999 V2000
   -2.5423   -3.6749    0.8058 H   0  0  0  0  0  0  0  0  0  0  0  0
   -2.5063   -2.6779    0.3688 C   0  0  0  0  0  0  0  0  0  0  0  0
   -3.1603   -2.0109    0.9268 H   0  0  0  0  0  0  0  0  0  0  0  0
   -2.8193   -2.7229   -0.6722 H   0  0  0  0  0  0  0  0  0  0  0  0
   -1.0873   -2.1629    0.4418 C   0  0  0  0  0  0  0  0  0  0  0  0
   -0.2073   -2.8549    0.9368 O   0  0  0  0  0  0  0  0  0  0  0  0
   -0.8713   -0.9449   -0.0482 N   0  0  0  0  0  0  0  0  0  0  0  0
   -1.6543   -0.4189   -0.4062 H   0  0  0  0  0  0  0  0  0  0  0  0
    0.4237   -0.2649   -0.0462 C   0  0  1  0  0  0  0  0  0  0  0  0
    0.7513   -0.1332    0.9863 H   0  0  0  0  0  0  0  0  0  0  0  0
    1.4503   -1.1453   -0.7755 C   0  0  0  0  0  0  0  0  0  0  0  0
    1.1418   -1.2951   -1.8115 H   0  0  0  0  0  0  0  0  0  0  0  0
    2.4297   -0.6684   -0.7588 H   0  0  0  0  0  0  0  0  0  0  0  0
    1.5236   -2.1142   -0.2788 H   0  0  0  0  0  0  0  0  0  0  0  0
    0.3163    1.1308   -0.6910 C   0  0  0  0  0  0  0  0  0  0  0  0
   -0.5030    1.3438   -1.5844 O   0  0  0  0  0  0  0  0  0  0  0  0
    1.1564    2.0732   -0.2448 N   0  0  0  0  0  0  0  0  0  0  0  0
    1.8031    1.8216    0.4857 H   0  0  0  0  0  0  0  0  0  0  0  0
    1.1921    3.4432   -0.7544 C   0  0  0  0  0  0  0  0  0  0  0  0
    0.2003    3.8924   -0.6728 H   0  0  0  0  0  0  0  0  0  0  0  0
    1.9050    4.0417   -0.1855 H   0  0  0  0  0  0  0  0  0  0  0  0
    1.4840    3.4370   -1.8059 H   0  0  0  0  0  0  0  0  0  0  0  0
  5  6  2  0  0  0  0
  5  7  1  0  0  0  0
  2  3  1  0  0  0  0
  2  4  1  0  0  0  0
  2  5  1  0  0  0  0
  1  2  1  0  0  0  0
 15 16  2  0  0  0  0
 15 17  1  0  0  0  0
 11 12  1  0  0  0  0
 11 13  1  0  0  0  0
 11 14  1  0  0  0  0
  9 10  1  0  0  0  0
  9 11  1  0  0  0  0
  9 15  1  0  0  0  0
  7  8  1  0  0  0  0
  7  9  1  0  0  0  0
 19 20  1  0  0  0  0
 19 21  1  0  0  0  0
 19 22  1  0  0  0  0
 17 18  1  0  0  0  0
 17 19  1  0  0  0  0
M  END
$$$$
default_name
  -OEChem-01062215323D

 22 21  0     1  0  0  0  0  0999 V2000
   -2.5423   -3.6749    0.8058 H   0  0  0  0  0  0  0  0  0  0  0  0
   -2.5063   -2.6779    0.3688 C   0  0  0  0  0  0  0  0  0  0  0  0
   -3.1603   -2.0109    0.9268 H   0  0  0  0  0  0  0  0  0  0  0  0
   -2.8193   -2.7229   -0.6722 H   0  0  0  0  0  0  0  0  0  0  0  0
   -1.0873   -2.1629    0.4418 C   0  0  0  0  0  0  0  0  0  0  0  0
   -0.2073   -2.8549    0.9368 O   0  0  0  0  0  0  0  0  0  0  0  0
   -0.8713   -0.9449   -0.0482 N   0  0  0  0  0  0  0  0  0  0  0  0
   -1.6543   -0.4189   -0.4062 H   0  0  0  0  0  0  0  0  0  0  0  0
    0.4237   -0.2649   -0.0462 C   0  0  1  0  0  0  0  0  0  0  0  0
    0.7513   -0.1332    0.9863 H   0  0  0  0  0  0  0  0  0  0  0  0
    1.4503   -1.1453   -0.7755 C   0  0  0  0  0  0  0  0  0  0  0  0
    1.1418   -1.2951   -1.8115 H   0  0  0  0  0  0  0  0  0  0  0  0
    2.4297   -0.6684   -0.7588 H   0  0  0  0  0  0  0  0  0  0  0  0
    1.5236   -2.1142   -0.2788 H   0  0  0  0  0  0  0  0  0  0  0  0
    0.3163    1.1308   -0.6910 C   0  0  0  0  0  0  0  0  0  0  0  0
   -0.6629    1.4284   -1.3746 O   0  0  0  0  0  0  0  0  0  0  0  0
    1.3330    1.9769   -0.4826 N   0  0  0  0  0  0  0  0  0  0  0  0
    2.1029    1.6592    0.0842 H   0  0  0  0  0  0  0  0  0  0  0  0
    1.3929    3.3320   -1.0286 C   0  0  0  0  0  0  0  0  0  0  0  0
    0.5016    3.8884   -0.7317 H   0  0  0  0  0  0  0  0  0  0  0  0
    2.2790    3.8510   -0.6605 H   0  0  0  0  0  0  0  0  0  0  0  0
    1.4267    3.2882   -2.1185 H   0  0  0  0  0  0  0  0  0  0  0  0
  5  6  2  0  0  0  0
  5  7  1  0  0  0  0
  2  3  1  0  0  0  0
  2  4  1  0  0  0  0
  2  5  1  0  0  0  0
  1  2  1  0  0  0  0
 15 16  2  0  0  0  0
 15 17  1  0  0  0  0
 11 12  1  0  0  0  0
 11 13  1  0  0  0  0
 11 14  1  0  0  0  0
  9 10  1  0  0  0  0
  9 11  1  0  0  0  0
  9 15  1  0  0  0  0
  7  8  1  0  0  0  0
  7  9  1  0  0  0  0
 19 20  1  0  0  0  0
 19 21  1  0  0  0  0
 19 22  1  0  0  0  0
 17 18  1  0  0  0  0
 17 19  1  0  0  0  0
M  END
$$$$
default_name
  -OEChem-01062215323D

 22 21  0     1  0  0  0  0  0999 V2000
   -2.5423   -3.6749    0.8058 H   0  0  0  0  0  0  0  0  0  0  0  0
   -2.5063   -2.6779    0.3688 C   0  0  0  0  0  0  0  0  0  0  0  0
   -3.1603   -2.0109    0.9268 H   0  0  0  0  0  0  0  0  0  0  0  0
   -2.8193   -2.7229   -0.6722 H   0  0  0  0  0  0  0  0  0  0  0  0
   -1.0873   -2.1629    0.4418 C   0  0  0  0  0  0  0  0  0  0  0  0
   -0.2073   -2.8549    0.9368 O   0  0  0  0  0  0  0  0  0  0  0  0
   -0.8713   -0.9449   -0.0482 N   0  0  0  0  0  0  0  0  0  0  0  0
   -1.6543   -0.4189   -0.4062 H   0  0  0  0  0  0  0  0  0  0  0  0
    0.4237   -0.2649   -0.0462 C   0  0  1  0  0  0  0  0  0  0  0  0
    0.8750   -0.3686    0.9419 H   0  0  0  0  0  0  0  0  0  0  0  0
    1.3429   -0.9399   -1.0759 C   0  0  0  0  0  0  0  0  0  0  0  0
    0.9100   -0.8528   -2.0738 H   0  0  0  0  0  0  0  0  0  0  0  0
    2.3237   -0.4655   -1.0683 H   0  0  0  0  0  0  0  0  0  0  0  0
    1.4623   -1.9957   -0.8270 H   0  0  0  0  0  0  0  0  0  0  0  0
    0.2586    1.2397   -0.3363 C   0  0  0  0  0  0  0  0  0  0  0  0
   -0.8570    1.7159   -0.5451 O   0  0  0  0  0  0  0  0  0  0  0  0
    1.3740    1.9800   -0.3627 N   0  0  0  0  0  0  0  0  0  0  0  0
    2.2518    1.5176   -0.1873 H   0  0  0  0  0  0  0  0  0  0  0  0
    1.3943    3.4171   -0.6316 C   0  0  0  0  0  0  0  0  0  0  0  0
    0.7342    3.9323    0.0691 H   0  0  0  0  0  0  0  0  0  0  0  0
    2.4067    3.8092   -0.5252 H   0  0  0  0  0  0  0  0  0  0  0  0
    1.0385    3.6066   -1.6458 H   0  0  0  0  0  0  0  0  0  0  0  0
  5  6  2  0  0  0  0
  5  7  1  0  0  0  0
  2  3  1  0  0  0  0
  2  4  1  0  0  0  0
  2  5  1  0  0  0  0
  1  2  1  0  0  0  0
 15 16  2  0  0  0  0
 15 17  1  0  0  0  0
 11 12  1  0  0  0  0
 11 13  1  0  0  0  0
 11 14  1  0  0  0  0
  9 10  1  0  0  0  0
  9 11  1  0  0  0  0
  9 15  1  0  0  0  0
  7  8  1  0  0  0  0
  7  9  1  0  0  0  0
 19 20  1  0  0  0  0
 19 21  1  0  0  0  0
 19 22  1  0  0  0  0
 17 18  1  0  0  0  0
 17 19  1  0  0  0  0
M  END
$$$$
default_name
  -OEChem-01062215323D

 22 21  0     1  0  0  0  0  0999 V2000
   -2.5423   -3.6749    0.8058 H   0  0  0  0  0  0  0  0  0  0  0  0
   -2.5063   -2.6779    0.3688 C   0  0  0  0  0  0  0  0  0  0  0  0
   -3.1603   -2.0109    0.9268 H   0  0  0  0  0  0  0  0  0  0  0  0
   -2.8193   -2.7229   -0.6722 H   0  0  0  0  0  0  0  0  0  0  0  0
   -1.0873   -2.1629    0.4418 C   0  0  0  0  0  0  0  0  0  0  0  0
   -0.2073   -2.8549    0.9368 O   0  0  0  0  0  0  0  0  0  0  0  0
   -0.8713   -0.9449   -0.0482 N   0  0  0  0  0  0  0  0  0  0  0  0
   -1.6543   -0.4189   -0.4062 H   0  0  0  0  0  0  0  0  0  0  0  0
    0.4237   -0.2649   -0.0462 C   0  0  1  0  0  0  0  0  0  0  0  0
    0.8750   -0.3686    0.9419 H   0  0  0  0  0  0  0  0  0  0  0  0
    1.3429   -0.9399   -1.0759 C   0  0  0  0  0  0  0  0  0  0  0  0
    0.9100   -0.8528   -2.0738 H   0  0  0  0  0  0  0  0  0  0  0  0
    2.3237   -0.4655   -1.0683 H   0  0  0  0  0  0  0  0  0  0  0  0
    1.4623   -1.9957   -0.8270 H   0  0  0  0  0  0  0  0  0  0  0  0
    0.2586    1.2397   -0.3363 C   0  0  0  0  0  0  0  0  0  0  0  0
   -0.8508    1.7690   -0.2733 O   0  0  0  0  0  0  0  0  0  0  0  0
    1.3632    1.9200   -0.6681 N   0  0  0  0  0  0  0  0  0  0  0  0
    2.2349    1.4162   -0.7039 H   0  0  0  0  0  0  0  0  0  0  0  0
    1.3795    3.3479   -0.9821 C   0  0  0  0  0  0  0  0  0  0  0  0
    0.9424    3.9118   -0.1556 H   0  0  0  0  0  0  0  0  0  0  0  0
    2.4025    3.6888   -1.1476 H   0  0  0  0  0  0  0  0  0  0  0  0
    0.7873    3.5339   -1.8797 H   0  0  0  0  0  0  0  0  0  0  0  0
  5  6  2  0  0  0  0
  5  7  1  0  0  0  0
  2  3  1  0  0  0  0
  2  4  1  0  0  0  0
  2  5  1  0  0  0  0
  1  2  1  0  0  0  0
 15 16  2  0  0  0  0
 15 17  1  0  0  0  0
 11 12  1  0  0  0  0
 11 13  1  0  0  0  0
 11 14  1  0  0  0  0
  9 10  1  0  0  0  0
  9 11  1  0  0  0  0
  9 15  1  0  0  0  0
  7  8  1  0  0  0  0
  7  9  1  0  0  0  0
 19 20  1  0  0  0  0
 19 21  1  0  0  0  0
 19 22  1  0  0  0  0
 17 18  1  0  0  0  0
 17 19  1  0  0  0  0
M  END
$$$$
default_name
  -OEChem-01062215323D

 22 21  0     1  0  0  0  0  0999 V2000
   -2.5423   -3.6749    0.8058 H   0  0  0  0  0  0  0  0  0  0  0  0
   -2.5063   -2.6779    0.3688 C   0  0  0  0  0  0  0  0  0  0  0  0
   -3.1603   -2.0109    0.9268 H   0  0  0  0  0  0  0  0  0  0  0  0
   -2.8193   -2.7229   -0.6722 H   0  0  0  0  0  0  0  0  0  0  0  0
   -1.0873   -2.1629    0.4418 C   0  0  0  0  0  0  0  0  0  0  0  0
   -0.2073   -2.8549    0.9368 O   0  0  0  0  0  0  0  0  0  0  0  0
   -0.8713   -0.9449   -0.0482 N   0  0  0  0  0  0  0  0  0  0  0  0
   -1.6543   -0.4189   -0.4062 H   0  0  0  0  0  0  0  0  0  0  0  0
    0.4237   -0.2649   -0.0462 C   0  0  1  0  0  0  0  0  0  0  0  0
    0.8750   -0.3686    0.9419 H   0  0  0  0  0  0  0  0  0  0  0  0
    1.3429   -0.9399   -1.0759 C   0  0  0  0  0  0  0  0  0  0  0  0
    0.9100   -0.8528   -2.0738 H   0  0  0  0  0  0  0  0  0  0  0  0
    2.3237   -0.4655   -1.0683 H   0  0  0  0  0  0  0  0  0  0  0  0
    1.4623   -1.9957   -0.8270 H   0  0  0  0  0  0  0  0  0  0  0  0
    0.2586    1.2397   -0.3363 C   0  0  0  0  0  0  0  0  0  0  0  0
   -0.7736    1.8275   -0.0138 O   0  0  0  0  0  0  0  0  0  0  0  0
    1.2726    1.8540   -0.9586 N   0  0  0  0  0  0  0  0  0  0  0  0
    2.0831    1.3047   -1.1958 H   0  0  0  0  0  0  0  0  0  0  0  0
    1.2733    3.2721   -1.3150 C   0  0  0  0  0  0  0  0  0  0  0  0
    1.0858    3.8757   -0.4247 H   0  0  0  0  0  0  0  0  0  0  0  0
    2.2353    3.5554   -1.7445 H   0  0  0  0  0  0  0  0  0  0  0  0
    0.4820    3.4695   -2.0402 H   0  0  0  0  0  0  0  0  0  0  0  0
  5  6  2  0  0  0  0
  5  7  1  0  0  0  0
  2  3  1  0  0  0  0
  2  4  1  0  0  0  0
  2  5  1  0  0  0  0
  1  2  1  0  0  0  0
 15 16  2  0  0  0  0
 15 17  1  0  0  0  0
 11 12  1  0  0  0  0
 11 13  1  0  0  0  0
 11 14  1  0  0  0  0
  9 10  1  0  0  0  0
  9 11  1  0  0  0  0
  9 15  1  0  0  0  0
  7  8  1  0  0  0  0
  7  9  1  0  0  0  0
 19 20  1  0  0  0  0
 19 21  1  0  0  0  0
 19 22  1  0  0  0  0
 17 18  1  0  0  0  0
 17 19  1  0  0  0  0
M  END
$$$$
default_name
  -OEChem-01062215323D

 22 21  0     1  0  0  0  0  0999 V2000
   -2.5423   -3.6749    0.8058 H   0  0  0  0  0  0  0  0  0  0  0  0
   -2.5063   -2.6779    0.3688 C   0  0  0  0  0  0  0  0  0  0  0  0
   -3.1603   -2.0109    0.9268 H   0  0  0  0  0  0  0  0  0  0  0  0
   -2.8193   -2.7229   -0.6722 H   0  0  0  0  0  0  0  0  0  0  0  0
   -1.0873   -2.1629    0.4418 C   0  0  0  0  0  0  0  0  0  0  0  0
   -0.2073   -2.8549    0.9368 O   0  0  0  0  0  0  0  0  0  0  0  0
   -0.8713   -0.9449   -0.0482 N   0  0  0  0  0  0  0  0  0  0  0  0
   -1.6543   -0.4189   -0.4062 H   0  0  0  0  0  0  0  0  0  0  0  0
    0.4237   -0.2649   -0.0462 C   0  0  1  0  0  0  0  0  0  0  0  0
    0.8750   -0.3686    0.9419 H   0  0  0  0  0  0  0  0  0  0  0  0
    1.3429   -0.9399   -1.0759 C   0  0  0  0  0  0  0  0  0  0  0  0
    0.9100   -0.8528   -2.0738 H   0  0  0  0  0  0  0  0  0  0  0  0
    2.3237   -0.4655   -1.0683 H   0  0  0  0  0  0  0  0  0  0  0  0
    1.4623   -1.9957   -0.8270 H   0  0  0  0  0  0  0  0  0  0  0  0
    0.2586    1.2397   -0.3363 C   0  0  0  0  0  0  0  0  0  0  0  0
   -0.6306    1.8874    0.2158 O   0  0  0  0  0  0  0  0  0  0  0  0
    1.1085    1.7867   -1.2146 N   0  0  0  0  0  0  0  0  0  0  0  0
    1.8068    1.1907   -1.6296 H   0  0  0  0  0  0  0  0  0  0  0  0
    1.0829    3.1948   -1.6076 C   0  0  0  0  0  0  0  0  0  0  0  0
    1.1545    3.8263   -0.7199 H   0  0  0  0  0  0  0  0  0  0  0  0
    1.9164    3.4181   -2.2750 H   0  0  0  0  0  0  0  0  0  0  0  0
    0.1434    3.4176   -2.1163 H   0  0  0  0  0  0  0  0  0  0  0  0
  5  6  2  0  0  0  0
  5  7  1  0  0  0  0
  2  3  1  0  0  0  0
  2  4  1  0  0  0  0
  2  5  1  0  0  0  0
  1  2  1  0  0  0  0
 15 16  2  0  0  0  0
 15 17  1  0  0  0  0
 11 12  1  0  0  0  0
 11 13  1  0  0  0  0
 11 14  1  0  0  0  0
  9 10  1  0  0  0  0
  9 11  1  0  0  0  0
  9 15  1  0  0  0  0
  7  8  1  0  0  0  0
  7  9  1  0  0  0  0
 19 20  1  0  0  0  0
 19 21  1  0  0  0  0
 19 22  1  0  0  0  0
 17 18  1  0  0  0  0
 17 19  1  0  0  0  0
M  END
$$$$
default_name
  -OEChem-01062215323D

 22 21  0     1  0  0  0  0  0999 V2000
   -2.5423   -3.6749    0.8058 H   0  0  0  0  0  0  0  0  0  0  0  0
   -2.5063   -2.6779    0.3688 C   0  0  0  0  0  0  0  0  0  0  0  0
   -3.1603   -2.0109    0.9268 H   0  0  0  0  0  0  0  0  0  0  0  0
   -2.8193   -2.7229   -0.6722 H   0  0  0  0  0  0  0  0  0  0  0  0
   -1.0873   -2.1629    0.4418 C   0  0  0  0  0  0  0  0  0  0  0  0
   -0.2073   -2.8549    0.9368 O   0  0  0  0  0  0  0  0  0  0  0  0
   -0.8713   -0.9449   -0.0482 N   0  0  0  0  0  0  0  0  0  0  0  0
   -1.6543   -0.4189   -0.4062 H   0  0  0  0  0  0  0  0  0  0  0  0
    0.4237   -0.2649   -0.0462 C   0  0  1  0  0  0  0  0  0  0  0  0
    0.8750   -0.3686    0.9419 H   0  0  0  0  0  0  0  0  0  0  0  0
    1.3429   -0.9399   -1.0759 C   0  0  0  0  0  0  0  0  0  0  0  0
    0.9100   -0.8528   -2.0738 H   0  0  0  0  0  0  0  0  0  0  0  0
    2.3237   -0.4655   -1.0683 H   0  0  0  0  0  0  0  0  0  0  0  0
    1.4623   -1.9957   -0.8270 H   0  0  0  0  0  0  0  0  0  0  0  0
    0.2586    1.2397   -0.3363 C   0  0  0  0  0  0  0  0  0  0  0  0
   -0.4316    1.9447    0.3997 O   0  0  0  0  0  0  0  0  0  0  0  0
    0.8820    1.7225   -1.4185 N   0  0  0  0  0  0  0  0  0  0  0  0
    1.4248    1.0821   -1.9755 H   0  0  0  0  0  0  0  0  0  0  0  0
    0.8212    3.1213   -1.8400 C   0  0  0  0  0  0  0  0  0  0  0  0
    1.1439    3.7671   -1.0209 H   0  0  0  0  0  0  0  0  0  0  0  0
    1.4677    3.2864   -2.7031 H   0  0  0  0  0  0  0  0  0  0  0  0
   -0.2054    3.3819   -2.1028 H   0  0  0  0  0  0  0  0  0  0  0  0
  5  6  2  0  0  0  0
  5  7  1  0  0  0  0
  2  3  1  0  0  0  0
  2  4  1  0  0  0  0
  2  5  1  0  0  0  0
  1  2  1  0  0  0  0
 15 16  2  0  0  0  0
 15 17  1  0  0  0  0
 11 12  1  0  0  0  0
 11 13  1  0  0  0  0
 11 14  1  0  0  0  0
  9 10  1  0  0  0  0
  9 11  1  0  0  0  0
  9 15  1  0  0  0  0
  7  8  1  0  0  0  0
  7  9  1  0  0  0  0
 19 20  1  0  0  0  0
 19 21  1  0  0  0  0
 19 22  1  0  0  0  0
 17 18  1  0  0  0  0
 17 19  1  0  0  0  0
M  END
$$$$
default_name
  -OEChem-01062215323D

 22 21  0     1  0  0  0  0  0999 V2000
   -2.5423   -3.6749    0.8058 H   0  0  0  0  0  0  0  0  0  0  0  0
   -2.5063   -2.6779    0.3688 C   0  0  0  0  0  0  0  0  0  0  0  0
   -3.1603   -2.0109    0.9268 H   0  0  0  0  0  0  0  0  0  0  0  0
   -2.8193   -2.7229   -0.6722 H   0  0  0  0  0  0  0  0  0  0  0  0
   -1.0873   -2.1629    0.4418 C   0  0  0  0  0  0  0  0  0  0  0  0
   -0.2073   -2.8549    0.9368 O   0  0  0  0  0  0  0  0  0  0  0  0
   -0.8713   -0.9449   -0.0482 N   0  0  0  0  0  0  0  0  0  0  0  0
   -1.6543   -0.4189   -0.4062 H   0  0  0  0  0  0  0  0  0  0  0  0
    0.4237   -0.2649   -0.0462 C   0  0  1  0  0  0  0  0  0  0  0  0
    0.8750   -0.3686    0.9419 H   0  0  0  0  0  0  0  0  0  0  0  0
    1.3429   -0.9399   -1.0759 C   0  0  0  0  0  0  0  0  0  0  0  0
    0.9100   -0.8528   -2.0738 H   0  0  0  0  0  0  0  0  0  0  0  0
    2.3237   -0.4655   -1.0683 H   0  0  0  0  0  0  0  0  0  0  0  0
    1.4623   -1.9957   -0.8270 H   0  0  0  0  0  0  0  0  0  0  0  0
    0.2586    1.2397   -0.3363 C   0  0  0  0  0  0  0  0  0  0  0  0
   -0.1900    1.9955    0.5254 O   0  0  0  0  0  0  0  0  0  0  0  0
    0.6086    1.6659   -1.5564 N   0  0  0  0  0  0  0  0  0  0  0  0
    0.9631    0.9862   -2.2102 H   0  0  0  0  0  0  0  0  0  0  0  0
    0.5062    3.0566   -1.9963 C   0  0  0  0  0  0  0  0  0  0  0  0
    1.0547    3.7021   -1.3074 H   0  0  0  0  0  0  0  0  0  0  0  0
    0.9197    3.1691   -2.9996 H   0  0  0  0  0  0  0  0  0  0  0  0
   -0.5407    3.3648   -2.0006 H   0  0  0  0  0  0  0  0  0  0  0  0
  5  6  2  0  0  0  0
  5  7  1  0  0  0  0
  2  3  1  0  0  0  0
  2  4  1  0  0  0  0
  2  5  1  0  0  0  0
  1  2  1  0  0  0  0
 15 16  2  0  0  0  0
 15 17  1  0  0  0  0
 11 12  1  0  0  0  0
 11 13  1  0  0  0  0
 11 14  1  0  0  0  0
  9 10  1  0  0  0  0
  9 11  1  0  0  0  0
  9 15  1  0  0  0  0
  7  8  1  0  0  0  0
  7  9  1  0  0  0  0
 19 20  1  0  0  0  0
 19 21  1  0  0  0  0
 19 22  1  0  0  0  0
 17 18  1  0  0  0  0
 17 19  1  0  0  0  0
M  END
$$$$
default_name
  -OEChem-01062215323D

 22 21  0     1  0  0  0  0  0999 V2000
   -2.5423   -3.6749    0.8058 H   0  0  0  0  0  0  0  0  0  0  0  0
   -2.5063   -2.6779    0.3688 C   0  0  0  0  0  0  0  0  0  0  0  0
   -3.1603   -2.0109    0.9268 H   0  0  0  0  0  0  0  0  0  0  0  0
   -2.8193   -2.7229   -0.6722 H   0  0  0  0  0  0  0  0  0  0  0  0
   -1.0873   -2.1629    0.4418 C   0  0  0  0  0  0  0  0  0  0  0  0
   -0.2073   -2.8549    0.9368 O   0  0  0  0  0  0  0  0  0  0  0  0
   -0.8713   -0.9449   -0.0482 N   0  0  0  0  0  0  0  0  0  0  0  0
   -1.6543   -0.4189   -0.4062 H   0  0  0  0  0  0  0  0  0  0  0  0
    0.4237   -0.2649   -0.0462 C   0  0  1  0  0  0  0  0  0  0  0  0
    0.8750   -0.3686    0.9419 H   0  0  0  0  0  0  0  0  0  0  0  0
    1.3429   -0.9399   -1.0759 C   0  0  0  0  0  0  0  0  0  0  0  0
    0.9100   -0.8528   -2.0738 H   0  0  0  0  0  0  0  0  0  0  0  0
    2.3237   -0.4655   -1.0683 H   0  0  0  0  0  0  0  0  0  0  0  0
    1.4623   -1.9957   -0.8270 H   0  0  0  0  0  0  0  0  0  0  0  0
    0.2586    1.2397   -0.3363 C   0  0  0  0  0  0  0  0  0  0  0  0
    0.0775    2.0362    0.5844 O   0  0  0  0  0  0  0  0  0  0  0  0
    0.3069    1.6207   -1.6190 N   0  0  0  0  0  0  0  0  0  0  0  0
    0.4531    0.9096   -2.3175 H   0  0  0  0  0  0  0  0  0  0  0  0
    0.1593    3.0051   -2.0659 C   0  0  0  0  0  0  0  0  0  0  0  0
    0.8929    3.6357   -1.5598 H   0  0  0  0  0  0  0  0  0  0  0  0
    0.3097    3.0742   -3.1442 H   0  0  0  0  0  0  0  0  0  0  0  0
   -0.8395    3.3675   -1.8168 H   0  0  0  0  0  0  0  0  0  0  0  0
  5  6  2  0  0  0  0
  5  7  1  0  0  0  0
  2  3  1  0  0  0  0
  2  4  1  0  0  0  0
  2  5  1  0  0  0  0
  1  2  1  0  0  0  0
 15 16  2  0  0  0  0
 15 17  1  0  0  0  0
 11 12  1  0  0  0  0
 11 13  1  0  0  0  0
 11 14  1  0  0  0  0
  9 10  1  0  0  0  0
  9 11  1  0  0  0  0
  9 15  1  0  0  0  0
  7  8  1  0  0  0  0
  7  9  1  0  0  0  0
 19 20  1  0  0  0  0
 19 21  1  0  0  0  0
 19 22  1  0  0  0  0
 17 18  1  0  0  0  0
 17 19  1  0  0  0  0
M  END
$$$$
default_name
  -OEChem-01062215323D

 22 21  0     1  0  0  0  0  0999 V2000
   -2.5423   -3.6749    0.8058 H   0  0  0  0  0  0  0  0  0  0  0  0
   -2.5063   -2.6779    0.3688 C   0  0  0  0  0  0  0  0  0  0  0  0
   -3.1603   -2.0109    0.9268 H   0  0  0  0  0  0  0  0  0  0  0  0
   -2.8193   -2.7229   -0.6722 H   0  0  0  0  0  0  0  0  0  0  0  0
   -1.0873   -2.1629    0.4418 C   0  0  0  0  0  0  0  0  0  0  0  0
   -0.2073   -2.8549    0.9368 O   0  0  0  0  0  0  0  0  0  0  0  0
   -0.8713   -0.9449   -0.0482 N   0  0  0  0  0  0  0  0  0  0  0  0
   -1.6543   -0.4189   -0.4062 H   0  0  0  0  0  0  0  0  0  0  0  0
    0.4237   -0.2649   -0.0462 C   0  0  1  0  0  0  0  0  0  0  0  0
    0.8750   -0.3686    0.9419 H   0  0  0  0  0  0  0  0  0  0  0  0
    1.3429   -0.9399   -1.0759 C   0  0  0  0  0  0  0  0  0  0  0  0
    0.9100   -0.8528   -2.0738 H   0  0  0  0  0  0  0  0  0  0  0  0
    2.3237   -0.4655   -1.0683 H   0  0  0  0  0  0  0  0  0  0  0  0
    1.4623   -1.9957   -0.8270 H   0  0  0  0  0  0  0  0  0  0  0  0
    0.2586    1.2397   -0.3363 C   0  0  0  0  0  0  0  0  0  0  0  0
    0.3528    2.0642    0.5727 O   0  0  0  0  0  0  0  0  0  0  0  0
   -0.0025    1.5901   -1.6020 N   0  0  0  0  0  0  0  0  0  0  0  0
   -0.0703    0.8574   -2.2902 H   0  0  0  0  0  0  0  0  0  0  0  0
   -0.1959    2.9703   -2.0441 C   0  0  0  0  0  0  0  0  0  0  0  0
    0.6697    3.5725   -1.7609 H   0  0  0  0  0  0  0  0  0  0  0  0
   -0.3206    3.0083   -3.1272 H   0  0  0  0  0  0  0  0  0  0  0  0
   -1.0816    3.3897   -1.5637 H   0  0  0  0  0  0  0  0  0  0  0  0
  5  6  2  0  0  0  0
  5  7  1  0  0  0  0
  2  3  1  0  0  0  0
  2  4  1  0  0  0  0
  2  5  1  0  0  0  0
  1  2  1  0  0  0  0
 15 16  2  0  0  0  0
 15 17  1  0  0  0  0
 11 12  1  0  0  0  0
 11 13  1  0  0  0  0
 11 14  1  0  0  0  0
  9 10  1  0  0  0  0
  9 11  1  0  0  0  0
  9 15  1  0  0  0  0
  7  8  1  0  0  0  0
  7  9  1  0  0  0  0
 19 20  1  0  0  0  0
 19 21  1  0  0  0  0
 19 22  1  0  0  0  0
 17 18  1  0  0  0  0
 17 19  1  0  0  0  0
M  END
$$$$
default_name
  -OEChem-01062215323D

 22 21  0     1  0  0  0  0  0999 V2000
   -2.5423   -3.6749    0.8058 H   0  0  0  0  0  0  0  0  0  0  0  0
   -2.5063   -2.6779    0.3688 C   0  0  0  0  0  0  0  0  0  0  0  0
   -3.1603   -2.0109    0.9268 H   0  0  0  0  0  0  0  0  0  0  0  0
   -2.8193   -2.7229   -0.6722 H   0  0  0  0  0  0  0  0  0  0  0  0
   -1.0873   -2.1629    0.4418 C   0  0  0  0  0  0  0  0  0  0  0  0
   -0.2073   -2.8549    0.9368 O   0  0  0  0  0  0  0  0  0  0  0  0
   -0.8713   -0.9449   -0.0482 N   0  0  0  0  0  0  0  0  0  0  0  0
   -1.6543   -0.4189   -0.4062 H   0  0  0  0  0  0  0  0  0  0  0  0
    0.4237   -0.2649   -0.0462 C   0  0  1  0  0  0  0  0  0  0  0  0
    0.8750   -0.3686    0.9419 H   0  0  0  0  0  0  0  0  0  0  0  0
    1.3429   -0.9399   -1.0759 C   0  0  0  0  0  0  0  0  0  0  0  0
    0.9100   -0.8528   -2.0738 H   0  0  0  0  0  0  0  0  0  0  0  0
    2.3237   -0.4655   -1.0683 H   0  0  0  0  0  0  0  0  0  0  0  0
    1.4623   -1.9957   -0.8270 H   0  0  0  0  0  0  0  0  0  0  0  0
    0.2586    1.2397   -0.3363 C   0  0  0  0  0  0  0  0  0  0  0  0
    0.6172    2.0774    0.4911 O   0  0  0  0  0  0  0  0  0  0  0  0
   -0.2986    1.5760   -1.5065 N   0  0  0  0  0  0  0  0  0  0  0  0
   -0.5716    0.8332   -2.1301 H   0  0  0  0  0  0  0  0  0  0  0  0
   -0.5352    2.9546   -1.9323 C   0  0  0  0  0  0  0  0  0  0  0  0
    0.4002    3.5166   -1.8970 H   0  0  0  0  0  0  0  0  0  0  0  0
   -0.9284    2.9758   -2.9496 H   0  0  0  0  0  0  0  0  0  0  0  0
   -1.2504    3.4299   -1.2588 H   0  0  0  0  0  0  0  0  0  0  0  0
  5  6  2  0  0  0  0
  5  7  1  0  0  0  0
  2  3  1  0  0  0  0
  2  4  1  0  0  0  0
  2  5  1  0  0  0  0
  1  2  1  0  0  0  0
 15 16  2  0  0  0  0
 15 17  1  0  0  0  0
 11 12  1  0  0  0  0
 11 13  1  0  0  0  0
 11 14  1  0  0  0  0
  9 10  1  0  0  0  0
  9 11  1  0  0  0  0
  9 15  1  0  0  0  0
  7  8  1  0  0  0  0
  7  9  1  0  0  0  0
 19 20  1  0  0  0  0
 19 21  1  0  0  0  0
 19 22  1  0  0  0  0
 17 18  1  0  0  0  0
 17 19  1  0  0  0  0
M  END
$$$$
default_name
  -OEChem-01062215323D

 22 21  0     1  0  0  0  0  0999 V2000
   -2.5423   -3.6749    0.8058 H   0  0  0  0  0  0  0  0  0  0  0  0
   -2.5063   -2.6779    0.3688 C   0  0  0  0  0  0  0  0  0  0  0  0
   -3.1603   -2.0109    0.9268 H   0  0  0  0  0  0  0  0  0  0  0  0
   -2.8193   -2.7229   -0.6722 H   0  0  0  0  0  0  0  0  0  0  0  0
   -1.0873   -2.1629    0.4418 C   0  0  0  0  0  0  0  0  0  0  0  0
   -0.2073   -2.8549    0.9368 O   0  0  0  0  0  0  0  0  0  0  0  0
   -0.8713   -0.9449   -0.0482 N   0  0  0  0  0  0  0  0  0  0  0  0
   -1.6543   -0.4189   -0.4062 H   0  0  0  0  0  0  0  0  0  0  0  0
    0.4237   -0.2649   -0.0462 C   0  0  1  0  0  0  0  0  0  0  0  0
    0.8750   -0.3686    0.9419 H   0  0  0  0  0  0  0  0  0  0  0  0
    1.3429   -0.9399   -1.0759 C   0  0  0  0  0  0  0  0  0  0  0  0
    0.9100   -0.8528   -2.0738 H   0  0  0  0  0  0  0  0  0  0  0  0
    2.3237   -0.4655   -1.0683 H   0  0  0  0  0  0  0  0  0  0  0  0
    1.4623   -1.9957   -0.8270 H   0  0  0  0  0  0  0  0  0  0  0  0
    0.2586    1.2397   -0.3363 C   0  0  0  0  0  0  0  0  0  0  0  0
    0.8525    2.0751    0.3450 O   0  0  0  0  0  0  0  0  0  0  0  0
   -0.5612    1.5794   -1.3391 N   0  0  0  0  0  0  0  0  0  0  0  0
   -1.0164    0.8387   -1.8481 H   0  0  0  0  0  0  0  0  0  0  0  0
   -0.8354    2.9591   -1.7381 C   0  0  0  0  0  0  0  0  0  0  0  0
    0.1028    3.4721   -1.9588 H   0  0  0  0  0  0  0  0  0  0  0  0
   -1.4722    2.9790   -2.6236 H   0  0  0  0  0  0  0  0  0  0  0  0
   -1.3344    3.4855   -0.9227 H   0  0  0  0  0  0  0  0  0  0  0  0
  5  6  2  0  0  0  0
  5  7  1  0  0  0  0
  2  3  1  0  0  0  0
  2  4  1  0  0  0  0
  2  5  1  0  0  0  0
  1  2  1  0  0  0  0
 15 16  2  0  0  0  0
 15 17  1  0  0  0  0
 11 12  1  0  0  0  0
 11 13  1  0  0  0  0
 11 14  1  0  0  0  0
  9 10  1  0  0  0  0
  9 11  1  0  0  0  0
  9 15  1  0  0  0  0
  7  8  1  0  0  0  0
  7  9  1  0  0  0  0
 19 20  1  0  0  0  0
 19 21  1  0  0  0  0
 19 22  1  0  0  0  0
 17 18  1  0  0  0  0
 17 19  1  0  0  0  0
M  END
$$$$
default_name
  -OEChem-01062215323D

 22 21  0     1  0  0  0  0  0999 V2000
   -2.5423   -3.6749    0.8058 H   0  0  0  0  0  0  0  0  0  0  0  0
   -2.5063   -2.6779    0.3688 C   0  0  0  0  0  0  0  0  0  0  0  0
   -3.1603   -2.0109    0.9268 H   0  0  0  0  0  0  0  0  0  0  0  0
   -2.8193   -2.7229   -0.6722 H   0  0  0  0  0  0  0  0  0  0  0  0
   -1.0873   -2.1629    0.4418 C   0  0  0  0  0  0  0  0  0  0  0  0
   -0.2073   -2.8549    0.9368 O   0  0  0  0  0  0  0  0  0  0  0  0
   -0.8713   -0.9449   -0.0482 N   0  0  0  0  0  0  0  0  0  0  0  0
   -1.6543   -0.4189   -0.4062 H   0  0  0  0  0  0  0  0  0  0  0  0
    0.4237   -0.2649   -0.0462 C   0  0  1  0  0  0  0  0  0  0  0  0
    0.8750   -0.3686    0.9419 H   0  0  0  0  0  0  0  0  0  0  0  0
    1.3429   -0.9399   -1.0759 C   0  0  0  0  0  0  0  0  0  0  0  0
    0.9100   -0.8528   -2.0738 H   0  0  0  0  0  0  0  0  0  0  0  0
    2.3237   -0.4655   -1.0683 H   0  0  0  0  0  0  0  0  0  0  0  0
    1.4623   -1.9957   -0.8270 H   0  0  0  0  0  0  0  0  0  0  0  0
    0.2586    1.2397   -0.3363 C   0  0  0  0  0  0  0  0  0  0  0  0
    1.0429    2.0574    0.1446 O   0  0  0  0  0  0  0  0  0  0  0  0
   -0.7723    1.6002   -1.1111 N   0  0  0  0  0  0  0  0  0  0  0  0
   -1.3746    0.8736   -1.4635 H   0  0  0  0  0  0  0  0  0  0  0  0
   -1.0761    2.9834   -1.4748 C   0  0  0  0  0  0  0  0  0  0  0  0
   -0.2023    3.4418   -1.9421 H   0  0  0  0  0  0  0  0  0  0  0  0
   -1.9149    3.0176   -2.1715 H   0  0  0  0  0  0  0  0  0  0  0  0
   -1.3280    3.5526   -0.5783 H   0  0  0  0  0  0  0  0  0  0  0  0
  5  6  2  0  0  0  0
  5  7  1  0  0  0  0
  2  3  1  0  0  0  0
  2  4  1  0  0  0  0
  2  5  1  0  0  0  0
  1  2  1  0  0  0  0
 15 16  2  0  0  0  0
 15 17  1  0  0  0  0
 11 12  1  0  0  0  0
 11 13  1  0  0  0  0
 11 14  1  0  0  0  0
  9 10  1  0  0  0  0
  9 11  1  0  0  0  0
  9 15  1  0  0  0  0
  7  8  1  0  0  0  0
  7  9  1  0  0  0  0
 19 20  1  0  0  0  0
 19 21  1  0  0  0  0
 19 22  1  0  0  0  0
 17 18  1  0  0  0  0
 17 19  1  0  0  0  0
M  END
$$$$
default_name
  -OEChem-01062215323D

 22 21  0     1  0  0  0  0  0999 V2000
   -2.5423   -3.6749    0.8058 H   0  0  0  0  0  0  0  0  0  0  0  0
   -2.5063   -2.6779    0.3688 C   0  0  0  0  0  0  0  0  0  0  0  0
   -3.1603   -2.0109    0.9268 H   0  0  0  0  0  0  0  0  0  0  0  0
   -2.8193   -2.7229   -0.6722 H   0  0  0  0  0  0  0  0  0  0  0  0
   -1.0873   -2.1629    0.4418 C   0  0  0  0  0  0  0  0  0  0  0  0
   -0.2073   -2.8549    0.9368 O   0  0  0  0  0  0  0  0  0  0  0  0
   -0.8713   -0.9449   -0.0482 N   0  0  0  0  0  0  0  0  0  0  0  0
   -1.6543   -0.4189   -0.4062 H   0  0  0  0  0  0  0  0  0  0  0  0
    0.4237   -0.2649   -0.0462 C   0  0  1  0  0  0  0  0  0  0  0  0
    0.8750   -0.3686    0.9419 H   0  0  0  0  0  0  0  0  0  0  0  0
    1.3429   -0.9399   -1.0759 C   0  0  0  0  0  0  0  0  0  0  0  0
    0.9100   -0.8528   -2.0738 H   0  0  0  0  0  0  0  0  0  0  0  0
    2.3237   -0.4655   -1.0683 H   0  0  0  0  0  0  0  0  0  0  0  0
    1.4623   -1.9957   -0.8270 H   0  0  0  0  0  0  0  0  0  0  0  0
    0.2586    1.2397   -0.3363 C   0  0  0  0  0  0  0  0  0  0  0  0
    1.1752    2.0254   -0.0966 O   0  0  0  0  0  0  0  0  0  0  0  0
   -0.9176    1.6369   -0.8381 N   0  0  0  0  0  0  0  0  0  0  0  0
   -1.6218    0.9353   -1.0024 H   0  0  0  0  0  0  0  0  0  0  0  0
   -1.2409    3.0259   -1.1603 C   0  0  0  0  0  0  0  0  0  0  0  0
   -0.4942    3.4279   -1.8480 H   0  0  0  0  0  0  0  0  0  0  0  0
   -2.2264    3.0889   -1.6239 H   0  0  0  0  0  0  0  0  0  0  0  0
   -1.2315    3.6266   -0.2492 H   0  0  0  0  0  0  0  0  0  0  0  0
  5  6  2  0  0  0  0
  5  7  1  0  0  0  0
  2  3  1  0  0  0  0
  2  4  1  0  0  0  0
  2  5  1  0  0  0  0
  1  2  1  0  0  0  0
 15 16  2  0  0  0  0
 15 17  1  0  0  0  0
 11 12  1  0  0  0  0
 11 13  1  0  0  0  0
 11 14  1  0  0  0  0
  9 10  1  0  0  0  0
  9 11  1  0  0  0  0
  9 15  1  0  0  0  0
  7  8  1  0  0  0  0
  7  9  1  0  0  0  0
 19 20  1  0  0  0  0
 19 21  1  0  0  0  0
 19 22  1  0  0  0  0
 17 18  1  0  0  0  0
 17 19  1  0  0  0  0
M  END
$$$$
default_name
  -OEChem-01062215323D

 22 21  0     1  0  0  0  0  0999 V2000
   -2.5423   -3.6749    0.8058 H   0  0  0  0  0  0  0  0  0  0  0  0
   -2.5063   -2.6779    0.3688 C   0  0  0  0  0  0  0  0  0  0  0  0
   -3.1603   -2.0109    0.9268 H   0  0  0  0  0  0  0  0  0  0  0  0
   -2.8193   -2.7229   -0.6722 H   0  0  0  0  0  0  0  0  0  0  0  0
   -1.0873   -2.1629    0.4418 C   0  0  0  0  0  0  0  0  0  0  0  0
   -0.2073   -2.8549    0.9368 O   0  0  0  0  0  0  0  0  0  0  0  0
   -0.8713   -0.9449   -0.0482 N   0  0  0  0  0  0  0  0  0  0  0  0
   -1.6543   -0.4189   -0.4062 H   0  0  0  0  0  0  0  0  0  0  0  0
    0.4237   -0.2649   -0.0462 C   0  0  1  0  0  0  0  0  0  0  0  0
    0.8750   -0.3686    0.9419 H   0  0  0  0  0  0  0  0  0  0  0  0
    1.3429   -0.9399   -1.0759 C   0  0  0  0  0  0  0  0  0  0  0  0
    0.9100   -0.8528   -2.0738 H   0  0  0  0  0  0  0  0  0  0  0  0
    2.3237   -0.4655   -1.0683 H   0  0  0  0  0  0  0  0  0  0  0  0
    1.4623   -1.9957   -0.8270 H   0  0  0  0  0  0  0  0  0  0  0  0
    0.2586    1.2397   -0.3363 C   0  0  0  0  0  0  0  0  0  0  0  0
    1.2405    1.9814   -0.3622 O   0  0  0  0  0  0  0  0  0  0  0  0
   -0.9872    1.6869   -0.5387 N   0  0  0  0  0  0  0  0  0  0  0  0
   -1.7410    1.0198   -0.4964 H   0  0  0  0  0  0  0  0  0  0  0  0
   -1.3186    3.0838   -0.8161 C   0  0  0  0  0  0  0  0  0  0  0  0
   -0.7531    3.4313   -1.6830 H   0  0  0  0  0  0  0  0  0  0  0  0
   -2.3855    3.1882   -1.0182 H   0  0  0  0  0  0  0  0  0  0  0  0
   -1.0515    3.7026    0.0423 H   0  0  0  0  0  0  0  0  0  0  0  0
  5  6  2  0  0  0  0
  5  7  1  0  0  0  0
  2  3  1  0  0  0  0
  2  4  1  0  0  0  0
  2  5  1  0  0  0  0
  1  2  1  0  0  0  0
 15 16  2  0  0  0  0
 15 17  1  0  0  0  0
 11 12  1  0  0  0  0
 11 13  1  0  0  0  0
 11 14  1  0  0  0  0
  9 10  1  0  0  0  0
  9 11  1  0  0  0  0
  9 15  1  0  0  0  0
  7  8  1  0  0  0  0
  7  9  1  0  0  0  0
 19 20  1  0  0  0  0
 19 21  1  0  0  0  0
 19 22  1  0  0  0  0
 17 18  1  0  0  0  0
 17 19  1  0  0  0  0
M  END
$$$$
default_name
  -OEChem-01062215323D

 22 21  0     1  0  0  0  0  0999 V2000
   -2.5423   -3.6749    0.8058 H   0  0  0  0  0  0  0  0  0  0  0  0
   -2.5063   -2.6779    0.3688 C   0  0  0  0  0  0  0  0  0  0  0  0
   -3.1603   -2.0109    0.9268 H   0  0  0  0  0  0  0  0  0  0  0  0
   -2.8193   -2.7229   -0.6722 H   0  0  0  0  0  0  0  0  0  0  0  0
   -1.0873   -2.1629    0.4418 C   0  0  0  0  0  0  0  0  0  0  0  0
   -0.2073   -2.8549    0.9368 O   0  0  0  0  0  0  0  0  0  0  0  0
   -0.8713   -0.9449   -0.0482 N   0  0  0  0  0  0  0  0  0  0  0  0
   -1.6543   -0.4189   -0.4062 H   0  0  0  0  0  0  0  0  0  0  0  0
    0.4237   -0.2649   -0.0462 C   0  0  1  0  0  0  0  0  0  0  0  0
    0.8750   -0.3686    0.9419 H   0  0  0  0  0  0  0  0  0  0  0  0
    1.3429   -0.9399   -1.0759 C   0  0  0  0  0  0  0  0  0  0  0  0
    0.9100   -0.8528   -2.0738 H   0  0  0  0  0  0  0  0  0  0  0  0
    2.3237   -0.4655   -1.0683 H   0  0  0  0  0  0  0  0  0  0  0  0
    1.4623   -1.9957   -0.8270 H   0  0  0  0  0  0  0  0  0  0  0  0
    0.2586    1.2397   -0.3363 C   0  0  0  0  0  0  0  0  0  0  0  0
    1.2343    1.9283   -0.6340 O   0  0  0  0  0  0  0  0  0  0  0  0
   -0.9764    1.7470   -0.2333 N   0  0  0  0  0  0  0  0  0  0  0  0
   -1.7241    1.1212    0.0202 H   0  0  0  0  0  0  0  0  0  0  0  0
   -1.3038    3.1530   -0.4656 C   0  0  0  0  0  0  0  0  0  0  0  0
   -0.9613    3.4518   -1.4583 H   0  0  0  0  0  0  0  0  0  0  0  0
   -2.3813    3.3086   -0.3958 H   0  0  0  0  0  0  0  0  0  0  0  0
   -0.8002    3.7752    0.2762 H   0  0  0  0  0  0  0  0  0  0  0  0
  5  6  2  0  0  0  0
  5  7  1  0  0  0  0
  2  3  1  0  0  0  0
  2  4  1  0  0  0  0
  2  5  1  0  0  0  0
  1  2  1  0  0  0  0
 15 16  2  0  0  0  0
 15 17  1  0  0  0  0
 11 12  1  0  0  0  0
 11 13  1  0  0  0  0
 11 14  1  0  0  0  0
  9 10  1  0  0  0  0
  9 11  1  0  0  0  0
  9 15  1  0  0  0  0
  7  8  1  0  0  0  0
  7  9  1  0  0  0  0
 19 20  1  0  0  0  0
 19 21  1  0  0  0  0
 19 22  1  0  0  0  0
 17 18  1  0  0  0  0
 17 19  1  0  0  0  0
M  END
$$$$
default_name
  -OEChem-01062215323D

 22 21  0     1  0  0  0  0  0999 V2000
   -2.5423   -3.6749    0.8058 H   0  0  0  0  0  0  0  0  0  0  0  0
   -2.5063   -2.6779    0.3688 C   0  0  0  0  0  0  0  0  0  0  0  0
   -3.1603   -2.0109    0.9268 H   0  0  0  0  0  0  0  0  0  0  0  0
   -2.8193   -2.7229   -0.6722 H   0  0  0  0  0  0  0  0  0  0  0  0
   -1.0873   -2.1629    0.4418 C   0  0  0  0  0  0  0  0  0  0  0  0
   -0.2073   -2.8549    0.9368 O   0  0  0  0  0  0  0  0  0  0  0  0
   -0.8713   -0.9449   -0.0482 N   0  0  0  0  0  0  0  0  0  0  0  0
   -1.6543   -0.4189   -0.4062 H   0  0  0  0  0  0  0  0  0  0  0  0
    0.4237   -0.2649   -0.0462 C   0  0  1  0  0  0  0  0  0  0  0  0
    0.8750   -0.3686    0.9419 H   0  0  0  0  0  0  0  0  0  0  0  0
    1.3429   -0.9399   -1.0759 C   0  0  0  0  0  0  0  0  0  0  0  0
    0.9100   -0.8528   -2.0738 H   0  0  0  0  0  0  0  0  0  0  0  0
    2.3237   -0.4655   -1.0683 H   0  0  0  0  0  0  0  0  0  0  0  0
    1.4623   -1.9957   -0.8270 H   0  0  0  0  0  0  0  0  0  0  0  0
    0.2586    1.2397   -0.3363 C   0  0  0  0  0  0  0  0  0  0  0  0
    1.1571    1.8698   -0.8935 O   0  0  0  0  0  0  0  0  0  0  0  0
   -0.8858    1.8129    0.0572 N   0  0  0  0  0  0  0  0  0  0  0  0
   -1.5723    1.2327    0.5122 H   0  0  0  0  0  0  0  0  0  0  0  0
   -1.1975    3.2288   -0.1327 C   0  0  0  0  0  0  0  0  0  0  0  0
   -1.1047    3.4879   -1.1892 H   0  0  0  0  0  0  0  0  0  0  0  0
   -2.2140    3.4420    0.2011 H   0  0  0  0  0  0  0  0  0  0  0  0
   -0.4949    3.8397    0.4367 H   0  0  0  0  0  0  0  0  0  0  0  0
  5  6  2  0  0  0  0
  5  7  1  0  0  0  0
  2  3  1  0  0  0  0
  2  4  1  0  0  0  0
  2  5  1  0  0  0  0
  1  2  1  0  0  0  0
 15 16  2  0  0  0  0
 15 17  1  0  0  0  0
 11 12  1  0  0  0  0
 11 13  1  0  0  0  0
 11 14  1  0  0  0  0
  9 10  1  0  0  0  0
  9 11  1  0  0  0  0
  9 15  1  0  0  0  0
  7  8  1  0  0  0  0
  7  9  1  0  0  0  0
 19 20  1  0  0  0  0
 19 21  1  0  0  0  0
 19 22  1  0  0  0  0
 17 18  1  0  0  0  0
 17 19  1  0  0  0  0
M  END
$$$$
default_name
  -OEChem-01062215323D

 22 21  0     1  0  0  0  0  0999 V2000
   -2.5423   -3.6749    0.8058 H   0  0  0  0  0  0  0  0  0  0  0  0
   -2.5063   -2.6779    0.3688 C   0  0  0  0  0  0  0  0  0  0  0  0
   -3.1603   -2.0109    0.9268 H   0  0  0  0  0  0  0  0  0  0  0  0
   -2.8193   -2.7229   -0.6722 H   0  0  0  0  0  0  0  0  0  0  0  0
   -1.0873   -2.1629    0.4418 C   0  0  0  0  0  0  0  0  0  0  0  0
   -0.2073   -2.8549    0.9368 O   0  0  0  0  0  0  0  0  0  0  0  0
   -0.8713   -0.9449   -0.0482 N   0  0  0  0  0  0  0  0  0  0  0  0
   -1.6543   -0.4189   -0.4062 H   0  0  0  0  0  0  0  0  0  0  0  0
    0.4237   -0.2649   -0.0462 C   0  0  1  0  0  0  0  0  0  0  0  0
    0.8750   -0.3686    0.9419 H   0  0  0  0  0  0  0  0  0  0  0  0
    1.3429   -0.9399   -1.0759 C   0  0  0  0  0  0  0  0  0  0  0  0
    0.9100   -0.8528   -2.0738 H   0  0  0  0  0  0  0  0  0  0  0  0
    2.3237   -0.4655   -1.0683 H   0  0  0  0  0  0  0  0  0  0  0  0
    1.4623   -1.9957   -0.8270 H   0  0  0  0  0  0  0  0  0  0  0  0
    0.2586    1.2397   -0.3363 C   0  0  0  0  0  0  0  0  0  0  0  0
    1.0141    1.8099   -1.1230 O   0  0  0  0  0  0  0  0  0  0  0  0
   -0.7217    1.8803    0.3132 N   0  0  0  0  0  0  0  0  0  0  0  0
   -1.2960    1.3466    0.9459 H   0  0  0  0  0  0  0  0  0  0  0  0
   -1.0071    3.3061    0.1600 C   0  0  0  0  0  0  0  0  0  0  0  0
   -1.1734    3.5372   -0.8941 H   0  0  0  0  0  0  0  0  0  0  0  0
   -1.8952    3.5793    0.7316 H   0  0  0  0  0  0  0  0  0  0  0  0
   -0.1564    3.8915    0.5128 H   0  0  0  0  0  0  0  0  0  0  0  0
  5  6  2  0  0  0  0
  5  7  1  0  0  0  0
  2  3  1  0  0  0  0
  2  4  1  0  0  0  0
  2  5  1  0  0  0  0
  1  2  1  0  0  0  0
 15 16  2  0  0  0  0
 15 17  1  0  0  0  0
 11 12  1  0  0  0  0
 11 13  1  0  0  0  0
 11 14  1  0  0  0  0
  9 10  1  0  0  0  0
  9 11  1  0  0  0  0
  9 15  1  0  0  0  0
  7  8  1  0  0  0  0
  7  9  1  0  0  0  0
 19 20  1  0  0  0  0
 19 21  1  0  0  0  0
 19 22  1  0  0  0  0
 17 18  1  0  0  0  0
 17 19  1  0  0  0  0
M  END
$$$$
default_name
  -OEChem-01062215323D

 22 21  0     1  0  0  0  0  0999 V2000
   -2.5423   -3.6749    0.8058 H   0  0  0  0  0  0  0  0  0  0  0  0
   -2.5063   -2.6779    0.3688 C   0  0  0  0  0  0  0  0  0  0  0  0
   -3.1603   -2.0109    0.9268 H   0  0  0  0  0  0  0  0  0  0  0  0
   -2.8193   -2.7229   -0.6722 H   0  0  0  0  0  0  0  0  0  0  0  0
   -1.0873   -2.1629    0.4418 C   0  0  0  0  0  0  0  0  0  0  0  0
   -0.2073   -2.8549    0.9368 O   0  0  0  0  0  0  0  0  0  0  0  0
   -0.8713   -0.9449   -0.0482 N   0  0  0  0  0  0  0  0  0  0  0  0
   -1.6543   -0.4189   -0.4062 H   0  0  0  0  0  0  0  0  0  0  0  0
    0.4237   -0.2649   -0.0462 C   0  0  1  0  0  0  0  0  0  0  0  0
    0.8750   -0.3686    0.9419 H   0  0  0  0  0  0  0  0  0  0  0  0
    1.3429   -0.9399   -1.0759 C   0  0  0  0  0  0  0  0  0  0  0  0
    0.9100   -0.8528   -2.0738 H   0  0  0  0  0  0  0  0  0  0  0  0
    2.3237   -0.4655   -1.0683 H   0  0  0  0  0  0  0  0  0  0  0  0
    1.4623   -1.9957   -0.8270 H   0  0  0  0  0  0  0  0  0  0  0  0
    0.2586    1.2397   -0.3363 C   0  0  0  0  0  0  0  0  0  0  0  0
    0.8150    1.7526   -1.3069 O   0  0  0  0  0  0  0  0  0  0  0  0
   -0.4952    1.9444    0.5171 N   0  0  0  0  0  0  0  0  0  0  0  0
   -0.9140    1.4552    1.2919 H   0  0  0  0  0  0  0  0  0  0  0  0
   -0.7455    3.3796    0.3923 C   0  0  0  0  0  0  0  0  0  0  0  0
   -1.1628    3.5964   -0.5930 H   0  0  0  0  0  0  0  0  0  0  0  0
   -1.4465    3.7111    1.1597 H   0  0  0  0  0  0  0  0  0  0  0  0
    0.1925    3.9272    0.4993 H   0  0  0  0  0  0  0  0  0  0  0  0
  5  6  2  0  0  0  0
  5  7  1  0  0  0  0
  2  3  1  0  0  0  0
  2  4  1  0  0  0  0
  2  5  1  0  0  0  0
  1  2  1  0  0  0  0
 15 16  2  0  0  0  0
 15 17  1  0  0  0  0
 11 12  1  0  0  0  0
 11 13  1  0  0  0  0
 11 14  1  0  0  0  0
  9 10  1  0  0  0  0
  9 11  1  0  0  0  0
  9 15  1  0  0  0  0
  7  8  1  0  0  0  0
  7  9  1  0  0  0  0
 19 20  1  0  0  0  0
 19 21  1  0  0  0  0
 19 22  1  0  0  0  0
 17 18  1  0  0  0  0
 17 19  1  0  0  0  0
M  END
$$$$
default_name
  -OEChem-01062215323D

 22 21  0     1  0  0  0  0  0999 V2000
   -2.5423   -3.6749    0.8058 H   0  0  0  0  0  0  0  0  0  0  0  0
   -2.5063   -2.6779    0.3688 C   0  0  0  0  0  0  0  0  0  0  0  0
   -3.1603   -2.0109    0.9268 H   0  0  0  0  0  0  0  0  0  0  0  0
   -2.8193   -2.7229   -0.6722 H   0  0  0  0  0  0  0  0  0  0  0  0
   -1.0873   -2.1629    0.4418 C   0  0  0  0  0  0  0  0  0  0  0  0
   -0.2073   -2.8549    0.9368 O   0  0  0  0  0  0  0  0  0  0  0  0
   -0.8713   -0.9449   -0.0482 N   0  0  0  0  0  0  0  0  0  0  0  0
   -1.6543   -0.4189   -0.4062 H   0  0  0  0  0  0  0  0  0  0  0  0
    0.4237   -0.2649   -0.0462 C   0  0  1  0  0  0  0  0  0  0  0  0
    0.8750   -0.3686    0.9419 H   0  0  0  0  0  0  0  0  0  0  0  0
    1.3429   -0.9399   -1.0759 C   0  0  0  0  0  0  0  0  0  0  0  0
    0.9100   -0.8528   -2.0738 H   0  0  0  0  0  0  0  0  0  0  0  0
    2.3237   -0.4655   -1.0683 H   0  0  0  0  0  0  0  0  0  0  0  0
    1.4623   -1.9957   -0.8270 H   0  0  0  0  0  0  0  0  0  0  0  0
    0.2586    1.2397   -0.3363 C   0  0  0  0  0  0  0  0  0  0  0  0
    0.5735    1.7018   -1.4327 O   0  0  0  0  0  0  0  0  0  0  0  0
   -0.2218    2.0010    0.6550 N   0  0  0  0  0  0  0  0  0  0  0  0
   -0.4523    1.5511    1.5265 H   0  0  0  0  0  0  0  0  0  0  0  0
   -0.4305    3.4443    0.5487 C   0  0  0  0  0  0  0  0  0  0  0  0
   -1.0736    3.6615   -0.3065 H   0  0  0  0  0  0  0  0  0  0  0  0
   -0.8985    3.8284    1.4562 H   0  0  0  0  0  0  0  0  0  0  0  0
    0.5277    3.9443    0.3972 H   0  0  0  0  0  0  0  0  0  0  0  0
  5  6  2  0  0  0  0
  5  7  1  0  0  0  0
  2  3  1  0  0  0  0
  2  4  1  0  0  0  0
  2  5  1  0  0  0  0
  1  2  1  0  0  0  0
 15 16  2  0  0  0  0
 15 17  1  0  0  0  0
 11 12  1  0  0  0  0
 11 13  1  0  0  0  0
 11 14  1  0  0  0  0
  9 10  1  0  0  0  0
  9 11  1  0  0  0  0
  9 15  1  0  0  0  0
  7  8  1  0  0  0  0
  7  9  1  0  0  0  0
 19 20  1  0  0  0  0
 19 21  1  0  0  0  0
 19 22  1  0  0  0  0
 17 18  1  0  0  0  0
 17 19  1  0  0  0  0
M  END
$$$$
default_name
  -OEChem-01062215323D

 22 21  0     1  0  0  0  0  0999 V2000
   -2.5423   -3.6749    0.8058 H   0  0  0  0  0  0  0  0  0  0  0  0
   -2.5063   -2.6779    0.3688 C   0  0  0  0  0  0  0  0  0  0  0  0
   -3.1603   -2.0109    0.9268 H   0  0  0  0  0  0  0  0  0  0  0  0
   -2.8193   -2.7229   -0.6722 H   0  0  0  0  0  0  0  0  0  0  0  0
   -1.0873   -2.1629    0.4418 C   0  0  0  0  0  0  0  0  0  0  0  0
   -0.2073   -2.8549    0.9368 O   0  0  0  0  0  0  0  0  0  0  0  0
   -0.8713   -0.9449   -0.0482 N   0  0  0  0  0  0  0  0  0  0  0  0
   -1.6543   -0.4189   -0.4062 H   0  0  0  0  0  0  0  0  0  0  0  0
    0.4237   -0.2649   -0.0462 C   0  0  1  0  0  0  0  0  0  0  0  0
    0.8750   -0.3686    0.9419 H   0  0  0  0  0  0  0  0  0  0  0  0
    1.3429   -0.9399   -1.0759 C   0  0  0  0  0  0  0  0  0  0  0  0
    0.9100   -0.8528   -2.0738 H   0  0  0  0  0  0  0  0  0  0  0  0
    2.3237   -0.4655   -1.0683 H   0  0  0  0  0  0  0  0  0  0  0  0
    1.4623   -1.9957   -0.8270 H   0  0  0  0  0  0  0  0  0  0  0  0
    0.2586    1.2397   -0.3363 C   0  0  0  0  0  0  0  0  0  0  0  0
    0.3060    1.6611   -1.4917 O   0  0  0  0  0  0  0  0  0  0  0  0
    0.0799    2.0462    0.7176 N   0  0  0  0  0  0  0  0  0  0  0  0
    0.0577    1.6278    1.6338 H   0  0  0  0  0  0  0  0  0  0  0  0
   -0.0835    3.4958    0.6183 C   0  0  0  0  0  0  0  0  0  0  0  0
   -0.9119    3.7279   -0.0541 H   0  0  0  0  0  0  0  0  0  0  0  0
   -0.2885    3.9232    1.6008 H   0  0  0  0  0  0  0  0  0  0  0  0
    0.8265    3.9417    0.2133 H   0  0  0  0  0  0  0  0  0  0  0  0
  5  6  2  0  0  0  0
  5  7  1  0  0  0  0
  2  3  1  0  0  0  0
  2  4  1  0  0  0  0
  2  5  1  0  0  0  0
  1  2  1  0  0  0  0
 15 16  2  0  0  0  0
 15 17  1  0  0  0  0
 11 12  1  0  0  0  0
 11 13  1  0  0  0  0
 11 14  1  0  0  0  0
  9 10  1  0  0  0  0
  9 11  1  0  0  0  0
  9 15  1  0  0  0  0
  7  8  1  0  0  0  0
  7  9  1  0  0  0  0
 19 20  1  0  0  0  0
 19 21  1  0  0  0  0
 19 22  1  0  0  0  0
 17 18  1  0  0  0  0
 17 19  1  0  0  0  0
M  END
$$$$
default_name
  -OEChem-01062215323D

 22 21  0     1  0  0  0  0  0999 V2000
   -2.5423   -3.6749    0.8058 H   0  0  0  0  0  0  0  0  0  0  0  0
   -2.5063   -2.6779    0.3688 C   0  0  0  0  0  0  0  0  0  0  0  0
   -3.1603   -2.0109    0.9268 H   0  0  0  0  0  0  0  0  0  0  0  0
   -2.8193   -2.7229   -0.6722 H   0  0  0  0  0  0  0  0  0  0  0  0
   -1.0873   -2.1629    0.4418 C   0  0  0  0  0  0  0  0  0  0  0  0
   -0.2073   -2.8549    0.9368 O   0  0  0  0  0  0  0  0  0  0  0  0
   -0.8713   -0.9449   -0.0482 N   0  0  0  0  0  0  0  0  0  0  0  0
   -1.6543   -0.4189   -0.4062 H   0  0  0  0  0  0  0  0  0  0  0  0
    0.4237   -0.2649   -0.0462 C   0  0  1  0  0  0  0  0  0  0  0  0
    0.8750   -0.3686    0.9419 H   0  0  0  0  0  0  0  0  0  0  0  0
    1.3429   -0.9399   -1.0759 C   0  0  0  0  0  0  0  0  0  0  0  0
    0.9100   -0.8528   -2.0738 H   0  0  0  0  0  0  0  0  0  0  0  0
    2.3237   -0.4655   -1.0683 H   0  0  0  0  0  0  0  0  0  0  0  0
    1.4623   -1.9957   -0.8270 H   0  0  0  0  0  0  0  0  0  0  0  0
    0.2586    1.2397   -0.3363 C   0  0  0  0  0  0  0  0  0  0  0  0
    0.0306    1.6331   -1.4800 O   0  0  0  0  0  0  0  0  0  0  0  0
    0.3893    2.0769    0.7006 N   0  0  0  0  0  0  0  0  0  0  0  0
    0.5811    1.6800    1.6065 H   0  0  0  0  0  0  0  0  0  0  0  0
    0.2717    3.5306    0.5964 C   0  0  0  0  0  0  0  0  0  0  0  0
   -0.6887    3.7911    0.1470 H   0  0  0  0  0  0  0  0  0  0  0  0
    0.3419    3.9891    1.5838 H   0  0  0  0  0  0  0  0  0  0  0  0
    1.0686    3.9195   -0.0397 H   0  0  0  0  0  0  0  0  0  0  0  0
  5  6  2  0  0  0  0
  5  7  1  0  0  0  0
  2  3  1  0  0  0  0
  2  4  1  0  0  0  0
  2  5  1  0  0  0  0
  1  2  1  0  0  0  0
 15 16  2  0  0  0  0
 15 17  1  0  0  0  0
 11 12  1  0  0  0  0
 11 13  1  0  0  0  0
 11 14  1  0  0  0  0
  9 10  1  0  0  0  0
  9 11  1  0  0  0  0
  9 15  1  0  0  0  0
  7  8  1  0  0  0  0
  7  9  1  0  0  0  0
 19 20  1  0  0  0  0
 19 21  1  0  0  0  0
 19 22  1  0  0  0  0
 17 18  1  0  0  0  0
 17 19  1  0  0  0  0
M  END
$$$$
default_name
  -OEChem-01062215323D

 22 21  0     1  0  0  0  0  0999 V2000
   -2.5423   -3.6749    0.8058 H   0  0  0  0  0  0  0  0  0  0  0  0
   -2.5063   -2.6779    0.3688 C   0  0  0  0  0  0  0  0  0  0  0  0
   -3.1603   -2.0109    0.9268 H   0  0  0  0  0  0  0  0  0  0  0  0
   -2.8193   -2.7229   -0.6722 H   0  0  0  0  0  0  0  0  0  0  0  0
   -1.0873   -2.1629    0.4418 C   0  0  0  0  0  0  0  0  0  0  0  0
   -0.2073   -2.8549    0.9368 O   0  0  0  0  0  0  0  0  0  0  0  0
   -0.8713   -0.9449   -0.0482 N   0  0  0  0  0  0  0  0  0  0  0  0
   -1.6543   -0.4189   -0.4062 H   0  0  0  0  0  0  0  0  0  0  0  0
    0.4237   -0.2649   -0.0462 C   0  0  1  0  0  0  0  0  0  0  0  0
    0.8750   -0.3686    0.9419 H   0  0  0  0  0  0  0  0  0  0  0  0
    1.3429   -0.9399   -1.0759 C   0  0  0  0  0  0  0  0  0  0  0  0
    0.9100   -0.8528   -2.0738 H   0  0  0  0  0  0  0  0  0  0  0  0
    2.3237   -0.4655   -1.0683 H   0  0  0  0  0  0  0  0  0  0  0  0
    1.4623   -1.9957   -0.8270 H   0  0  0  0  0  0  0  0  0  0  0  0
    0.2586    1.2397   -0.3363 C   0  0  0  0  0  0  0  0  0  0  0  0
   -0.2337    1.6198   -1.3983 O   0  0  0  0  0  0  0  0  0  0  0  0
    0.6854    2.0910    0.6051 N   0  0  0  0  0  0  0  0  0  0  0  0
    1.0824    1.7041    1.4464 H   0  0  0  0  0  0  0  0  0  0  0  0
    0.6109    3.5463    0.4846 C   0  0  0  0  0  0  0  0  0  0  0  0
   -0.4191    3.8469    0.2830 H   0  0  0  0  0  0  0  0  0  0  0  0
    0.9496    4.0216    1.4062 H   0  0  0  0  0  0  0  0  0  0  0  0
    1.2374    3.8792   -0.3447 H   0  0  0  0  0  0  0  0  0  0  0  0
  5  6  2  0  0  0  0
  5  7  1  0  0  0  0
  2  3  1  0  0  0  0
  2  4  1  0  0  0  0
  2  5  1  0  0  0  0
  1  2  1  0  0  0  0
 15 16  2  0  0  0  0
 15 17  1  0  0  0  0
 11 12  1  0  0  0  0
 11 13  1  0  0  0  0
 11 14  1  0  0  0  0
  9 10  1  0  0  0  0
  9 11  1  0  0  0  0
  9 15  1  0  0  0  0
  7  8  1  0  0  0  0
  7  9  1  0  0  0  0
 19 20  1  0  0  0  0
 19 21  1  0  0  0  0
 19 22  1  0  0  0  0
 17 18  1  0  0  0  0
 17 19  1  0  0  0  0
M  END
$$$$
default_name
  -OEChem-01062215323D

 22 21  0     1  0  0  0  0  0999 V2000
   -2.5423   -3.6749    0.8058 H   0  0  0  0  0  0  0  0  0  0  0  0
   -2.5063   -2.6779    0.3688 C   0  0  0  0  0  0  0  0  0  0  0  0
   -3.1603   -2.0109    0.9268 H   0  0  0  0  0  0  0  0  0  0  0  0
   -2.8193   -2.7229   -0.6722 H   0  0  0  0  0  0  0  0  0  0  0  0
   -1.0873   -2.1629    0.4418 C   0  0  0  0  0  0  0  0  0  0  0  0
   -0.2073   -2.8549    0.9368 O   0  0  0  0  0  0  0  0  0  0  0  0
   -0.8713   -0.9449   -0.0482 N   0  0  0  0  0  0  0  0  0  0  0  0
   -1.6543   -0.4189   -0.4062 H   0  0  0  0  0  0  0  0  0  0  0  0
    0.4237   -0.2649   -0.0462 C   0  0  1  0  0  0  0  0  0  0  0  0
    0.8750   -0.3686    0.9419 H   0  0  0  0  0  0  0  0  0  0  0  0
    1.3429   -0.9399   -1.0759 C   0  0  0  0  0  0  0  0  0  0  0  0
    0.9100   -0.8528   -2.0738 H   0  0  0  0  0  0  0  0  0  0  0  0
    2.3237   -0.4655   -1.0683 H   0  0  0  0  0  0  0  0  0  0  0  0
    1.4623   -1.9957   -0.8270 H   0  0  0  0  0  0  0  0  0  0  0  0
    0.2586    1.2397   -0.3363 C   0  0  0  0  0  0  0  0  0  0  0  0
   -0.4691    1.6222   -1.2523 O   0  0  0  0  0  0  0  0  0  0  0  0
    0.9480    2.0875    0.4377 N   0  0  0  0  0  0  0  0  0  0  0  0
    1.5272    1.6986    1.1644 H   0  0  0  0  0  0  0  0  0  0  0  0
    0.9112    3.5418    0.2904 C   0  0  0  0  0  0  0  0  0  0  0  0
   -0.1217    3.8915    0.3448 H   0  0  0  0  0  0  0  0  0  0  0  0
    1.4934    4.0184    1.0803 H   0  0  0  0  0  0  0  0  0  0  0  0
    1.3215    3.8236   -0.6808 H   0  0  0  0  0  0  0  0  0  0  0  0
  5  6  2  0  0  0  0
  5  7  1  0  0  0  0
  2  3  1  0  0  0  0
  2  4  1  0  0  0  0
  2  5  1  0  0  0  0
  1  2  1  0  0  0  0
 15 16  2  0  0  0  0
 15 17  1  0  0  0  0
 11 12  1  0  0  0  0
 11 13  1  0  0  0  0
 11 14  1  0  0  0  0
  9 10  1  0  0  0  0
  9 11  1  0  0  0  0
  9 15  1  0  0  0  0
  7  8  1  0  0  0  0
  7  9  1  0  0  0  0
 19 20  1  0  0  0  0
 19 21  1  0  0  0  0
 19 22  1  0  0  0  0
 17 18  1  0  0  0  0
 17 19  1  0  0  0  0
M  END
$$$$
default_name
  -OEChem-01062215323D

 22 21  0     1  0  0  0  0  0999 V2000
   -2.5423   -3.6749    0.8058 H   0  0  0  0  0  0  0  0  0  0  0  0
   -2.5063   -2.6779    0.3688 C   0  0  0  0  0  0  0  0  0  0  0  0
   -3.1603   -2.0109    0.9268 H   0  0  0  0  0  0  0  0  0  0  0  0
   -2.8193   -2.7229   -0.6722 H   0  0  0  0  0  0  0  0  0  0  0  0
   -1.0873   -2.1629    0.4418 C   0  0  0  0  0  0  0  0  0  0  0  0
   -0.2073   -2.8549    0.9368 O   0  0  0  0  0  0  0  0  0  0  0  0
   -0.8713   -0.9449   -0.0482 N   0  0  0  0  0  0  0  0  0  0  0  0
   -1.6543   -0.4189   -0.4062 H   0  0  0  0  0  0  0  0  0  0  0  0
    0.4237   -0.2649   -0.0462 C   0  0  1  0  0  0  0  0  0  0  0  0
    0.8750   -0.3686    0.9419 H   0  0  0  0  0  0  0  0  0  0  0  0
    1.3429   -0.9399   -1.0759 C   0  0  0  0  0  0  0  0  0  0  0  0
    0.9100   -0.8528   -2.0738 H   0  0  0  0  0  0  0  0  0  0  0  0
    2.3237   -0.4655   -1.0683 H   0  0  0  0  0  0  0  0  0  0  0  0
    1.4623   -1.9957   -0.8270 H   0  0  0  0  0  0  0  0  0  0  0  0
    0.2586    1.2397   -0.3363 C   0  0  0  0  0  0  0  0  0  0  0  0
   -0.6594    1.6399   -1.0518 O   0  0  0  0  0  0  0  0  0  0  0  0
    1.1591    2.0668    0.2097 N   0  0  0  0  0  0  0  0  0  0  0  0
    1.8854    1.6638    0.7798 H   0  0  0  0  0  0  0  0  0  0  0  0
    1.1519    3.5175    0.0271 C   0  0  0  0  0  0  0  0  0  0  0  0
    0.1834    3.9218    0.3281 H   0  0  0  0  0  0  0  0  0  0  0  0
    1.9362    3.9799    0.6281 H   0  0  0  0  0  0  0  0  0  0  0  0
    1.3150    3.7565   -1.0252 H   0  0  0  0  0  0  0  0  0  0  0  0
  5  6  2  0  0  0  0
  5  7  1  0  0  0  0
  2  3  1  0  0  0  0
  2  4  1  0  0  0  0
  2  5  1  0  0  0  0
  1  2  1  0  0  0  0
 15 16  2  0  0  0  0
 15 17  1  0  0  0  0
 11 12  1  0  0  0  0
 11 13  1  0  0  0  0
 11 14  1  0  0  0  0
  9 10  1  0  0  0  0
  9 11  1  0  0  0  0
  9 15  1  0  0  0  0
  7  8  1  0  0  0  0
  7  9  1  0  0  0  0
 19 20  1  0  0  0  0
 19 21  1  0  0  0  0
 19 22  1  0  0  0  0
 17 18  1  0  0  0  0
 17 19  1  0  0  0  0
M  END
$$$$
default_name
  -OEChem-01062215323D

 22 21  0     1  0  0  0  0  0999 V2000
   -2.5423   -3.6749    0.8058 H   0  0  0  0  0  0  0  0  0  0  0  0
   -2.5063   -2.6779    0.3688 C   0  0  0  0  0  0  0  0  0  0  0  0
   -3.1603   -2.0109    0.9268 H   0  0  0  0  0  0  0  0  0  0  0  0
   -2.8193   -2.7229   -0.6722 H   0  0  0  0  0  0  0  0  0  0  0  0
   -1.0873   -2.1629    0.4418 C   0  0  0  0  0  0  0  0  0  0  0  0
   -0.2073   -2.8549    0.9368 O   0  0  0  0  0  0  0  0  0  0  0  0
   -0.8713   -0.9449   -0.0482 N   0  0  0  0  0  0  0  0  0  0  0  0
   -1.6543   -0.4189   -0.4062 H   0  0  0  0  0  0  0  0  0  0  0  0
    0.4237   -0.2649   -0.0462 C   0  0  1  0  0  0  0  0  0  0  0  0
    0.8750   -0.3686    0.9419 H   0  0  0  0  0  0  0  0  0  0  0  0
    1.3429   -0.9399   -1.0759 C   0  0  0  0  0  0  0  0  0  0  0  0
    0.9100   -0.8528   -2.0738 H   0  0  0  0  0  0  0  0  0  0  0  0
    2.3237   -0.4655   -1.0683 H   0  0  0  0  0  0  0  0  0  0  0  0
    1.4623   -1.9957   -0.8270 H   0  0  0  0  0  0  0  0  0  0  0  0
    0.2586    1.2397   -0.3363 C   0  0  0  0  0  0  0  0  0  0  0  0
   -0.7917    1.6719   -0.8106 O   0  0  0  0  0  0  0  0  0  0  0  0
    1.3044    2.0301   -0.0633 N   0  0  0  0  0  0  0  0  0  0  0  0
    2.1326    1.6020    0.3188 H   0  0  0  0  0  0  0  0  0  0  0  0
    1.3167    3.4749   -0.2874 C   0  0  0  0  0  0  0  0  0  0  0  0
    0.4753    3.9357    0.2341 H   0  0  0  0  0  0  0  0  0  0  0  0
    2.2477    3.9085    0.0805 H   0  0  0  0  0  0  0  0  0  0  0  0
    1.2185    3.6825   -1.3543 H   0  0  0  0  0  0  0  0  0  0  0  0
  5  6  2  0  0  0  0
  5  7  1  0  0  0  0
  2  3  1  0  0  0  0
  2  4  1  0  0  0  0
  2  5  1  0  0  0  0
  1  2  1  0  0  0  0
 15 16  2  0  0  0  0
 15 17  1  0  0  0  0
 11 12  1  0  0  0  0
 11 13  1  0  0  0  0
 11 14  1  0  0  0  0
  9 10  1  0  0  0  0
  9 11  1  0  0  0  0
  9 15  1  0  0  0  0
  7  8  1  0  0  0  0
  7  9  1  0  0  0  0
 19 20  1  0  0  0  0
 19 21  1  0  0  0  0
 19 22  1  0  0  0  0
 17 18  1  0  0  0  0
 17 19  1  0  0  0  0
M  END
$$$$
default_name
  -OEChem-01062215323D

 22 21  0     1  0  0  0  0  0999 V2000
   -2.5423   -3.6749    0.8058 H   0  0  0  0  0  0  0  0  0  0  0  0
   -2.5063   -2.6779    0.3688 C   0  0  0  0  0  0  0  0  0  0  0  0
   -3.1603   -2.0109    0.9268 H   0  0  0  0  0  0  0  0  0  0  0  0
   -2.8193   -2.7229   -0.6722 H   0  0  0  0  0  0  0  0  0  0  0  0
   -1.0873   -2.1629    0.4418 C   0  0  0  0  0  0  0  0  0  0  0  0
   -0.2073   -2.8549    0.9368 O   0  0  0  0  0  0  0  0  0  0  0  0
   -0.8713   -0.9449   -0.0482 N   0  0  0  0  0  0  0  0  0  0  0  0
   -1.6543   -0.4189   -0.4062 H   0  0  0  0  0  0  0  0  0  0  0  0
    0.4237   -0.2649   -0.0462 C   0  0  1  0  0  0  0  0  0  0  0  0
    0.9892   -0.5858    0.8302 H   0  0  0  0  0  0  0  0  0  0  0  0
    1.2030   -0.6727   -1.3060 C   0  0  0  0  0  0  0  0  0  0  0  0
    0.6543   -0.3655   -2.1979 H   0  0  0  0  0  0  0  0  0  0  0  0
    2.1839   -0.1987   -1.3079 H   0  0  0  0  0  0  0  0  0  0  0  0
    1.3370   -1.7557   -1.3220 H   0  0  0  0  0  0  0  0  0  0  0  0
    0.2455    1.2636    0.0383 C   0  0  0  0  0  0  0  0  0  0  0  0
   -0.8805    1.7589    0.0799 O   0  0  0  0  0  0  0  0  0  0  0  0
    1.3597    2.0062    0.0483 N   0  0  0  0  0  0  0  0  0  0  0  0
    2.2457    1.5286    0.0061 H   0  0  0  0  0  0  0  0  0  0  0  0
    1.3670    3.4668    0.1154 C   0  0  0  0  0  0  0  0  0  0  0  0
    0.8032    3.7982    0.9897 H   0  0  0  0  0  0  0  0  0  0  0  0
    2.3902    3.8387    0.1863 H   0  0  0  0  0  0  0  0  0  0  0  0
    0.8944    3.8785   -0.7780 H   0  0  0  0  0  0  0  0  0  0  0  0
  5  6  2  0  0  0  0
  5  7  1  0  0  0  0
  2  3  1  0  0  0  0
  2  4  1  0  0  0  0
  2  5  1  0  0  0  0
  1  2  1  0  0  0  0
 15 16  2  0  0  0  0
 15 17  1  0  0  0  0
 11 12  1  0  0  0  0
 11 13  1  0  0  0  0
 11 14  1  0  0  0  0
  9 10  1  0  0  0  0
  9 11  1  0  0  0  0
  9 15  1  0  0  0  0
  7  8  1  0  0  0  0
  7  9  1  0  0  0  0
 19 20  1  0  0  0  0
 19 21  1  0  0  0  0
 19 22  1  0  0  0  0
 17 18  1  0  0  0  0
 17 19  1  0  0  0  0
M  END
$$$$
default_name
  -OEChem-01062215323D

 22 21  0     1  0  0  0  0  0999 V2000
   -2.5423   -3.6749    0.8058 H   0  0  0  0  0  0  0  0  0  0  0  0
   -2.5063   -2.6779    0.3688 C   0  0  0  0  0  0  0  0  0  0  0  0
   -3.1603   -2.0109    0.9268 H   0  0  0  0  0  0  0  0  0  0  0  0
   -2.8193   -2.7229   -0.6722 H   0  0  0  0  0  0  0  0  0  0  0  0
   -1.0873   -2.1629    0.4418 C   0  0  0  0  0  0  0  0  0  0  0  0
   -0.2073   -2.8549    0.9368 O   0  0  0  0  0  0  0  0  0  0  0  0
   -0.8713   -0.9449   -0.0482 N   0  0  0  0  0  0  0  0  0  0  0  0
   -1.6543   -0.4189   -0.4062 H   0  0  0  0  0  0  0  0  0  0  0  0
    0.4237   -0.2649   -0.0462 C   0  0  1  0  0  0  0  0  0  0  0  0
    0.9892   -0.5858    0.8302 H   0  0  0  0  0  0  0  0  0  0  0  0
    1.2030   -0.6727   -1.3060 C   0  0  0  0  0  0  0  0  0  0  0  0
    0.6543   -0.3655   -2.1979 H   0  0  0  0  0  0  0  0  0  0  0  0
    2.1839   -0.1987   -1.3079 H   0  0  0  0  0  0  0  0  0  0  0  0
    1.3370   -1.7557   -1.3220 H   0  0  0  0  0  0  0  0  0  0  0  0
    0.2455    1.2636    0.0383 C   0  0  0  0  0  0  0  0  0  0  0  0
   -0.8410    1.7483    0.3539 O   0  0  0  0  0  0  0  0  0  0  0  0
    1.3113    2.0176   -0.2592 N   0  0  0  0  0  0  0  0  0  0  0  0
    2.1654    1.5480   -0.5141 H   0  0  0  0  0  0  0  0  0  0  0  0
    1.3092    3.4796   -0.2372 C   0  0  0  0  0  0  0  0  0  0  0  0
    0.9825    3.8328    0.7429 H   0  0  0  0  0  0  0  0  0  0  0  0
    2.3094    3.8640   -0.4420 H   0  0  0  0  0  0  0  0  0  0  0  0
    0.6159    3.8578   -0.9904 H   0  0  0  0  0  0  0  0  0  0  0  0
  5  6  2  0  0  0  0
  5  7  1  0  0  0  0
  2  3  1  0  0  0  0
  2  4  1  0  0  0  0
  2  5  1  0  0  0  0
  1  2  1  0  0  0  0
 15 16  2  0  0  0  0
 15 17  1  0  0  0  0
 11 12  1  0  0  0  0
 11 13  1  0  0  0  0
 11 14  1  0  0  0  0
  9 10  1  0  0  0  0
  9 11  1  0  0  0  0
  9 15  1  0  0  0  0
  7  8  1  0  0  0  0
  7  9  1  0  0  0  0
 19 20  1  0  0  0  0
 19 21  1  0  0  0  0
 19 22  1  0  0  0  0
 17 18  1  0  0  0  0
 17 19  1  0  0  0  0
M  END
$$$$
default_name
  -OEChem-01062215323D

 22 21  0     1  0  0  0  0  0999 V2000
   -2.5423   -3.6749    0.8058 H   0  0  0  0  0  0  0  0  0  0  0  0
   -2.5063   -2.6779    0.3688 C   0  0  0  0  0  0  0  0  0  0  0  0
   -3.1603   -2.0109    0.9268 H   0  0  0  0  0  0  0  0  0  0  0  0
   -2.8193   -2.7229   -0.6722 H   0  0  0  0  0  0  0  0  0  0  0  0
   -1.0873   -2.1629    0.4418 C   0  0  0  0  0  0  0  0  0  0  0  0
   -0.2073   -2.8549    0.9368 O   0  0  0  0  0  0  0  0  0  0  0  0
   -0.8713   -0.9449   -0.0482 N   0  0  0  0  0  0  0  0  0  0  0  0
   -1.6543   -0.4189   -0.4062 H   0  0  0  0  0  0  0  0  0  0  0  0
    0.4237   -0.2649   -0.0462 C   0  0  1  0  0  0  0  0  0  0  0  0
    0.9892   -0.5858    0.8302 H   0  0  0  0  0  0  0  0  0  0  0  0
    1.2030   -0.6727   -1.3060 C   0  0  0  0  0  0  0  0  0  0  0  0
    0.6543   -0.3655   -2.1979 H   0  0  0  0  0  0  0  0  0  0  0  0
    2.1839   -0.1987   -1.3079 H   0  0  0  0  0  0  0  0  0  0  0  0
    1.3370   -1.7557   -1.3220 H   0  0  0  0  0  0  0  0  0  0  0  0
    0.2455    1.2636    0.0383 C   0  0  0  0  0  0  0  0  0  0  0  0
   -0.7323    1.7469    0.6087 O   0  0  0  0  0  0  0  0  0  0  0  0
    1.1855    2.0187   -0.5441 N   0  0  0  0  0  0  0  0  0  0  0  0
    1.9540    1.5500   -0.9966 H   0  0  0  0  0  0  0  0  0  0  0  0
    1.1627    3.4805   -0.5634 C   0  0  0  0  0  0  0  0  0  0  0  0
    1.0919    3.8613    0.4574 H   0  0  0  0  0  0  0  0  0  0  0  0
    2.0698    3.8685   -1.0290 H   0  0  0  0  0  0  0  0  0  0  0  0
    0.2926    3.8274   -1.1235 H   0  0  0  0  0  0  0  0  0  0  0  0
  5  6  2  0  0  0  0
  5  7  1  0  0  0  0
  2  3  1  0  0  0  0
  2  4  1  0  0  0  0
  2  5  1  0  0  0  0
  1  2  1  0  0  0  0
 15 16  2  0  0  0  0
 15 17  1  0  0  0  0
 11 12  1  0  0  0  0
 11 13  1  0  0  0  0
 11 14  1  0  0  0  0
  9 10  1  0  0  0  0
  9 11  1  0  0  0  0
  9 15  1  0  0  0  0
  7  8  1  0  0  0  0
  7  9  1  0  0  0  0
 19 20  1  0  0  0  0
 19 21  1  0  0  0  0
 19 22  1  0  0  0  0
 17 18  1  0  0  0  0
 17 19  1  0  0  0  0
M  END
$$$$
default_name
  -OEChem-01062215323D

 22 21  0     1  0  0  0  0  0999 V2000
   -2.5423   -3.6749    0.8058 H   0  0  0  0  0  0  0  0  0  0  0  0
   -2.5063   -2.6779    0.3688 C   0  0  0  0  0  0  0  0  0  0  0  0
   -3.1603   -2.0109    0.9268 H   0  0  0  0  0  0  0  0  0  0  0  0
   -2.8193   -2.7229   -0.6722 H   0  0  0  0  0  0  0  0  0  0  0  0
   -1.0873   -2.1629    0.4418 C   0  0  0  0  0  0  0  0  0  0  0  0
   -0.2073   -2.8549    0.9368 O   0  0  0  0  0  0  0  0  0  0  0  0
   -0.8713   -0.9449   -0.0482 N   0  0  0  0  0  0  0  0  0  0  0  0
   -1.6543   -0.4189   -0.4062 H   0  0  0  0  0  0  0  0  0  0  0  0
    0.4237   -0.2649   -0.0462 C   0  0  1  0  0  0  0  0  0  0  0  0
    0.9892   -0.5858    0.8302 H   0  0  0  0  0  0  0  0  0  0  0  0
    1.2030   -0.6727   -1.3060 C   0  0  0  0  0  0  0  0  0  0  0  0
    0.6543   -0.3655   -2.1979 H   0  0  0  0  0  0  0  0  0  0  0  0
    2.1839   -0.1987   -1.3079 H   0  0  0  0  0  0  0  0  0  0  0  0
    1.3370   -1.7557   -1.3220 H   0  0  0  0  0  0  0  0  0  0  0  0
    0.2455    1.2636    0.0383 C   0  0  0  0  0  0  0  0  0  0  0  0
   -0.5619    1.7547    0.8269 O   0  0  0  0  0  0  0  0  0  0  0  0
    0.9909    2.0094   -0.7870 N   0  0  0  0  0  0  0  0  0  0  0  0
    1.6260    1.5345   -1.4084 H   0  0  0  0  0  0  0  0  0  0  0  0
    0.9374    3.4696   -0.8408 C   0  0  0  0  0  0  0  0  0  0  0  0
    1.1239    3.8819    0.1528 H   0  0  0  0  0  0  0  0  0  0  0  0
    1.6875    3.8519   -1.5346 H   0  0  0  0  0  0  0  0  0  0  0  0
   -0.0534    3.7895   -1.1681 H   0  0  0  0  0  0  0  0  0  0  0  0
  5  6  2  0  0  0  0
  5  7  1  0  0  0  0
  2  3  1  0  0  0  0
  2  4  1  0  0  0  0
  2  5  1  0  0  0  0
  1  2  1  0  0  0  0
 15 16  2  0  0  0  0
 15 17  1  0  0  0  0
 11 12  1  0  0  0  0
 11 13  1  0  0  0  0
 11 14  1  0  0  0  0
  9 10  1  0  0  0  0
  9 11  1  0  0  0  0
  9 15  1  0  0  0  0
  7  8  1  0  0  0  0
  7  9  1  0  0  0  0
 19 20  1  0  0  0  0
 19 21  1  0  0  0  0
 19 22  1  0  0  0  0
 17 18  1  0  0  0  0
 17 19  1  0  0  0  0
M  END
$$$$
default_name
  -OEChem-01062215323D

 22 21  0     1  0  0  0  0  0999 V2000
   -2.5423   -3.6749    0.8058 H   0  0  0  0  0  0  0  0  0  0  0  0
   -2.5063   -2.6779    0.3688 C   0  0  0  0  0  0  0  0  0  0  0  0
   -3.1603   -2.0109    0.9268 H   0  0  0  0  0  0  0  0  0  0  0  0
   -2.8193   -2.7229   -0.6722 H   0  0  0  0  0  0  0  0  0  0  0  0
   -1.0873   -2.1629    0.4418 C   0  0  0  0  0  0  0  0  0  0  0  0
   -0.2073   -2.8549    0.9368 O   0  0  0  0  0  0  0  0  0  0  0  0
   -0.8713   -0.9449   -0.0482 N   0  0  0  0  0  0  0  0  0  0  0  0
   -1.6543   -0.4189   -0.4062 H   0  0  0  0  0  0  0  0  0  0  0  0
    0.4237   -0.2649   -0.0462 C   0  0  1  0  0  0  0  0  0  0  0  0
    0.9892   -0.5858    0.8302 H   0  0  0  0  0  0  0  0  0  0  0  0
    1.2030   -0.6727   -1.3060 C   0  0  0  0  0  0  0  0  0  0  0  0
    0.6543   -0.3655   -2.1979 H   0  0  0  0  0  0  0  0  0  0  0  0
    2.1839   -0.1987   -1.3079 H   0  0  0  0  0  0  0  0  0  0  0  0
    1.3370   -1.7557   -1.3220 H   0  0  0  0  0  0  0  0  0  0  0  0
    0.2455    1.2636    0.0383 C   0  0  0  0  0  0  0  0  0  0  0  0
   -0.3414    1.7712    0.9937 O   0  0  0  0  0  0  0  0  0  0  0  0
    0.7407    1.9904   -0.9714 N   0  0  0  0  0  0  0  0  0  0  0  0
    1.2036    1.5026   -1.7215 H   0  0  0  0  0  0  0  0  0  0  0  0
    0.6487    3.4475   -1.0507 C   0  0  0  0  0  0  0  0  0  0  0  0
    1.0764    3.8931   -0.1503 H   0  0  0  0  0  0  0  0  0  0  0  0
    1.1888    3.8153   -1.9243 H   0  0  0  0  0  0  0  0  0  0  0  0
   -0.3985    3.7467   -1.1213 H   0  0  0  0  0  0  0  0  0  0  0  0
  5  6  2  0  0  0  0
  5  7  1  0  0  0  0
  2  3  1  0  0  0  0
  2  4  1  0  0  0  0
  2  5  1  0  0  0  0
  1  2  1  0  0  0  0
 15 16  2  0  0  0  0
 15 17  1  0  0  0  0
 11 12  1  0  0  0  0
 11 13  1  0  0  0  0
 11 14  1  0  0  0  0
  9 10  1  0  0  0  0
  9 11  1  0  0  0  0
  9 15  1  0  0  0  0
  7  8  1  0  0  0  0
  7  9  1  0  0  0  0
 19 20  1  0  0  0  0
 19 21  1  0  0  0  0
 19 22  1  0  0  0  0
 17 18  1  0  0  0  0
 17 19  1  0  0  0  0
M  END
$$$$
default_name
  -OEChem-01062215323D

 22 21  0     1  0  0  0  0  0999 V2000
   -2.5423   -3.6749    0.8058 H   0  0  0  0  0  0  0  0  0  0  0  0
   -2.5063   -2.6779    0.3688 C   0  0  0  0  0  0  0  0  0  0  0  0
   -3.1603   -2.0109    0.9268 H   0  0  0  0  0  0  0  0  0  0  0  0
   -2.8193   -2.7229   -0.6722 H   0  0  0  0  0  0  0  0  0  0  0  0
   -1.0873   -2.1629    0.4418 C   0  0  0  0  0  0  0  0  0  0  0  0
   -0.2073   -2.8549    0.9368 O   0  0  0  0  0  0  0  0  0  0  0  0
   -0.8713   -0.9449   -0.0482 N   0  0  0  0  0  0  0  0  0  0  0  0
   -1.6543   -0.4189   -0.4062 H   0  0  0  0  0  0  0  0  0  0  0  0
    0.4237   -0.2649   -0.0462 C   0  0  1  0  0  0  0  0  0  0  0  0
    0.9892   -0.5858    0.8302 H   0  0  0  0  0  0  0  0  0  0  0  0
    1.2030   -0.6727   -1.3060 C   0  0  0  0  0  0  0  0  0  0  0  0
    0.6543   -0.3655   -2.1979 H   0  0  0  0  0  0  0  0  0  0  0  0
    2.1839   -0.1987   -1.3079 H   0  0  0  0  0  0  0  0  0  0  0  0
    1.3370   -1.7557   -1.3220 H   0  0  0  0  0  0  0  0  0  0  0  0
    0.2455    1.2636    0.0383 C   0  0  0  0  0  0  0  0  0  0  0  0
   -0.0858    1.7953    1.0978 O   0  0  0  0  0  0  0  0  0  0  0  0
    0.4519    1.9630   -1.0847 N   0  0  0  0  0  0  0  0  0  0  0  0
    0.7157    1.4564   -1.9146 H   0  0  0  0  0  0  0  0  0  0  0  0
    0.3163    3.4159   -1.1786 C   0  0  0  0  0  0  0  0  0  0  0  0
    0.9524    3.8942   -0.4312 H   0  0  0  0  0  0  0  0  0  0  0  0
    0.6075    3.7612   -2.1716 H   0  0  0  0  0  0  0  0  0  0  0  0
   -0.7192    3.7018   -0.9862 H   0  0  0  0  0  0  0  0  0  0  0  0
  5  6  2  0  0  0  0
  5  7  1  0  0  0  0
  2  3  1  0  0  0  0
  2  4  1  0  0  0  0
  2  5  1  0  0  0  0
  1  2  1  0  0  0  0
 15 16  2  0  0  0  0
 15 17  1  0  0  0  0
 11 12  1  0  0  0  0
 11 13  1  0  0  0  0
 11 14  1  0  0  0  0
  9 10  1  0  0  0  0
  9 11  1  0  0  0  0
  9 15  1  0  0  0  0
  7  8  1  0  0  0  0
  7  9  1  0  0  0  0
 19 20  1  0  0  0  0
 19 21  1  0  0  0  0
 19 22  1  0  0  0  0
 17 18  1  0  0  0  0
 17 19  1  0  0  0  0
M  END
$$$$
default_name
  -OEChem-01062215323D

 22 21  0     1  0  0  0  0  0999 V2000
   -2.5423   -3.6749    0.8058 H   0  0  0  0  0  0  0  0  0  0  0  0
   -2.5063   -2.6779    0.3688 C   0  0  0  0  0  0  0  0  0  0  0  0
   -3.1603   -2.0109    0.9268 H   0  0  0  0  0  0  0  0  0  0  0  0
   -2.8193   -2.7229   -0.6722 H   0  0  0  0  0  0  0  0  0  0  0  0
   -1.0873   -2.1629    0.4418 C   0  0  0  0  0  0  0  0  0  0  0  0
   -0.2073   -2.8549    0.9368 O   0  0  0  0  0  0  0  0  0  0  0  0
   -0.8713   -0.9449   -0.0482 N   0  0  0  0  0  0  0  0  0  0  0  0
   -1.6543   -0.4189   -0.4062 H   0  0  0  0  0  0  0  0  0  0  0  0
    0.4237   -0.2649   -0.0462 C   0  0  1  0  0  0  0  0  0  0  0  0
    0.9892   -0.5858    0.8302 H   0  0  0  0  0  0  0  0  0  0  0  0
    1.2030   -0.6727   -1.3060 C   0  0  0  0  0  0  0  0  0  0  0  0
    0.6543   -0.3655   -2.1979 H   0  0  0  0  0  0  0  0  0  0  0  0
    2.1839   -0.1987   -1.3079 H   0  0  0  0  0  0  0  0  0  0  0  0
    1.3370   -1.7557   -1.3220 H   0  0  0  0  0  0  0  0  0  0  0  0
    0.2455    1.2636    0.0383 C   0  0  0  0  0  0  0  0  0  0  0  0
    0.1874    1.8253    1.1319 O   0  0  0  0  0  0  0  0  0  0  0  0
    0.1442    1.9291   -1.1193 N   0  0  0  0  0  0  0  0  0  0  0  0
    0.1956    1.3990   -1.9745 H   0  0  0  0  0  0  0  0  0  0  0  0
   -0.0372    3.3767   -1.2159 C   0  0  0  0  0  0  0  0  0  0  0  0
    0.7606    3.8851   -0.6708 H   0  0  0  0  0  0  0  0  0  0  0  0
   -0.0167    3.6932   -2.2597 H   0  0  0  0  0  0  0  0  0  0  0  0
   -0.9937    3.6580   -0.7721 H   0  0  0  0  0  0  0  0  0  0  0  0
  5  6  2  0  0  0  0
  5  7  1  0  0  0  0
  2  3  1  0  0  0  0
  2  4  1  0  0  0  0
  2  5  1  0  0  0  0
  1  2  1  0  0  0  0
 15 16  2  0  0  0  0
 15 17  1  0  0  0  0
 11 12  1  0  0  0  0
 11 13  1  0  0  0  0
 11 14  1  0  0  0  0
  9 10  1  0  0  0  0
  9 11  1  0  0  0  0
  9 15  1  0  0  0  0
  7  8  1  0  0  0  0
  7  9  1  0  0  0  0
 19 20  1  0  0  0  0
 19 21  1  0  0  0  0
 19 22  1  0  0  0  0
 17 18  1  0  0  0  0
 17 19  1  0  0  0  0
M  END
$$$$
default_name
  -OEChem-01062215323D

 22 21  0     1  0  0  0  0  0999 V2000
   -2.5423   -3.6749    0.8058 H   0  0  0  0  0  0  0  0  0  0  0  0
   -2.5063   -2.6779    0.3688 C   0  0  0  0  0  0  0  0  0  0  0  0
   -3.1603   -2.0109    0.9268 H   0  0  0  0  0  0  0  0  0  0  0  0
   -2.8193   -2.7229   -0.6722 H   0  0  0  0  0  0  0  0  0  0  0  0
   -1.0873   -2.1629    0.4418 C   0  0  0  0  0  0  0  0  0  0  0  0
   -0.2073   -2.8549    0.9368 O   0  0  0  0  0  0  0  0  0  0  0  0
   -0.8713   -0.9449   -0.0482 N   0  0  0  0  0  0  0  0  0  0  0  0
   -1.6543   -0.4189   -0.4062 H   0  0  0  0  0  0  0  0  0  0  0  0
    0.4237   -0.2649   -0.0462 C   0  0  1  0  0  0  0  0  0  0  0  0
    0.9892   -0.5858    0.8302 H   0  0  0  0  0  0  0  0  0  0  0  0
    1.2030   -0.6727   -1.3060 C   0  0  0  0  0  0  0  0  0  0  0  0
    0.6543   -0.3655   -2.1979 H   0  0  0  0  0  0  0  0  0  0  0  0
    2.1839   -0.1987   -1.3079 H   0  0  0  0  0  0  0  0  0  0  0  0
    1.3370   -1.7557   -1.3220 H   0  0  0  0  0  0  0  0  0  0  0  0
    0.2455    1.2636    0.0383 C   0  0  0  0  0  0  0  0  0  0  0  0
    0.4597    1.8591    1.0939 O   0  0  0  0  0  0  0  0  0  0  0  0
   -0.1613    1.8908   -1.0726 N   0  0  0  0  0  0  0  0  0  0  0  0
   -0.3214    1.3344   -1.8971 H   0  0  0  0  0  0  0  0  0  0  0  0
   -0.3876    3.3327   -1.1601 C   0  0  0  0  0  0  0  0  0  0  0  0
    0.5140    3.8664   -0.8527 H   0  0  0  0  0  0  0  0  0  0  0  0
   -0.6412    3.6161   -2.1825 H   0  0  0  0  0  0  0  0  0  0  0  0
   -1.2032    3.6181   -0.4934 H   0  0  0  0  0  0  0  0  0  0  0  0
  5  6  2  0  0  0  0
  5  7  1  0  0  0  0
  2  3  1  0  0  0  0
  2  4  1  0  0  0  0
  2  5  1  0  0  0  0
  1  2  1  0  0  0  0
 15 16  2  0  0  0  0
 15 17  1  0  0  0  0
 11 12  1  0  0  0  0
 11 13  1  0  0  0  0
 11 14  1  0  0  0  0
  9 10  1  0  0  0  0
  9 11  1  0  0  0  0
  9 15  1  0  0  0  0
  7  8  1  0  0  0  0
  7  9  1  0  0  0  0
 19 20  1  0  0  0  0
 19 21  1  0  0  0  0
 19 22  1  0  0  0  0
 17 18  1  0  0  0  0
 17 19  1  0  0  0  0
M  END
$$$$
default_name
  -OEChem-01062215323D

 22 21  0     1  0  0  0  0  0999 V2000
   -2.5423   -3.6749    0.8058 H   0  0  0  0  0  0  0  0  0  0  0  0
   -2.5063   -2.6779    0.3688 C   0  0  0  0  0  0  0  0  0  0  0  0
   -3.1603   -2.0109    0.9268 H   0  0  0  0  0  0  0  0  0  0  0  0
   -2.8193   -2.7229   -0.6722 H   0  0  0  0  0  0  0  0  0  0  0  0
   -1.0873   -2.1629    0.4418 C   0  0  0  0  0  0  0  0  0  0  0  0
   -0.2073   -2.8549    0.9368 O   0  0  0  0  0  0  0  0  0  0  0  0
   -0.8713   -0.9449   -0.0482 N   0  0  0  0  0  0  0  0  0  0  0  0
   -1.6543   -0.4189   -0.4062 H   0  0  0  0  0  0  0  0  0  0  0  0
    0.4237   -0.2649   -0.0462 C   0  0  1  0  0  0  0  0  0  0  0  0
    0.9892   -0.5858    0.8302 H   0  0  0  0  0  0  0  0  0  0  0  0
    1.2030   -0.6727   -1.3060 C   0  0  0  0  0  0  0  0  0  0  0  0
    0.6543   -0.3655   -2.1979 H   0  0  0  0  0  0  0  0  0  0  0  0
    2.1839   -0.1987   -1.3079 H   0  0  0  0  0  0  0  0  0  0  0  0
    1.3370   -1.7557   -1.3220 H   0  0  0  0  0  0  0  0  0  0  0  0
    0.2455    1.2636    0.0383 C   0  0  0  0  0  0  0  0  0  0  0  0
    0.7125    1.8945    0.9863 O   0  0  0  0  0  0  0  0  0  0  0  0
   -0.4439    1.8510   -0.9480 N   0  0  0  0  0  0  0  0  0  0  0  0
   -0.8000    1.2670   -1.6877 H   0  0  0  0  0  0  0  0  0  0  0  0
   -0.7111    3.2870   -1.0148 C   0  0  0  0  0  0  0  0  0  0  0  0
    0.2293    3.8394   -0.9645 H   0  0  0  0  0  0  0  0  0  0  0  0
   -1.2236    3.5351   -1.9454 H   0  0  0  0  0  0  0  0  0  0  0  0
   -1.3335    3.5850   -0.1693 H   0  0  0  0  0  0  0  0  0  0  0  0
  5  6  2  0  0  0  0
  5  7  1  0  0  0  0
  2  3  1  0  0  0  0
  2  4  1  0  0  0  0
  2  5  1  0  0  0  0
  1  2  1  0  0  0  0
 15 16  2  0  0  0  0
 15 17  1  0  0  0  0
 11 12  1  0  0  0  0
 11 13  1  0  0  0  0
 11 14  1  0  0  0  0
  9 10  1  0  0  0  0
  9 11  1  0  0  0  0
  9 15  1  0  0  0  0
  7  8  1  0  0  0  0
  7  9  1  0  0  0  0
 19 20  1  0  0  0  0
 19 21  1  0  0  0  0
 19 22  1  0  0  0  0
 17 18  1  0  0  0  0
 17 19  1  0  0  0  0
M  END
$$$$
default_name
  -OEChem-01062215323D

 22 21  0     1  0  0  0  0  0999 V2000
   -2.5423   -3.6749    0.8058 H   0  0  0  0  0  0  0  0  0  0  0  0
   -2.5063   -2.6779    0.3688 C   0  0  0  0  0  0  0  0  0  0  0  0
   -3.1603   -2.0109    0.9268 H   0  0  0  0  0  0  0  0  0  0  0  0
   -2.8193   -2.7229   -0.6722 H   0  0  0  0  0  0  0  0  0  0  0  0
   -1.0873   -2.1629    0.4418 C   0  0  0  0  0  0  0  0  0  0  0  0
   -0.2073   -2.8549    0.9368 O   0  0  0  0  0  0  0  0  0  0  0  0
   -0.8713   -0.9449   -0.0482 N   0  0  0  0  0  0  0  0  0  0  0  0
   -1.6543   -0.4189   -0.4062 H   0  0  0  0  0  0  0  0  0  0  0  0
    0.4237   -0.2649   -0.0462 C   0  0  1  0  0  0  0  0  0  0  0  0
    0.9892   -0.5858    0.8302 H   0  0  0  0  0  0  0  0  0  0  0  0
    1.2030   -0.6727   -1.3060 C   0  0  0  0  0  0  0  0  0  0  0  0
    0.6543   -0.3655   -2.1979 H   0  0  0  0  0  0  0  0  0  0  0  0
    2.1839   -0.1987   -1.3079 H   0  0  0  0  0  0  0  0  0  0  0  0
    1.3370   -1.7557   -1.3220 H   0  0  0  0  0  0  0  0  0  0  0  0
    0.2455    1.2636    0.0383 C   0  0  0  0  0  0  0  0  0  0  0  0
    0.9285    1.9291    0.8164 O   0  0  0  0  0  0  0  0  0  0  0  0
   -0.6843    1.8122   -0.7539 N   0  0  0  0  0  0  0  0  0  0  0  0
   -1.2076    1.2014   -1.3606 H   0  0  0  0  0  0  0  0  0  0  0  0
   -0.9857    3.2425   -0.7901 C   0  0  0  0  0  0  0  0  0  0  0  0
   -0.0740    3.8059   -0.9986 H   0  0  0  0  0  0  0  0  0  0  0  0
   -1.7241    3.4556   -1.5644 H   0  0  0  0  0  0  0  0  0  0  0  0
   -1.3757    3.5609    0.1782 H   0  0  0  0  0  0  0  0  0  0  0  0
  5  6  2  0  0  0  0
  5  7  1  0  0  0  0
  2  3  1  0  0  0  0
  2  4  1  0  0  0  0
  2  5  1  0  0  0  0
  1  2  1  0  0  0  0
 15 16  2  0  0  0  0
 15 17  1  0  0  0  0
 11 12  1  0  0  0  0
 11 13  1  0  0  0  0
 11 14  1  0  0  0  0
  9 10  1  0  0  0  0
  9 11  1  0  0  0  0
  9 15  1  0  0  0  0
  7  8  1  0  0  0  0
  7  9  1  0  0  0  0
 19 20  1  0  0  0  0
 19 21  1  0  0  0  0
 19 22  1  0  0  0  0
 17 18  1  0  0  0  0
 17 19  1  0  0  0  0
M  END
$$$$
default_name
  -OEChem-01062215323D

 22 21  0     1  0  0  0  0  0999 V2000
   -2.5423   -3.6749    0.8058 H   0  0  0  0  0  0  0  0  0  0  0  0
   -2.5063   -2.6779    0.3688 C   0  0  0  0  0  0  0  0  0  0  0  0
   -3.1603   -2.0109    0.9268 H   0  0  0  0  0  0  0  0  0  0  0  0
   -2.8193   -2.7229   -0.6722 H   0  0  0  0  0  0  0  0  0  0  0  0
   -1.0873   -2.1629    0.4418 C   0  0  0  0  0  0  0  0  0  0  0  0
   -0.2073   -2.8549    0.9368 O   0  0  0  0  0  0  0  0  0  0  0  0
   -0.8713   -0.9449   -0.0482 N   0  0  0  0  0  0  0  0  0  0  0  0
   -1.6543   -0.4189   -0.4062 H   0  0  0  0  0  0  0  0  0  0  0  0
    0.4237   -0.2649   -0.0462 C   0  0  1  0  0  0  0  0  0  0  0  0
    0.9892   -0.5858    0.8302 H   0  0  0  0  0  0  0  0  0  0  0  0
    1.2030   -0.6727   -1.3060 C   0  0  0  0  0  0  0  0  0  0  0  0
    0.6543   -0.3655   -2.1979 H   0  0  0  0  0  0  0  0  0  0  0  0
    2.1839   -0.1987   -1.3079 H   0  0  0  0  0  0  0  0  0  0  0  0
    1.3370   -1.7557   -1.3220 H   0  0  0  0  0  0  0  0  0  0  0  0
    0.2455    1.2636    0.0383 C   0  0  0  0  0  0  0  0  0  0  0  0
    1.0930    1.9605    0.5958 O   0  0  0  0  0  0  0  0  0  0  0  0
   -0.8662    1.7772   -0.5035 N   0  0  0  0  0  0  0  0  0  0  0  0
   -1.5164    1.1420   -0.9380 H   0  0  0  0  0  0  0  0  0  0  0  0
   -1.1926    3.2024   -0.5013 C   0  0  0  0  0  0  0  0  0  0  0  0
   -0.3752    3.7682   -0.9527 H   0  0  0  0  0  0  0  0  0  0  0  0
   -2.1086    3.3832   -1.0655 H   0  0  0  0  0  0  0  0  0  0  0  0
   -1.3269    3.5473    0.5254 H   0  0  0  0  0  0  0  0  0  0  0  0
  5  6  2  0  0  0  0
  5  7  1  0  0  0  0
  2  3  1  0  0  0  0
  2  4  1  0  0  0  0
  2  5  1  0  0  0  0
  1  2  1  0  0  0  0
 15 16  2  0  0  0  0
 15 17  1  0  0  0  0
 11 12  1  0  0  0  0
 11 13  1  0  0  0  0
 11 14  1  0  0  0  0
  9 10  1  0  0  0  0
  9 11  1  0  0  0  0
  9 15  1  0  0  0  0
  7  8  1  0  0  0  0
  7  9  1  0  0  0  0
 19 20  1  0  0  0  0
 19 21  1  0  0  0  0
 19 22  1  0  0  0  0
 17 18  1  0  0  0  0
 17 19  1  0  0  0  0
M  END
$$$$
default_name
  -OEChem-01062215323D

 22 21  0     1  0  0  0  0  0999 V2000
   -2.5423   -3.6749    0.8058 H   0  0  0  0  0  0  0  0  0  0  0  0
   -2.5063   -2.6779    0.3688 C   0  0  0  0  0  0  0  0  0  0  0  0
   -3.1603   -2.0109    0.9268 H   0  0  0  0  0  0  0  0  0  0  0  0
   -2.8193   -2.7229   -0.6722 H   0  0  0  0  0  0  0  0  0  0  0  0
   -1.0873   -2.1629    0.4418 C   0  0  0  0  0  0  0  0  0  0  0  0
   -0.2073   -2.8549    0.9368 O   0  0  0  0  0  0  0  0  0  0  0  0
   -0.8713   -0.9449   -0.0482 N   0  0  0  0  0  0  0  0  0  0  0  0
   -1.6543   -0.4189   -0.4062 H   0  0  0  0  0  0  0  0  0  0  0  0
    0.4237   -0.2649   -0.0462 C   0  0  1  0  0  0  0  0  0  0  0  0
    0.9892   -0.5858    0.8302 H   0  0  0  0  0  0  0  0  0  0  0  0
    1.2030   -0.6727   -1.3060 C   0  0  0  0  0  0  0  0  0  0  0  0
    0.6543   -0.3655   -2.1979 H   0  0  0  0  0  0  0  0  0  0  0  0
    2.1839   -0.1987   -1.3079 H   0  0  0  0  0  0  0  0  0  0  0  0
    1.3370   -1.7557   -1.3220 H   0  0  0  0  0  0  0  0  0  0  0  0
    0.2455    1.2636    0.0383 C   0  0  0  0  0  0  0  0  0  0  0  0
    1.1949    1.9866    0.3396 O   0  0  0  0  0  0  0  0  0  0  0  0
   -0.9771    1.7482   -0.2140 N   0  0  0  0  0  0  0  0  0  0  0  0
   -1.7054    1.0929   -0.4488 H   0  0  0  0  0  0  0  0  0  0  0  0
   -1.3178    3.1694   -0.1679 C   0  0  0  0  0  0  0  0  0  0  0  0
   -0.6539    3.7289   -0.8299 H   0  0  0  0  0  0  0  0  0  0  0  0
   -2.3509    3.3227   -0.4828 H   0  0  0  0  0  0  0  0  0  0  0  0
   -1.1905    3.5454    0.8486 H   0  0  0  0  0  0  0  0  0  0  0  0
  5  6  2  0  0  0  0
  5  7  1  0  0  0  0
  2  3  1  0  0  0  0
  2  4  1  0  0  0  0
  2  5  1  0  0  0  0
  1  2  1  0  0  0  0
 15 16  2  0  0  0  0
 15 17  1  0  0  0  0
 11 12  1  0  0  0  0
 11 13  1  0  0  0  0
 11 14  1  0  0  0  0
  9 10  1  0  0  0  0
  9 11  1  0  0  0  0
  9 15  1  0  0  0  0
  7  8  1  0  0  0  0
  7  9  1  0  0  0  0
 19 20  1  0  0  0  0
 19 21  1  0  0  0  0
 19 22  1  0  0  0  0
 17 18  1  0  0  0  0
 17 19  1  0  0  0  0
M  END
$$$$
default_name
  -OEChem-01062215323D

 22 21  0     1  0  0  0  0  0999 V2000
   -2.5423   -3.6749    0.8058 H   0  0  0  0  0  0  0  0  0  0  0  0
   -2.5063   -2.6779    0.3688 C   0  0  0  0  0  0  0  0  0  0  0  0
   -3.1603   -2.0109    0.9268 H   0  0  0  0  0  0  0  0  0  0  0  0
   -2.8193   -2.7229   -0.6722 H   0  0  0  0  0  0  0  0  0  0  0  0
   -1.0873   -2.1629    0.4418 C   0  0  0  0  0  0  0  0  0  0  0  0
   -0.2073   -2.8549    0.9368 O   0  0  0  0  0  0  0  0  0  0  0  0
   -0.8713   -0.9449   -0.0482 N   0  0  0  0  0  0  0  0  0  0  0  0
   -1.6543   -0.4189   -0.4062 H   0  0  0  0  0  0  0  0  0  0  0  0
    0.4237   -0.2649   -0.0462 C   0  0  1  0  0  0  0  0  0  0  0  0
    0.9892   -0.5858    0.8302 H   0  0  0  0  0  0  0  0  0  0  0  0
    1.2030   -0.6727   -1.3060 C   0  0  0  0  0  0  0  0  0  0  0  0
    0.6543   -0.3655   -2.1979 H   0  0  0  0  0  0  0  0  0  0  0  0
    2.1839   -0.1987   -1.3079 H   0  0  0  0  0  0  0  0  0  0  0  0
    1.3370   -1.7557   -1.3220 H   0  0  0  0  0  0  0  0  0  0  0  0
    0.2455    1.2636    0.0383 C   0  0  0  0  0  0  0  0  0  0  0  0
    1.2271    2.0055    0.0651 O   0  0  0  0  0  0  0  0  0  0  0  0
   -1.0094    1.7273    0.0951 N   0  0  0  0  0  0  0  0  0  0  0  0
   -1.7616    1.0575    0.0738 H   0  0  0  0  0  0  0  0  0  0  0  0
   -1.3526    3.1457    0.1871 C   0  0  0  0  0  0  0  0  0  0  0  0
   -0.8909    3.6907   -0.6386 H   0  0  0  0  0  0  0  0  0  0  0  0
   -2.4346    3.2783    0.1441 H   0  0  0  0  0  0  0  0  0  0  0  0
   -0.9757    3.5551    1.1259 H   0  0  0  0  0  0  0  0  0  0  0  0
  5  6  2  0  0  0  0
  5  7  1  0  0  0  0
  2  3  1  0  0  0  0
  2  4  1  0  0  0  0
  2  5  1  0  0  0  0
  1  2  1  0  0  0  0
 15 16  2  0  0  0  0
 15 17  1  0  0  0  0
 11 12  1  0  0  0  0
 11 13  1  0  0  0  0
 11 14  1  0  0  0  0
  9 10  1  0  0  0  0
  9 11  1  0  0  0  0
  9 15  1  0  0  0  0
  7  8  1  0  0  0  0
  7  9  1  0  0  0  0
 19 20  1  0  0  0  0
 19 21  1  0  0  0  0
 19 22  1  0  0  0  0
 17 18  1  0  0  0  0
 17 19  1  0  0  0  0
M  END
$$$$
default_name
  -OEChem-01062215323D

 22 21  0     1  0  0  0  0  0999 V2000
   -2.5423   -3.6749    0.8058 H   0  0  0  0  0  0  0  0  0  0  0  0
   -2.5063   -2.6779    0.3688 C   0  0  0  0  0  0  0  0  0  0  0  0
   -3.1603   -2.0109    0.9268 H   0  0  0  0  0  0  0  0  0  0  0  0
   -2.8193   -2.7229   -0.6722 H   0  0  0  0  0  0  0  0  0  0  0  0
   -1.0873   -2.1629    0.4418 C   0  0  0  0  0  0  0  0  0  0  0  0
   -0.2073   -2.8549    0.9368 O   0  0  0  0  0  0  0  0  0  0  0  0
   -0.8713   -0.9449   -0.0482 N   0  0  0  0  0  0  0  0  0  0  0  0
   -1.6543   -0.4189   -0.4062 H   0  0  0  0  0  0  0  0  0  0  0  0
    0.4237   -0.2649   -0.0462 C   0  0  1  0  0  0  0  0  0  0  0  0
    0.9892   -0.5858    0.8302 H   0  0  0  0  0  0  0  0  0  0  0  0
    1.2030   -0.6727   -1.3060 C   0  0  0  0  0  0  0  0  0  0  0  0
    0.6543   -0.3655   -2.1979 H   0  0  0  0  0  0  0  0  0  0  0  0
    2.1839   -0.1987   -1.3079 H   0  0  0  0  0  0  0  0  0  0  0  0
    1.3370   -1.7557   -1.3220 H   0  0  0  0  0  0  0  0  0  0  0  0
    0.2455    1.2636    0.0383 C   0  0  0  0  0  0  0  0  0  0  0  0
    1.1876    2.0161   -0.2088 O   0  0  0  0  0  0  0  0  0  0  0  0
   -0.9611    1.7160    0.4025 N   0  0  0  0  0  0  0  0  0  0  0  0
   -1.6813    1.0381    0.5940 H   0  0  0  0  0  0  0  0  0  0  0  0
   -1.2948    3.1329    0.5398 C   0  0  0  0  0  0  0  0  0  0  0  0
   -1.0703    3.6561   -0.3919 H   0  0  0  0  0  0  0  0  0  0  0  0
   -2.3538    3.2530    0.7725 H   0  0  0  0  0  0  0  0  0  0  0  0
   -0.6972    3.5758    1.3384 H   0  0  0  0  0  0  0  0  0  0  0  0
  5  6  2  0  0  0  0
  5  7  1  0  0  0  0
  2  3  1  0  0  0  0
  2  4  1  0  0  0  0
  2  5  1  0  0  0  0
  1  2  1  0  0  0  0
 15 16  2  0  0  0  0
 15 17  1  0  0  0  0
 11 12  1  0  0  0  0
 11 13  1  0  0  0  0
 11 14  1  0  0  0  0
  9 10  1  0  0  0  0
  9 11  1  0  0  0  0
  9 15  1  0  0  0  0
  7  8  1  0  0  0  0
  7  9  1  0  0  0  0
 19 20  1  0  0  0  0
 19 21  1  0  0  0  0
 19 22  1  0  0  0  0
 17 18  1  0  0  0  0
 17 19  1  0  0  0  0
M  END
$$$$
default_name
  -OEChem-01062215323D

 22 21  0     1  0  0  0  0  0999 V2000
   -2.5423   -3.6749    0.8058 H   0  0  0  0  0  0  0  0  0  0  0  0
   -2.5063   -2.6779    0.3688 C   0  0  0  0  0  0  0  0  0  0  0  0
   -3.1603   -2.0109    0.9268 H   0  0  0  0  0  0  0  0  0  0  0  0
   -2.8193   -2.7229   -0.6722 H   0  0  0  0  0  0  0  0  0  0  0  0
   -1.0873   -2.1629    0.4418 C   0  0  0  0  0  0  0  0  0  0  0  0
   -0.2073   -2.8549    0.9368 O   0  0  0  0  0  0  0  0  0  0  0  0
   -0.8713   -0.9449   -0.0482 N   0  0  0  0  0  0  0  0  0  0  0  0
   -1.6543   -0.4189   -0.4062 H   0  0  0  0  0  0  0  0  0  0  0  0
    0.4237   -0.2649   -0.0462 C   0  0  1  0  0  0  0  0  0  0  0  0
    0.9892   -0.5858    0.8302 H   0  0  0  0  0  0  0  0  0  0  0  0
    1.2030   -0.6727   -1.3060 C   0  0  0  0  0  0  0  0  0  0  0  0
    0.6543   -0.3655   -2.1979 H   0  0  0  0  0  0  0  0  0  0  0  0
    2.1839   -0.1987   -1.3079 H   0  0  0  0  0  0  0  0  0  0  0  0
    1.3370   -1.7557   -1.3220 H   0  0  0  0  0  0  0  0  0  0  0  0
    0.2455    1.2636    0.0383 C   0  0  0  0  0  0  0  0  0  0  0  0
    1.0789    2.0175   -0.4636 O   0  0  0  0  0  0  0  0  0  0  0  0
   -0.8353    1.7149    0.6874 N   0  0  0  0  0  0  0  0  0  0  0  0
   -1.4700    1.0360    1.0764 H   0  0  0  0  0  0  0  0  0  0  0  0
   -1.1482    3.1320    0.8659 C   0  0  0  0  0  0  0  0  0  0  0  0
   -1.1797    3.6276   -0.1064 H   0  0  0  0  0  0  0  0  0  0  0  0
   -2.1142    3.2484    1.3594 H   0  0  0  0  0  0  0  0  0  0  0  0
   -0.3739    3.6062    1.4714 H   0  0  0  0  0  0  0  0  0  0  0  0
  5  6  2  0  0  0  0
  5  7  1  0  0  0  0
  2  3  1  0  0  0  0
  2  4  1  0  0  0  0
  2  5  1  0  0  0  0
  1  2  1  0  0  0  0
 15 16  2  0  0  0  0
 15 17  1  0  0  0  0
 11 12  1  0  0  0  0
 11 13  1  0  0  0  0
 11 14  1  0  0  0  0
  9 10  1  0  0  0  0
  9 11  1  0  0  0  0
  9 15  1  0  0  0  0
  7  8  1  0  0  0  0
  7  9  1  0  0  0  0
 19 20  1  0  0  0  0
 19 21  1  0  0  0  0
 19 22  1  0  0  0  0
 17 18  1  0  0  0  0
 17 19  1  0  0  0  0
M  END
$$$$
default_name
  -OEChem-01062215323D

 22 21  0     1  0  0  0  0  0999 V2000
   -2.5423   -3.6749    0.8058 H   0  0  0  0  0  0  0  0  0  0  0  0
   -2.5063   -2.6779    0.3688 C   0  0  0  0  0  0  0  0  0  0  0  0
   -3.1603   -2.0109    0.9268 H   0  0  0  0  0  0  0  0  0  0  0  0
   -2.8193   -2.7229   -0.6722 H   0  0  0  0  0  0  0  0  0  0  0  0
   -1.0873   -2.1629    0.4418 C   0  0  0  0  0  0  0  0  0  0  0  0
   -0.2073   -2.8549    0.9368 O   0  0  0  0  0  0  0  0  0  0  0  0
   -0.8713   -0.9449   -0.0482 N   0  0  0  0  0  0  0  0  0  0  0  0
   -1.6543   -0.4189   -0.4062 H   0  0  0  0  0  0  0  0  0  0  0  0
    0.4237   -0.2649   -0.0462 C   0  0  1  0  0  0  0  0  0  0  0  0
    0.9892   -0.5858    0.8302 H   0  0  0  0  0  0  0  0  0  0  0  0
    1.2030   -0.6727   -1.3060 C   0  0  0  0  0  0  0  0  0  0  0  0
    0.6543   -0.3655   -2.1979 H   0  0  0  0  0  0  0  0  0  0  0  0
    2.1839   -0.1987   -1.3079 H   0  0  0  0  0  0  0  0  0  0  0  0
    1.3370   -1.7557   -1.3220 H   0  0  0  0  0  0  0  0  0  0  0  0
    0.2455    1.2636    0.0383 C   0  0  0  0  0  0  0  0  0  0  0  0
    0.9085    2.0097   -0.6819 O   0  0  0  0  0  0  0  0  0  0  0  0
   -0.6407    1.7242    0.9303 N   0  0  0  0  0  0  0  0  0  0  0  0
   -1.1419    1.0515    1.4883 H   0  0  0  0  0  0  0  0  0  0  0  0
   -0.9229    3.1429    1.1434 C   0  0  0  0  0  0  0  0  0  0  0  0
   -1.2117    3.6070    0.1982 H   0  0  0  0  0  0  0  0  0  0  0  0
   -1.7319    3.2651    1.8650 H   0  0  0  0  0  0  0  0  0  0  0  0
   -0.0280    3.6441    1.5161 H   0  0  0  0  0  0  0  0  0  0  0  0
  5  6  2  0  0  0  0
  5  7  1  0  0  0  0
  2  3  1  0  0  0  0
  2  4  1  0  0  0  0
  2  5  1  0  0  0  0
  1  2  1  0  0  0  0
 15 16  2  0  0  0  0
 15 17  1  0  0  0  0
 11 12  1  0  0  0  0
 11 13  1  0  0  0  0
 11 14  1  0  0  0  0
  9 10  1  0  0  0  0
  9 11  1  0  0  0  0
  9 15  1  0  0  0  0
  7  8  1  0  0  0  0
  7  9  1  0  0  0  0
 19 20  1  0  0  0  0
 19 21  1  0  0  0  0
 19 22  1  0  0  0  0
 17 18  1  0  0  0  0
 17 19  1  0  0  0  0
M  END
$$$$
default_name
  -OEChem-01062215323D

 22 21  0     1  0  0  0  0  0999 V2000
   -2.5423   -3.6749    0.8058 H   0  0  0  0  0  0  0  0  0  0  0  0
   -2.5063   -2.6779    0.3688 C   0  0  0  0  0  0  0  0  0  0  0  0
   -3.1603   -2.0109    0.9268 H   0  0  0  0  0  0  0  0  0  0  0  0
   -2.8193   -2.7229   -0.6722 H   0  0  0  0  0  0  0  0  0  0  0  0
   -1.0873   -2.1629    0.4418 C   0  0  0  0  0  0  0  0  0  0  0  0
   -0.2073   -2.8549    0.9368 O   0  0  0  0  0  0  0  0  0  0  0  0
   -0.8713   -0.9449   -0.0482 N   0  0  0  0  0  0  0  0  0  0  0  0
   -1.6543   -0.4189   -0.4062 H   0  0  0  0  0  0  0  0  0  0  0  0
    0.4237   -0.2649   -0.0462 C   0  0  1  0  0  0  0  0  0  0  0  0
    0.9892   -0.5858    0.8302 H   0  0  0  0  0  0  0  0  0  0  0  0
    1.2030   -0.6727   -1.3060 C   0  0  0  0  0  0  0  0  0  0  0  0
    0.6543   -0.3655   -2.1979 H   0  0  0  0  0  0  0  0  0  0  0  0
    2.1839   -0.1987   -1.3079 H   0  0  0  0  0  0  0  0  0  0  0  0
    1.3370   -1.7557   -1.3220 H   0  0  0  0  0  0  0  0  0  0  0  0
    0.2455    1.2636    0.0383 C   0  0  0  0  0  0  0  0  0  0  0  0
    0.6880    1.9932   -0.8487 O   0  0  0  0  0  0  0  0  0  0  0  0
   -0.3904    1.7431    1.1147 N   0  0  0  0  0  0  0  0  0  0  0  0
   -0.7196    1.0835    1.8014 H   0  0  0  0  0  0  0  0  0  0  0  0
   -0.6343    3.1650    1.3532 C   0  0  0  0  0  0  0  0  0  0  0  0
   -1.1641    3.5958    0.5014 H   0  0  0  0  0  0  0  0  0  0  0  0
   -1.2332    3.3017    2.2547 H   0  0  0  0  0  0  0  0  0  0  0  0
    0.3171    3.6869    1.4693 H   0  0  0  0  0  0  0  0  0  0  0  0
  5  6  2  0  0  0  0
  5  7  1  0  0  0  0
  2  3  1  0  0  0  0
  2  4  1  0  0  0  0
  2  5  1  0  0  0  0
  1  2  1  0  0  0  0
 15 16  2  0  0  0  0
 15 17  1  0  0  0  0
 11 12  1  0  0  0  0
 11 13  1  0  0  0  0
 11 14  1  0  0  0  0
  9 10  1  0  0  0  0
  9 11  1  0  0  0  0
  9 15  1  0  0  0  0
  7  8  1  0  0  0  0
  7  9  1  0  0  0  0
 19 20  1  0  0  0  0
 19 21  1  0  0  0  0
 19 22  1  0  0  0  0
 17 18  1  0  0  0  0
 17 19  1  0  0  0  0
M  END
$$$$
default_name
  -OEChem-01062215323D

 22 21  0     1  0  0  0  0  0999 V2000
   -2.5423   -3.6749    0.8058 H   0  0  0  0  0  0  0  0  0  0  0  0
   -2.5063   -2.6779    0.3688 C   0  0  0  0  0  0  0  0  0  0  0  0
   -3.1603   -2.0109    0.9268 H   0  0  0  0  0  0  0  0  0  0  0  0
   -2.8193   -2.7229   -0.6722 H   0  0  0  0  0  0  0  0  0  0  0  0
   -1.0873   -2.1629    0.4418 C   0  0  0  0  0  0  0  0  0  0  0  0
   -0.2073   -2.8549    0.9368 O   0  0  0  0  0  0  0  0  0  0  0  0
   -0.8713   -0.9449   -0.0482 N   0  0  0  0  0  0  0  0  0  0  0  0
   -1.6543   -0.4189   -0.4062 H   0  0  0  0  0  0  0  0  0  0  0  0
    0.4237   -0.2649   -0.0462 C   0  0  1  0  0  0  0  0  0  0  0  0
    0.9892   -0.5858    0.8302 H   0  0  0  0  0  0  0  0  0  0  0  0
    1.2030   -0.6727   -1.3060 C   0  0  0  0  0  0  0  0  0  0  0  0
    0.6543   -0.3655   -2.1979 H   0  0  0  0  0  0  0  0  0  0  0  0
    2.1839   -0.1987   -1.3079 H   0  0  0  0  0  0  0  0  0  0  0  0
    1.3370   -1.7557   -1.3220 H   0  0  0  0  0  0  0  0  0  0  0  0
    0.2455    1.2636    0.0383 C   0  0  0  0  0  0  0  0  0  0  0  0
    0.4324    1.9691   -0.9527 O   0  0  0  0  0  0  0  0  0  0  0  0
   -0.1017    1.7706    1.2281 N   0  0  0  0  0  0  0  0  0  0  0  0
   -0.2317    1.1297    1.9945 H   0  0  0  0  0  0  0  0  0  0  0  0
   -0.3019    3.1967    1.4812 C   0  0  0  0  0  0  0  0  0  0  0  0
   -1.0402    3.5947    0.7823 H   0  0  0  0  0  0  0  0  0  0  0  0
   -0.6519    3.3558    2.5021 H   0  0  0  0  0  0  0  0  0  0  0  0
    0.6379    3.7318    1.3342 H   0  0  0  0  0  0  0  0  0  0  0  0
  5  6  2  0  0  0  0
  5  7  1  0  0  0  0
  2  3  1  0  0  0  0
  2  4  1  0  0  0  0
  2  5  1  0  0  0  0
  1  2  1  0  0  0  0
 15 16  2  0  0  0  0
 15 17  1  0  0  0  0
 11 12  1  0  0  0  0
 11 13  1  0  0  0  0
 11 14  1  0  0  0  0
  9 10  1  0  0  0  0
  9 11  1  0  0  0  0
  9 15  1  0  0  0  0
  7  8  1  0  0  0  0
  7  9  1  0  0  0  0
 19 20  1  0  0  0  0
 19 21  1  0  0  0  0
 19 22  1  0  0  0  0
 17 18  1  0  0  0  0
 17 19  1  0  0  0  0
M  END
$$$$
default_name
  -OEChem-01062215323D

 22 21  0     1  0  0  0  0  0999 V2000
   -2.5423   -3.6749    0.8058 H   0  0  0  0  0  0  0  0  0  0  0  0
   -2.5063   -2.6779    0.3688 C   0  0  0  0  0  0  0  0  0  0  0  0
   -3.1603   -2.0109    0.9268 H   0  0  0  0  0  0  0  0  0  0  0  0
   -2.8193   -2.7229   -0.6722 H   0  0  0  0  0  0  0  0  0  0  0  0
   -1.0873   -2.1629    0.4418 C   0  0  0  0  0  0  0  0  0  0  0  0
   -0.2073   -2.8549    0.9368 O   0  0  0  0  0  0  0  0  0  0  0  0
   -0.8713   -0.9449   -0.0482 N   0  0  0  0  0  0  0  0  0  0  0  0
   -1.6543   -0.4189   -0.4062 H   0  0  0  0  0  0  0  0  0  0  0  0
    0.4237   -0.2649   -0.0462 C   0  0  1  0  0  0  0  0  0  0  0  0
    0.9892   -0.5858    0.8302 H   0  0  0  0  0  0  0  0  0  0  0  0
    1.2030   -0.6727   -1.3060 C   0  0  0  0  0  0  0  0  0  0  0  0
    0.6543   -0.3655   -2.1979 H   0  0  0  0  0  0  0  0  0  0  0  0
    2.1839   -0.1987   -1.3079 H   0  0  0  0  0  0  0  0  0  0  0  0
    1.3370   -1.7557   -1.3220 H   0  0  0  0  0  0  0  0  0  0  0  0
    0.2455    1.2636    0.0383 C   0  0  0  0  0  0  0  0  0  0  0  0
    0.1592    1.9391   -0.9869 O   0  0  0  0  0  0  0  0  0  0  0  0
    0.2060    1.8045    1.2626 N   0  0  0  0  0  0  0  0  0  0  0  0
    0.2885    1.1870    2.0544 H   0  0  0  0  0  0  0  0  0  0  0  0
    0.0516    3.2358    1.5185 C   0  0  0  0  0  0  0  0  0  0  0  0
   -0.8484    3.6038    1.0218 H   0  0  0  0  0  0  0  0  0  0  0  0
   -0.0277    3.4237    2.5902 H   0  0  0  0  0  0  0  0  0  0  0  0
    0.9123    3.7756    1.1200 H   0  0  0  0  0  0  0  0  0  0  0  0
  5  6  2  0  0  0  0
  5  7  1  0  0  0  0
  2  3  1  0  0  0  0
  2  4  1  0  0  0  0
  2  5  1  0  0  0  0
  1  2  1  0  0  0  0
 15 16  2  0  0  0  0
 15 17  1  0  0  0  0
 11 12  1  0  0  0  0
 11 13  1  0  0  0  0
 11 14  1  0  0  0  0
  9 10  1  0  0  0  0
  9 11  1  0  0  0  0
  9 15  1  0  0  0  0
  7  8  1  0  0  0  0
  7  9  1  0  0  0  0
 19 20  1  0  0  0  0
 19 21  1  0  0  0  0
 19 22  1  0  0  0  0
 17 18  1  0  0  0  0
 17 19  1  0  0  0  0
M  END
$$$$
default_name
  -OEChem-01062215323D

 22 21  0     1  0  0  0  0  0999 V2000
   -2.5423   -3.6749    0.8058 H   0  0  0  0  0  0  0  0  0  0  0  0
   -2.5063   -2.6779    0.3688 C   0  0  0  0  0  0  0  0  0  0  0  0
   -3.1603   -2.0109    0.9268 H   0  0  0  0  0  0  0  0  0  0  0  0
   -2.8193   -2.7229   -0.6722 H   0  0  0  0  0  0  0  0  0  0  0  0
   -1.0873   -2.1629    0.4418 C   0  0  0  0  0  0  0  0  0  0  0  0
   -0.2073   -2.8549    0.9368 O   0  0  0  0  0  0  0  0  0  0  0  0
   -0.8713   -0.9449   -0.0482 N   0  0  0  0  0  0  0  0  0  0  0  0
   -1.6543   -0.4189   -0.4062 H   0  0  0  0  0  0  0  0  0  0  0  0
    0.4237   -0.2649   -0.0462 C   0  0  1  0  0  0  0  0  0  0  0  0
    0.9892   -0.5858    0.8302 H   0  0  0  0  0  0  0  0  0  0  0  0
    1.2030   -0.6727   -1.3060 C   0  0  0  0  0  0  0  0  0  0  0  0
    0.6543   -0.3655   -2.1979 H   0  0  0  0  0  0  0  0  0  0  0  0
    2.1839   -0.1987   -1.3079 H   0  0  0  0  0  0  0  0  0  0  0  0
    1.3370   -1.7557   -1.3220 H   0  0  0  0  0  0  0  0  0  0  0  0
    0.2455    1.2636    0.0383 C   0  0  0  0  0  0  0  0  0  0  0  0
   -0.1131    1.9053   -0.9489 O   0  0  0  0  0  0  0  0  0  0  0  0
    0.5115    1.8427    1.2160 N   0  0  0  0  0  0  0  0  0  0  0  0
    0.8055    1.2516    1.9770 H   0  0  0  0  0  0  0  0  0  0  0  0
    0.4020    3.2798    1.4626 C   0  0  0  0  0  0  0  0  0  0  0  0
   -0.6018    3.6225    1.2037 H   0  0  0  0  0  0  0  0  0  0  0  0
    0.5968    3.5008    2.5130 H   0  0  0  0  0  0  0  0  0  0  0  0
    1.1219    3.8155    0.8414 H   0  0  0  0  0  0  0  0  0  0  0  0
  5  6  2  0  0  0  0
  5  7  1  0  0  0  0
  2  3  1  0  0  0  0
  2  4  1  0  0  0  0
  2  5  1  0  0  0  0
  1  2  1  0  0  0  0
 15 16  2  0  0  0  0
 15 17  1  0  0  0  0
 11 12  1  0  0  0  0
 11 13  1  0  0  0  0
 11 14  1  0  0  0  0
  9 10  1  0  0  0  0
  9 11  1  0  0  0  0
  9 15  1  0  0  0  0
  7  8  1  0  0  0  0
  7  9  1  0  0  0  0
 19 20  1  0  0  0  0
 19 21  1  0  0  0  0
 19 22  1  0  0  0  0
 17 18  1  0  0  0  0
 17 19  1  0  0  0  0
M  END
$$$$
default_name
  -OEChem-01062215323D

 22 21  0     1  0  0  0  0  0999 V2000
   -2.5423   -3.6749    0.8058 H   0  0  0  0  0  0  0  0  0  0  0  0
   -2.5063   -2.6779    0.3688 C   0  0  0  0  0  0  0  0  0  0  0  0
   -3.1603   -2.0109    0.9268 H   0  0  0  0  0  0  0  0  0  0  0  0
   -2.8193   -2.7229   -0.6722 H   0  0  0  0  0  0  0  0  0  0  0  0
   -1.0873   -2.1629    0.4418 C   0  0  0  0  0  0  0  0  0  0  0  0
   -0.2073   -2.8549    0.9368 O   0  0  0  0  0  0  0  0  0  0  0  0
   -0.8713   -0.9449   -0.0482 N   0  0  0  0  0  0  0  0  0  0  0  0
   -1.6543   -0.4189   -0.4062 H   0  0  0  0  0  0  0  0  0  0  0  0
    0.4237   -0.2649   -0.0462 C   0  0  1  0  0  0  0  0  0  0  0  0
    0.9892   -0.5858    0.8302 H   0  0  0  0  0  0  0  0  0  0  0  0
    1.2030   -0.6727   -1.3060 C   0  0  0  0  0  0  0  0  0  0  0  0
    0.6543   -0.3655   -2.1979 H   0  0  0  0  0  0  0  0  0  0  0  0
    2.1839   -0.1987   -1.3079 H   0  0  0  0  0  0  0  0  0  0  0  0
    1.3370   -1.7557   -1.3220 H   0  0  0  0  0  0  0  0  0  0  0  0
    0.2455    1.2636    0.0383 C   0  0  0  0  0  0  0  0  0  0  0  0
   -0.3658    1.8699   -0.8413 O   0  0  0  0  0  0  0  0  0  0  0  0
    0.7941    1.8826    1.0913 N   0  0  0  0  0  0  0  0  0  0  0  0
    1.2841    1.3190    1.7676 H   0  0  0  0  0  0  0  0  0  0  0  0
    0.7256    3.3255    1.3174 C   0  0  0  0  0  0  0  0  0  0  0  0
   -0.3171    3.6495    1.3155 H   0  0  0  0  0  0  0  0  0  0  0  0
    1.1792    3.5819    2.2758 H   0  0  0  0  0  0  0  0  0  0  0  0
    1.2522    3.8486    0.5173 H   0  0  0  0  0  0  0  0  0  0  0  0
  5  6  2  0  0  0  0
  5  7  1  0  0  0  0
  2  3  1  0  0  0  0
  2  4  1  0  0  0  0
  2  5  1  0  0  0  0
  1  2  1  0  0  0  0
 15 16  2  0  0  0  0
 15 17  1  0  0  0  0
 11 12  1  0  0  0  0
 11 13  1  0  0  0  0
 11 14  1  0  0  0  0
  9 10  1  0  0  0  0
  9 11  1  0  0  0  0
  9 15  1  0  0  0  0
  7  8  1  0  0  0  0
  7  9  1  0  0  0  0
 19 20  1  0  0  0  0
 19 21  1  0  0  0  0
 19 22  1  0  0  0  0
 17 18  1  0  0  0  0
 17 19  1  0  0  0  0
M  END
$$$$
default_name
  -OEChem-01062215323D

 22 21  0     1  0  0  0  0  0999 V2000
   -2.5423   -3.6749    0.8058 H   0  0  0  0  0  0  0  0  0  0  0  0
   -2.5063   -2.6779    0.3688 C   0  0  0  0  0  0  0  0  0  0  0  0
   -3.1603   -2.0109    0.9268 H   0  0  0  0  0  0  0  0  0  0  0  0
   -2.8193   -2.7229   -0.6722 H   0  0  0  0  0  0  0  0  0  0  0  0
   -1.0873   -2.1629    0.4418 C   0  0  0  0  0  0  0  0  0  0  0  0
   -0.2073   -2.8549    0.9368 O   0  0  0  0  0  0  0  0  0  0  0  0
   -0.8713   -0.9449   -0.0482 N   0  0  0  0  0  0  0  0  0  0  0  0
   -1.6543   -0.4189   -0.4062 H   0  0  0  0  0  0  0  0  0  0  0  0
    0.4237   -0.2649   -0.0462 C   0  0  1  0  0  0  0  0  0  0  0  0
    0.9892   -0.5858    0.8302 H   0  0  0  0  0  0  0  0  0  0  0  0
    1.2030   -0.6727   -1.3060 C   0  0  0  0  0  0  0  0  0  0  0  0
    0.6543   -0.3655   -2.1979 H   0  0  0  0  0  0  0  0  0  0  0  0
    2.1839   -0.1987   -1.3079 H   0  0  0  0  0  0  0  0  0  0  0  0
    1.3370   -1.7557   -1.3220 H   0  0  0  0  0  0  0  0  0  0  0  0
    0.2455    1.2636    0.0383 C   0  0  0  0  0  0  0  0  0  0  0  0
   -0.5818    1.8353   -0.6714 O   0  0  0  0  0  0  0  0  0  0  0  0
    1.0345    1.9214    0.8972 N   0  0  0  0  0  0  0  0  0  0  0  0
    1.6917    1.3846    1.4404 H   0  0  0  0  0  0  0  0  0  0  0  0
    1.0001    3.3700    1.0927 C   0  0  0  0  0  0  0  0  0  0  0  0
   -0.0138    3.6830    1.3496 H   0  0  0  0  0  0  0  0  0  0  0  0
    1.6797    3.6613    1.8948 H   0  0  0  0  0  0  0  0  0  0  0  0
    1.2944    3.8727    0.1698 H   0  0  0  0  0  0  0  0  0  0  0  0
  5  6  2  0  0  0  0
  5  7  1  0  0  0  0
  2  3  1  0  0  0  0
  2  4  1  0  0  0  0
  2  5  1  0  0  0  0
  1  2  1  0  0  0  0
 15 16  2  0  0  0  0
 15 17  1  0  0  0  0
 11 12  1  0  0  0  0
 11 13  1  0  0  0  0
 11 14  1  0  0  0  0
  9 10  1  0  0  0  0
  9 11  1  0  0  0  0
  9 15  1  0  0  0  0
  7  8  1  0  0  0  0
  7  9  1  0  0  0  0
 19 20  1  0  0  0  0
 19 21  1  0  0  0  0
 19 22  1  0  0  0  0
 17 18  1  0  0  0  0
 17 19  1  0  0  0  0
M  END
$$$$
default_name
  -OEChem-01062215323D

 22 21  0     1  0  0  0  0  0999 V2000
   -2.5423   -3.6749    0.8058 H   0  0  0  0  0  0  0  0  0  0  0  0
   -2.5063   -2.6779    0.3688 C   0  0  0  0  0  0  0  0  0  0  0  0
   -3.1603   -2.0109    0.9268 H   0  0  0  0  0  0  0  0  0  0  0  0
   -2.8193   -2.7229   -0.6722 H   0  0  0  0  0  0  0  0  0  0  0  0
   -1.0873   -2.1629    0.4418 C   0  0  0  0  0  0  0  0  0  0  0  0
   -0.2073   -2.8549    0.9368 O   0  0  0  0  0  0  0  0  0  0  0  0
   -0.8713   -0.9449   -0.0482 N   0  0  0  0  0  0  0  0  0  0  0  0
   -1.6543   -0.4189   -0.4062 H   0  0  0  0  0  0  0  0  0  0  0  0
    0.4237   -0.2649   -0.0462 C   0  0  1  0  0  0  0  0  0  0  0  0
    0.9892   -0.5858    0.8302 H   0  0  0  0  0  0  0  0  0  0  0  0
    1.2030   -0.6727   -1.3060 C   0  0  0  0  0  0  0  0  0  0  0  0
    0.6543   -0.3655   -2.1979 H   0  0  0  0  0  0  0  0  0  0  0  0
    2.1839   -0.1987   -1.3079 H   0  0  0  0  0  0  0  0  0  0  0  0
    1.3370   -1.7557   -1.3220 H   0  0  0  0  0  0  0  0  0  0  0  0
    0.2455    1.2636    0.0383 C   0  0  0  0  0  0  0  0  0  0  0  0
   -0.7464    1.8039   -0.4508 O   0  0  0  0  0  0  0  0  0  0  0  0
    1.2164    1.9564    0.6469 N   0  0  0  0  0  0  0  0  0  0  0  0
    2.0005    1.4440    1.0179 H   0  0  0  0  0  0  0  0  0  0  0  0
    1.2071    3.4101    0.8038 C   0  0  0  0  0  0  0  0  0  0  0  0
    0.2874    3.7207    1.3037 H   0  0  0  0  0  0  0  0  0  0  0  0
    2.0642    3.7338    1.3960 H   0  0  0  0  0  0  0  0  0  0  0  0
    1.2456    3.8863   -0.1774 H   0  0  0  0  0  0  0  0  0  0  0  0
  5  6  2  0  0  0  0
  5  7  1  0  0  0  0
  2  3  1  0  0  0  0
  2  4  1  0  0  0  0
  2  5  1  0  0  0  0
  1  2  1  0  0  0  0
 15 16  2  0  0  0  0
 15 17  1  0  0  0  0
 11 12  1  0  0  0  0
 11 13  1  0  0  0  0
 11 14  1  0  0  0  0
  9 10  1  0  0  0  0
  9 11  1  0  0  0  0
  9 15  1  0  0  0  0
  7  8  1  0  0  0  0
  7  9  1  0  0  0  0
 19 20  1  0  0  0  0
 19 21  1  0  0  0  0
 19 22  1  0  0  0  0
 17 18  1  0  0  0  0
 17 19  1  0  0  0  0
M  END
$$$$
default_name
  -OEChem-01062215323D

 22 21  0     1  0  0  0  0  0999 V2000
   -2.5423   -3.6749    0.8058 H   0  0  0  0  0  0  0  0  0  0  0  0
   -2.5063   -2.6779    0.3688 C   0  0  0  0  0  0  0  0  0  0  0  0
   -3.1603   -2.0109    0.9268 H   0  0  0  0  0  0  0  0  0  0  0  0
   -2.8193   -2.7229   -0.6722 H   0  0  0  0  0  0  0  0  0  0  0  0
   -1.0873   -2.1629    0.4418 C   0  0  0  0  0  0  0  0  0  0  0  0
   -0.2073   -2.8549    0.9368 O   0  0  0  0  0  0  0  0  0  0  0  0
   -0.8713   -0.9449   -0.0482 N   0  0  0  0  0  0  0  0  0  0  0  0
   -1.6543   -0.4189   -0.4062 H   0  0  0  0  0  0  0  0  0  0  0  0
    0.4237   -0.2649   -0.0462 C   0  0  1  0  0  0  0  0  0  0  0  0
    0.9892   -0.5858    0.8302 H   0  0  0  0  0  0  0  0  0  0  0  0
    1.2030   -0.6727   -1.3060 C   0  0  0  0  0  0  0  0  0  0  0  0
    0.6543   -0.3655   -2.1979 H   0  0  0  0  0  0  0  0  0  0  0  0
    2.1839   -0.1987   -1.3079 H   0  0  0  0  0  0  0  0  0  0  0  0
    1.3370   -1.7557   -1.3220 H   0  0  0  0  0  0  0  0  0  0  0  0
    0.2455    1.2636    0.0383 C   0  0  0  0  0  0  0  0  0  0  0  0
   -0.8483    1.7778   -0.1945 O   0  0  0  0  0  0  0  0  0  0  0  0
    1.3273    1.9854    0.3573 N   0  0  0  0  0  0  0  0  0  0  0  0
    2.1894    1.4931    0.5286 H   0  0  0  0  0  0  0  0  0  0  0  0
    1.3322    3.4431    0.4705 C   0  0  0  0  0  0  0  0  0  0  0  0
    0.5661    3.7600    1.1810 H   0  0  0  0  0  0  0  0  0  0  0  0
    2.3066    3.7942    0.8132 H   0  0  0  0  0  0  0  0  0  0  0  0
    1.1092    3.8882   -0.5007 H   0  0  0  0  0  0  0  0  0  0  0  0
  5  6  2  0  0  0  0
  5  7  1  0  0  0  0
  2  3  1  0  0  0  0
  2  4  1  0  0  0  0
  2  5  1  0  0  0  0
  1  2  1  0  0  0  0
 15 16  2  0  0  0  0
 15 17  1  0  0  0  0
 11 12  1  0  0  0  0
 11 13  1  0  0  0  0
 11 14  1  0  0  0  0
  9 10  1  0  0  0  0
  9 11  1  0  0  0  0
  9 15  1  0  0  0  0
  7  8  1  0  0  0  0
  7  9  1  0  0  0  0
 19 20  1  0  0  0  0
 19 21  1  0  0  0  0
 19 22  1  0  0  0  0
 17 18  1  0  0  0  0
 17 19  1  0  0  0  0
M  END
$$$$
default_name
  -OEChem-01062215323D

 22 21  0     1  0  0  0  0  0999 V2000
   -2.5423   -3.6749    0.8058 H   0  0  0  0  0  0  0  0  0  0  0  0
   -2.5063   -2.6779    0.3688 C   0  0  0  0  0  0  0  0  0  0  0  0
   -3.1603   -2.0109    0.9268 H   0  0  0  0  0  0  0  0  0  0  0  0
   -2.8193   -2.7229   -0.6722 H   0  0  0  0  0  0  0  0  0  0  0  0
   -1.0873   -2.1629    0.4418 C   0  0  0  0  0  0  0  0  0  0  0  0
   -0.2073   -2.8549    0.9368 O   0  0  0  0  0  0  0  0  0  0  0  0
   -0.8713   -0.9449   -0.0482 N   0  0  0  0  0  0  0  0  0  0  0  0
   -1.6543   -0.4189   -0.4062 H   0  0  0  0  0  0  0  0  0  0  0  0
    0.4237   -0.2649   -0.0462 C   0  0  1  0  0  0  0  0  0  0  0  0
    1.0861   -0.7699    0.6587 H   0  0  0  0  0  0  0  0  0  0  0  0
    1.0400   -0.3620   -1.4503 C   0  0  0  0  0  0  0  0  0  0  0  0
    0.3923    0.1335   -2.1754 H   0  0  0  0  0  0  0  0  0  0  0  0
    2.0200    0.1140   -1.4615 H   0  0  0  0  0  0  0  0  0  0  0  0
    1.1563   -1.4104   -1.7300 H   0  0  0  0  0  0  0  0  0  0  0  0
    0.2778    1.2008    0.4072 C   0  0  0  0  0  0  0  0  0  0  0  0
   -0.8281    1.6572    0.6963 O   0  0  0  0  0  0  0  0  0  0  0  0
    1.3952    1.9374    0.4529 N   0  0  0  0  0  0  0  0  0  0  0  0
    2.2631    1.4949    0.1962 H   0  0  0  0  0  0  0  0  0  0  0  0
    1.4306    3.3437    0.8516 C   0  0  0  0  0  0  0  0  0  0  0  0
    0.9806    3.4578    1.8399 H   0  0  0  0  0  0  0  0  0  0  0  0
    2.4598    3.7041    0.8823 H   0  0  0  0  0  0  0  0  0  0  0  0
    0.8595    3.9423    0.1399 H   0  0  0  0  0  0  0  0  0  0  0  0
  5  6  2  0  0  0  0
  5  7  1  0  0  0  0
  2  3  1  0  0  0  0
  2  4  1  0  0  0  0
  2  5  1  0  0  0  0
  1  2  1  0  0  0  0
 15 16  2  0  0  0  0
 15 17  1  0  0  0  0
 11 12  1  0  0  0  0
 11 13  1  0  0  0  0
 11 14  1  0  0  0  0
  9 10  1  0  0  0  0
  9 11  1  0  0  0  0
  9 15  1  0  0  0  0
  7  8  1  0  0  0  0
  7  9  1  0  0  0  0
 19 20  1  0  0  0  0
 19 21  1  0  0  0  0
 19 22  1  0  0  0  0
 17 18  1  0  0  0  0
 17 19  1  0  0  0  0
M  END
$$$$
default_name
  -OEChem-01062215323D

 22 21  0     1  0  0  0  0  0999 V2000
   -2.5423   -3.6749    0.8058 H   0  0  0  0  0  0  0  0  0  0  0  0
   -2.5063   -2.6779    0.3688 C   0  0  0  0  0  0  0  0  0  0  0  0
   -3.1603   -2.0109    0.9268 H   0  0  0  0  0  0  0  0  0  0  0  0
   -2.8193   -2.7229   -0.6722 H   0  0  0  0  0  0  0  0  0  0  0  0
   -1.0873   -2.1629    0.4418 C   0  0  0  0  0  0  0  0  0  0  0  0
   -0.2073   -2.8549    0.9368 O   0  0  0  0  0  0  0  0  0  0  0  0
   -0.8713   -0.9449   -0.0482 N   0  0  0  0  0  0  0  0  0  0  0  0
   -1.6543   -0.4189   -0.4062 H   0  0  0  0  0  0  0  0  0  0  0  0
    0.4237   -0.2649   -0.0462 C   0  0  1  0  0  0  0  0  0  0  0  0
    1.0861   -0.7699    0.6587 H   0  0  0  0  0  0  0  0  0  0  0  0
    1.0400   -0.3620   -1.4503 C   0  0  0  0  0  0  0  0  0  0  0  0
    0.3923    0.1335   -2.1754 H   0  0  0  0  0  0  0  0  0  0  0  0
    2.0200    0.1140   -1.4615 H   0  0  0  0  0  0  0  0  0  0  0  0
    1.1563   -1.4104   -1.7300 H   0  0  0  0  0  0  0  0  0  0  0  0
    0.2778    1.2008    0.4072 C   0  0  0  0  0  0  0  0  0  0  0  0
   -0.7560    1.5847    0.9537 O   0  0  0  0  0  0  0  0  0  0  0  0
    1.3103    2.0182    0.1644 N   0  0  0  0  0  0  0  0  0  0  0  0
    2.1210    1.6318   -0.2922 H   0  0  0  0  0  0  0  0  0  0  0  0
    1.3309    3.4361    0.5209 C   0  0  0  0  0  0  0  0  0  0  0  0
    1.1294    3.5506    1.5879 H   0  0  0  0  0  0  0  0  0  0  0  0
    2.3043    3.8715    0.2909 H   0  0  0  0  0  0  0  0  0  0  0  0
    0.5572    3.9667   -0.0365 H   0  0  0  0  0  0  0  0  0  0  0  0
  5  6  2  0  0  0  0
  5  7  1  0  0  0  0
  2  3  1  0  0  0  0
  2  4  1  0  0  0  0
  2  5  1  0  0  0  0
  1  2  1  0  0  0  0
 15 16  2  0  0  0  0
 15 17  1  0  0  0  0
 11 12  1  0  0  0  0
 11 13  1  0  0  0  0
 11 14  1  0  0  0  0
  9 10  1  0  0  0  0
  9 11  1  0  0  0  0
  9 15  1  0  0  0  0
  7  8  1  0  0  0  0
  7  9  1  0  0  0  0
 19 20  1  0  0  0  0
 19 21  1  0  0  0  0
 19 22  1  0  0  0  0
 17 18  1  0  0  0  0
 17 19  1  0  0  0  0
M  END
$$$$
default_name
  -OEChem-01062215323D

 22 21  0     1  0  0  0  0  0999 V2000
   -2.5423   -3.6749    0.8058 H   0  0  0  0  0  0  0  0  0  0  0  0
   -2.5063   -2.6779    0.3688 C   0  0  0  0  0  0  0  0  0  0  0  0
   -3.1603   -2.0109    0.9268 H   0  0  0  0  0  0  0  0  0  0  0  0
   -2.8193   -2.7229   -0.6722 H   0  0  0  0  0  0  0  0  0  0  0  0
   -1.0873   -2.1629    0.4418 C   0  0  0  0  0  0  0  0  0  0  0  0
   -0.2073   -2.8549    0.9368 O   0  0  0  0  0  0  0  0  0  0  0  0
   -0.8713   -0.9449   -0.0482 N   0  0  0  0  0  0  0  0  0  0  0  0
   -1.6543   -0.4189   -0.4062 H   0  0  0  0  0  0  0  0  0  0  0  0
    0.4237   -0.2649   -0.0462 C   0  0  1  0  0  0  0  0  0  0  0  0
    1.0861   -0.7699    0.6587 H   0  0  0  0  0  0  0  0  0  0  0  0
    1.0400   -0.3620   -1.4503 C   0  0  0  0  0  0  0  0  0  0  0  0
    0.3923    0.1335   -2.1754 H   0  0  0  0  0  0  0  0  0  0  0  0
    2.0200    0.1140   -1.4615 H   0  0  0  0  0  0  0  0  0  0  0  0
    1.1563   -1.4104   -1.7300 H   0  0  0  0  0  0  0  0  0  0  0  0
    0.2778    1.2008    0.4072 C   0  0  0  0  0  0  0  0  0  0  0  0
   -0.6174    1.5265    1.1864 O   0  0  0  0  0  0  0  0  0  0  0  0
    1.1512    2.0827   -0.0954 N   0  0  0  0  0  0  0  0  0  0  0  0
    1.8532    1.7413   -0.7323 H   0  0  0  0  0  0  0  0  0  0  0  0
    1.1462    3.5096    0.2237 C   0  0  0  0  0  0  0  0  0  0  0  0
    1.2041    3.6453    1.3055 H   0  0  0  0  0  0  0  0  0  0  0  0
    1.9959    4.0070   -0.2462 H   0  0  0  0  0  0  0  0  0  0  0  0
    0.2199    3.9631   -0.1331 H   0  0  0  0  0  0  0  0  0  0  0  0
  5  6  2  0  0  0  0
  5  7  1  0  0  0  0
  2  3  1  0  0  0  0
  2  4  1  0  0  0  0
  2  5  1  0  0  0  0
  1  2  1  0  0  0  0
 15 16  2  0  0  0  0
 15 17  1  0  0  0  0
 11 12  1  0  0  0  0
 11 13  1  0  0  0  0
 11 14  1  0  0  0  0
  9 10  1  0  0  0  0
  9 11  1  0  0  0  0
  9 15  1  0  0  0  0
  7  8  1  0  0  0  0
  7  9  1  0  0  0  0
 19 20  1  0  0  0  0
 19 21  1  0  0  0  0
 19 22  1  0  0  0  0
 17 18  1  0  0  0  0
 17 19  1  0  0  0  0
M  END
$$$$
default_name
  -OEChem-01062215323D

 22 21  0     1  0  0  0  0  0999 V2000
   -2.5423   -3.6749    0.8058 H   0  0  0  0  0  0  0  0  0  0  0  0
   -2.5063   -2.6779    0.3688 C   0  0  0  0  0  0  0  0  0  0  0  0
   -3.1603   -2.0109    0.9268 H   0  0  0  0  0  0  0  0  0  0  0  0
   -2.8193   -2.7229   -0.6722 H   0  0  0  0  0  0  0  0  0  0  0  0
   -1.0873   -2.1629    0.4418 C   0  0  0  0  0  0  0  0  0  0  0  0
   -0.2073   -2.8549    0.9368 O   0  0  0  0  0  0  0  0  0  0  0  0
   -0.8713   -0.9449   -0.0482 N   0  0  0  0  0  0  0  0  0  0  0  0
   -1.6543   -0.4189   -0.4062 H   0  0  0  0  0  0  0  0  0  0  0  0
    0.4237   -0.2649   -0.0462 C   0  0  1  0  0  0  0  0  0  0  0  0
    1.0861   -0.7699    0.6587 H   0  0  0  0  0  0  0  0  0  0  0  0
    1.0400   -0.3620   -1.4503 C   0  0  0  0  0  0  0  0  0  0  0  0
    0.3923    0.1335   -2.1754 H   0  0  0  0  0  0  0  0  0  0  0  0
    2.0200    0.1140   -1.4615 H   0  0  0  0  0  0  0  0  0  0  0  0
    1.1563   -1.4104   -1.7300 H   0  0  0  0  0  0  0  0  0  0  0  0
    0.2778    1.2008    0.4072 C   0  0  0  0  0  0  0  0  0  0  0  0
   -0.4219    1.4866    1.3785 O   0  0  0  0  0  0  0  0  0  0  0  0
    0.9286    2.1266   -0.3088 N   0  0  0  0  0  0  0  0  0  0  0  0
    1.4778    1.8159   -1.0942 H   0  0  0  0  0  0  0  0  0  0  0  0
    0.8890    3.5593   -0.0197 C   0  0  0  0  0  0  0  0  0  0  0  0
    1.1994    3.7356    1.0121 H   0  0  0  0  0  0  0  0  0  0  0  0
    1.5554    4.1011   -0.6924 H   0  0  0  0  0  0  0  0  0  0  0  0
   -0.1295    3.9314   -0.1433 H   0  0  0  0  0  0  0  0  0  0  0  0
  5  6  2  0  0  0  0
  5  7  1  0  0  0  0
  2  3  1  0  0  0  0
  2  4  1  0  0  0  0
  2  5  1  0  0  0  0
  1  2  1  0  0  0  0
 15 16  2  0  0  0  0
 15 17  1  0  0  0  0
 11 12  1  0  0  0  0
 11 13  1  0  0  0  0
 11 14  1  0  0  0  0
  9 10  1  0  0  0  0
  9 11  1  0  0  0  0
  9 15  1  0  0  0  0
  7  8  1  0  0  0  0
  7  9  1  0  0  0  0
 19 20  1  0  0  0  0
 19 21  1  0  0  0  0
 19 22  1  0  0  0  0
 17 18  1  0  0  0  0
 17 19  1  0  0  0  0
M  END
$$$$
default_name
  -OEChem-01062215323D

 22 21  0     1  0  0  0  0  0999 V2000
   -2.5423   -3.6749    0.8058 H   0  0  0  0  0  0  0  0  0  0  0  0
   -2.5063   -2.6779    0.3688 C   0  0  0  0  0  0  0  0  0  0  0  0
   -3.1603   -2.0109    0.9268 H   0  0  0  0  0  0  0  0  0  0  0  0
   -2.8193   -2.7229   -0.6722 H   0  0  0  0  0  0  0  0  0  0  0  0
   -1.0873   -2.1629    0.4418 C   0  0  0  0  0  0  0  0  0  0  0  0
   -0.2073   -2.8549    0.9368 O   0  0  0  0  0  0  0  0  0  0  0  0
   -0.8713   -0.9449   -0.0482 N   0  0  0  0  0  0  0  0  0  0  0  0
   -1.6543   -0.4189   -0.4062 H   0  0  0  0  0  0  0  0  0  0  0  0
    0.4237   -0.2649   -0.0462 C   0  0  1  0  0  0  0  0  0  0  0  0
    1.0861   -0.7699    0.6587 H   0  0  0  0  0  0  0  0  0  0  0  0
    1.0400   -0.3620   -1.4503 C   0  0  0  0  0  0  0  0  0  0  0  0
    0.3923    0.1335   -2.1754 H   0  0  0  0  0  0  0  0  0  0  0  0
    2.0200    0.1140   -1.4615 H   0  0  0  0  0  0  0  0  0  0  0  0
    1.1563   -1.4104   -1.7300 H   0  0  0  0  0  0  0  0  0  0  0  0
    0.2778    1.2008    0.4072 C   0  0  0  0  0  0  0  0  0  0  0  0
   -0.1827    1.4676    1.5169 O   0  0  0  0  0  0  0  0  0  0  0  0
    0.6578    2.1467   -0.4611 N   0  0  0  0  0  0  0  0  0  0  0  0
    1.0204    1.8505   -1.3532 H   0  0  0  0  0  0  0  0  0  0  0  0
    0.5769    3.5818   -0.1927 C   0  0  0  0  0  0  0  0  0  0  0  0
    1.1159    3.8153    0.7276 H   0  0  0  0  0  0  0  0  0  0  0  0
    1.0129    4.1476   -1.0173 H   0  0  0  0  0  0  0  0  0  0  0  0
   -0.4670    3.8741   -0.0664 H   0  0  0  0  0  0  0  0  0  0  0  0
  5  6  2  0  0  0  0
  5  7  1  0  0  0  0
  2  3  1  0  0  0  0
  2  4  1  0  0  0  0
  2  5  1  0  0  0  0
  1  2  1  0  0  0  0
 15 16  2  0  0  0  0
 15 17  1  0  0  0  0
 11 12  1  0  0  0  0
 11 13  1  0  0  0  0
 11 14  1  0  0  0  0
  9 10  1  0  0  0  0
  9 11  1  0  0  0  0
  9 15  1  0  0  0  0
  7  8  1  0  0  0  0
  7  9  1  0  0  0  0
 19 20  1  0  0  0  0
 19 21  1  0  0  0  0
 19 22  1  0  0  0  0
 17 18  1  0  0  0  0
 17 19  1  0  0  0  0
M  END
$$$$
default_name
  -OEChem-01062215323D

 22 21  0     1  0  0  0  0  0999 V2000
   -2.5423   -3.6749    0.8058 H   0  0  0  0  0  0  0  0  0  0  0  0
   -2.5063   -2.6779    0.3688 C   0  0  0  0  0  0  0  0  0  0  0  0
   -3.1603   -2.0109    0.9268 H   0  0  0  0  0  0  0  0  0  0  0  0
   -2.8193   -2.7229   -0.6722 H   0  0  0  0  0  0  0  0  0  0  0  0
   -1.0873   -2.1629    0.4418 C   0  0  0  0  0  0  0  0  0  0  0  0
   -0.2073   -2.8549    0.9368 O   0  0  0  0  0  0  0  0  0  0  0  0
   -0.8713   -0.9449   -0.0482 N   0  0  0  0  0  0  0  0  0  0  0  0
   -1.6543   -0.4189   -0.4062 H   0  0  0  0  0  0  0  0  0  0  0  0
    0.4237   -0.2649   -0.0462 C   0  0  1  0  0  0  0  0  0  0  0  0
    1.0861   -0.7699    0.6587 H   0  0  0  0  0  0  0  0  0  0  0  0
    1.0400   -0.3620   -1.4503 C   0  0  0  0  0  0  0  0  0  0  0  0
    0.3923    0.1335   -2.1754 H   0  0  0  0  0  0  0  0  0  0  0  0
    2.0200    0.1140   -1.4615 H   0  0  0  0  0  0  0  0  0  0  0  0
    1.1563   -1.4104   -1.7300 H   0  0  0  0  0  0  0  0  0  0  0  0
    0.2778    1.2008    0.4072 C   0  0  0  0  0  0  0  0  0  0  0  0
    0.0838    1.4708    1.5922 O   0  0  0  0  0  0  0  0  0  0  0  0
    0.3571    2.1419   -0.5422 N   0  0  0  0  0  0  0  0  0  0  0  0
    0.5122    1.8427   -1.4916 H   0  0  0  0  0  0  0  0  0  0  0  0
    0.2311    3.5755   -0.2836 C   0  0  0  0  0  0  0  0  0  0  0  0
    0.9591    3.8789    0.4714 H   0  0  0  0  0  0  0  0  0  0  0  0
    0.4054    4.1433   -1.1987 H   0  0  0  0  0  0  0  0  0  0  0  0
   -0.7697    3.7948    0.0923 H   0  0  0  0  0  0  0  0  0  0  0  0
  5  6  2  0  0  0  0
  5  7  1  0  0  0  0
  2  3  1  0  0  0  0
  2  4  1  0  0  0  0
  2  5  1  0  0  0  0
  1  2  1  0  0  0  0
 15 16  2  0  0  0  0
 15 17  1  0  0  0  0
 11 12  1  0  0  0  0
 11 13  1  0  0  0  0
 11 14  1  0  0  0  0
  9 10  1  0  0  0  0
  9 11  1  0  0  0  0
  9 15  1  0  0  0  0
  7  8  1  0  0  0  0
  7  9  1  0  0  0  0
 19 20  1  0  0  0  0
 19 21  1  0  0  0  0
 19 22  1  0  0  0  0
 17 18  1  0  0  0  0
 17 19  1  0  0  0  0
M  END
$$$$
default_name
  -OEChem-01062215323D

 22 21  0     1  0  0  0  0  0999 V2000
   -2.5423   -3.6749    0.8058 H   0  0  0  0  0  0  0  0  0  0  0  0
   -2.5063   -2.6779    0.3688 C   0  0  0  0  0  0  0  0  0  0  0  0
   -3.1603   -2.0109    0.9268 H   0  0  0  0  0  0  0  0  0  0  0  0
   -2.8193   -2.7229   -0.6722 H   0  0  0  0  0  0  0  0  0  0  0  0
   -1.0873   -2.1629    0.4418 C   0  0  0  0  0  0  0  0  0  0  0  0
   -0.2073   -2.8549    0.9368 O   0  0  0  0  0  0  0  0  0  0  0  0
   -0.8713   -0.9449   -0.0482 N   0  0  0  0  0  0  0  0  0  0  0  0
   -1.6543   -0.4189   -0.4062 H   0  0  0  0  0  0  0  0  0  0  0  0
    0.4237   -0.2649   -0.0462 C   0  0  1  0  0  0  0  0  0  0  0  0
    1.0861   -0.7699    0.6587 H   0  0  0  0  0  0  0  0  0  0  0  0
    1.0400   -0.3620   -1.4503 C   0  0  0  0  0  0  0  0  0  0  0  0
    0.3923    0.1335   -2.1754 H   0  0  0  0  0  0  0  0  0  0  0  0
    2.0200    0.1140   -1.4615 H   0  0  0  0  0  0  0  0  0  0  0  0
    1.1563   -1.4104   -1.7300 H   0  0  0  0  0  0  0  0  0  0  0  0
    0.2778    1.2008    0.4072 C   0  0  0  0  0  0  0  0  0  0  0  0
    0.3596    1.4961    1.5992 O   0  0  0  0  0  0  0  0  0  0  0  0
    0.0471    2.1123   -0.5463 N   0  0  0  0  0  0  0  0  0  0  0  0
   -0.0121    1.7931   -1.5000 H   0  0  0  0  0  0  0  0  0  0  0  0
   -0.1248    3.5408   -0.2861 C   0  0  0  0  0  0  0  0  0  0  0  0
    0.7397    3.9222    0.2610 H   0  0  0  0  0  0  0  0  0  0  0  0
   -0.2257    4.0884   -1.2242 H   0  0  0  0  0  0  0  0  0  0  0  0
   -1.0170    3.6991    0.3222 H   0  0  0  0  0  0  0  0  0  0  0  0
  5  6  2  0  0  0  0
  5  7  1  0  0  0  0
  2  3  1  0  0  0  0
  2  4  1  0  0  0  0
  2  5  1  0  0  0  0
  1  2  1  0  0  0  0
 15 16  2  0  0  0  0
 15 17  1  0  0  0  0
 11 12  1  0  0  0  0
 11 13  1  0  0  0  0
 11 14  1  0  0  0  0
  9 10  1  0  0  0  0
  9 11  1  0  0  0  0
  9 15  1  0  0  0  0
  7  8  1  0  0  0  0
  7  9  1  0  0  0  0
 19 20  1  0  0  0  0
 19 21  1  0  0  0  0
 19 22  1  0  0  0  0
 17 18  1  0  0  0  0
 17 19  1  0  0  0  0
M  END
$$$$
default_name
  -OEChem-01062215323D

 22 21  0     1  0  0  0  0  0999 V2000
   -2.5423   -3.6749    0.8058 H   0  0  0  0  0  0  0  0  0  0  0  0
   -2.5063   -2.6779    0.3688 C   0  0  0  0  0  0  0  0  0  0  0  0
   -3.1603   -2.0109    0.9268 H   0  0  0  0  0  0  0  0  0  0  0  0
   -2.8193   -2.7229   -0.6722 H   0  0  0  0  0  0  0  0  0  0  0  0
   -1.0873   -2.1629    0.4418 C   0  0  0  0  0  0  0  0  0  0  0  0
   -0.2073   -2.8549    0.9368 O   0  0  0  0  0  0  0  0  0  0  0  0
   -0.8713   -0.9449   -0.0482 N   0  0  0  0  0  0  0  0  0  0  0  0
   -1.6543   -0.4189   -0.4062 H   0  0  0  0  0  0  0  0  0  0  0  0
    0.4237   -0.2649   -0.0462 C   0  0  1  0  0  0  0  0  0  0  0  0
    1.0861   -0.7699    0.6587 H   0  0  0  0  0  0  0  0  0  0  0  0
    1.0400   -0.3620   -1.4503 C   0  0  0  0  0  0  0  0  0  0  0  0
    0.3923    0.1335   -2.1754 H   0  0  0  0  0  0  0  0  0  0  0  0
    2.0200    0.1140   -1.4615 H   0  0  0  0  0  0  0  0  0  0  0  0
    1.1563   -1.4104   -1.7300 H   0  0  0  0  0  0  0  0  0  0  0  0
    0.2778    1.2008    0.4072 C   0  0  0  0  0  0  0  0  0  0  0  0
    0.6257    1.5417    1.5375 O   0  0  0  0  0  0  0  0  0  0  0  0
   -0.2510    2.0600   -0.4733 N   0  0  0  0  0  0  0  0  0  0  0  0
   -0.5169    1.7051   -1.3779 H   0  0  0  0  0  0  0  0  0  0  0  0
   -0.4665    3.4802   -0.2001 C   0  0  0  0  0  0  0  0  0  0  0  0
    0.4727    3.9421    0.1107 H   0  0  0  0  0  0  0  0  0  0  0  0
   -0.8375    3.9866   -1.0922 H   0  0  0  0  0  0  0  0  0  0  0  0
   -1.1920    3.5935    0.6074 H   0  0  0  0  0  0  0  0  0  0  0  0
  5  6  2  0  0  0  0
  5  7  1  0  0  0  0
  2  3  1  0  0  0  0
  2  4  1  0  0  0  0
  2  5  1  0  0  0  0
  1  2  1  0  0  0  0
 15 16  2  0  0  0  0
 15 17  1  0  0  0  0
 11 12  1  0  0  0  0
 11 13  1  0  0  0  0
 11 14  1  0  0  0  0
  9 10  1  0  0  0  0
  9 11  1  0  0  0  0
  9 15  1  0  0  0  0
  7  8  1  0  0  0  0
  7  9  1  0  0  0  0
 19 20  1  0  0  0  0
 19 21  1  0  0  0  0
 19 22  1  0  0  0  0
 17 18  1  0  0  0  0
 17 19  1  0  0  0  0
M  END
$$$$
default_name
  -OEChem-01062215323D

 22 21  0     1  0  0  0  0  0999 V2000
   -2.5423   -3.6749    0.8058 H   0  0  0  0  0  0  0  0  0  0  0  0
   -2.5063   -2.6779    0.3688 C   0  0  0  0  0  0  0  0  0  0  0  0
   -3.1603   -2.0109    0.9268 H   0  0  0  0  0  0  0  0  0  0  0  0
   -2.8193   -2.7229   -0.6722 H   0  0  0  0  0  0  0  0  0  0  0  0
   -1.0873   -2.1629    0.4418 C   0  0  0  0  0  0  0  0  0  0  0  0
   -0.2073   -2.8549    0.9368 O   0  0  0  0  0  0  0  0  0  0  0  0
   -0.8713   -0.9449   -0.0482 N   0  0  0  0  0  0  0  0  0  0  0  0
   -1.6543   -0.4189   -0.4062 H   0  0  0  0  0  0  0  0  0  0  0  0
    0.4237   -0.2649   -0.0462 C   0  0  1  0  0  0  0  0  0  0  0  0
    1.0861   -0.7699    0.6587 H   0  0  0  0  0  0  0  0  0  0  0  0
    1.0400   -0.3620   -1.4503 C   0  0  0  0  0  0  0  0  0  0  0  0
    0.3923    0.1335   -2.1754 H   0  0  0  0  0  0  0  0  0  0  0  0
    2.0200    0.1140   -1.4615 H   0  0  0  0  0  0  0  0  0  0  0  0
    1.1563   -1.4104   -1.7300 H   0  0  0  0  0  0  0  0  0  0  0  0
    0.2778    1.2008    0.4072 C   0  0  0  0  0  0  0  0  0  0  0  0
    0.8641    1.6044    1.4113 O   0  0  0  0  0  0  0  0  0  0  0  0
   -0.5171    1.9886   -0.3280 N   0  0  0  0  0  0  0  0  0  0  0  0
   -0.9677    1.5846   -1.1335 H   0  0  0  0  0  0  0  0  0  0  0  0
   -0.7708    3.3977   -0.0313 C   0  0  0  0  0  0  0  0  0  0  0  0
    0.1763    3.9373    0.0308 H   0  0  0  0  0  0  0  0  0  0  0  0
   -1.3881    3.8450   -0.8117 H   0  0  0  0  0  0  0  0  0  0  0  0
   -1.2827    3.4851    0.9285 H   0  0  0  0  0  0  0  0  0  0  0  0
  5  6  2  0  0  0  0
  5  7  1  0  0  0  0
  2  3  1  0  0  0  0
  2  4  1  0  0  0  0
  2  5  1  0  0  0  0
  1  2  1  0  0  0  0
 15 16  2  0  0  0  0
 15 17  1  0  0  0  0
 11 12  1  0  0  0  0
 11 13  1  0  0  0  0
 11 14  1  0  0  0  0
  9 10  1  0  0  0  0
  9 11  1  0  0  0  0
  9 15  1  0  0  0  0
  7  8  1  0  0  0  0
  7  9  1  0  0  0  0
 19 20  1  0  0  0  0
 19 21  1  0  0  0  0
 19 22  1  0  0  0  0
 17 18  1  0  0  0  0
 17 19  1  0  0  0  0
M  END
$$$$
default_name
  -OEChem-01062215323D

 22 21  0     1  0  0  0  0  0999 V2000
   -2.5423   -3.6749    0.8058 H   0  0  0  0  0  0  0  0  0  0  0  0
   -2.5063   -2.6779    0.3688 C   0  0  0  0  0  0  0  0  0  0  0  0
   -3.1603   -2.0109    0.9268 H   0  0  0  0  0  0  0  0  0  0  0  0
   -2.8193   -2.7229   -0.6722 H   0  0  0  0  0  0  0  0  0  0  0  0
   -1.0873   -2.1629    0.4418 C   0  0  0  0  0  0  0  0  0  0  0  0
   -0.2073   -2.8549    0.9368 O   0  0  0  0  0  0  0  0  0  0  0  0
   -0.8713   -0.9449   -0.0482 N   0  0  0  0  0  0  0  0  0  0  0  0
   -1.6543   -0.4189   -0.4062 H   0  0  0  0  0  0  0  0  0  0  0  0
    0.4237   -0.2649   -0.0462 C   0  0  1  0  0  0  0  0  0  0  0  0
    1.0861   -0.7699    0.6587 H   0  0  0  0  0  0  0  0  0  0  0  0
    1.0400   -0.3620   -1.4503 C   0  0  0  0  0  0  0  0  0  0  0  0
    0.3923    0.1335   -2.1754 H   0  0  0  0  0  0  0  0  0  0  0  0
    2.0200    0.1140   -1.4615 H   0  0  0  0  0  0  0  0  0  0  0  0
    1.1563   -1.4104   -1.7300 H   0  0  0  0  0  0  0  0  0  0  0  0
    0.2778    1.2008    0.4072 C   0  0  0  0  0  0  0  0  0  0  0  0
    1.0586    1.6801    1.2291 O   0  0  0  0  0  0  0  0  0  0  0  0
   -0.7329    1.9030   -0.1205 N   0  0  0  0  0  0  0  0  0  0  0  0
   -1.3338    1.4399   -0.7835 H   0  0  0  0  0  0  0  0  0  0  0  0
   -1.0169    3.2990    0.2085 C   0  0  0  0  0  0  0  0  0  0  0  0
   -0.1293    3.9082    0.0266 H   0  0  0  0  0  0  0  0  0  0  0  0
   -1.8401    3.6732   -0.4017 H   0  0  0  0  0  0  0  0  0  0  0  0
   -1.2831    3.3814    1.2637 H   0  0  0  0  0  0  0  0  0  0  0  0
  5  6  2  0  0  0  0
  5  7  1  0  0  0  0
  2  3  1  0  0  0  0
  2  4  1  0  0  0  0
  2  5  1  0  0  0  0
  1  2  1  0  0  0  0
 15 16  2  0  0  0  0
 15 17  1  0  0  0  0
 11 12  1  0  0  0  0
 11 13  1  0  0  0  0
 11 14  1  0  0  0  0
  9 10  1  0  0  0  0
  9 11  1  0  0  0  0
  9 15  1  0  0  0  0
  7  8  1  0  0  0  0
  7  9  1  0  0  0  0
 19 20  1  0  0  0  0
 19 21  1  0  0  0  0
 19 22  1  0  0  0  0
 17 18  1  0  0  0  0
 17 19  1  0  0  0  0
M  END
$$$$
default_name
  -OEChem-01062215323D

 22 21  0     1  0  0  0  0  0999 V2000
   -2.5423   -3.6749    0.8058 H   0  0  0  0  0  0  0  0  0  0  0  0
   -2.5063   -2.6779    0.3688 C   0  0  0  0  0  0  0  0  0  0  0  0
   -3.1603   -2.0109    0.9268 H   0  0  0  0  0  0  0  0  0  0  0  0
   -2.8193   -2.7229   -0.6722 H   0  0  0  0  0  0  0  0  0  0  0  0
   -1.0873   -2.1629    0.4418 C   0  0  0  0  0  0  0  0  0  0  0  0
   -0.2073   -2.8549    0.9368 O   0  0  0  0  0  0  0  0  0  0  0  0
   -0.8713   -0.9449   -0.0482 N   0  0  0  0  0  0  0  0  0  0  0  0
   -1.6543   -0.4189   -0.4062 H   0  0  0  0  0  0  0  0  0  0  0  0
    0.4237   -0.2649   -0.0462 C   0  0  1  0  0  0  0  0  0  0  0  0
    1.0861   -0.7699    0.6587 H   0  0  0  0  0  0  0  0  0  0  0  0
    1.0400   -0.3620   -1.4503 C   0  0  0  0  0  0  0  0  0  0  0  0
    0.3923    0.1335   -2.1754 H   0  0  0  0  0  0  0  0  0  0  0  0
    2.0200    0.1140   -1.4615 H   0  0  0  0  0  0  0  0  0  0  0  0
    1.1563   -1.4104   -1.7300 H   0  0  0  0  0  0  0  0  0  0  0  0
    0.2778    1.2008    0.4072 C   0  0  0  0  0  0  0  0  0  0  0  0
    1.1958    1.7636    1.0034 O   0  0  0  0  0  0  0  0  0  0  0  0
   -0.8838    1.8089    0.1352 N   0  0  0  0  0  0  0  0  0  0  0  0
   -1.5902    1.2809   -0.3518 H   0  0  0  0  0  0  0  0  0  0  0  0
   -1.1881    3.1908    0.5033 C   0  0  0  0  0  0  0  0  0  0  0  0
   -0.4233    3.8567    0.0985 H   0  0  0  0  0  0  0  0  0  0  0  0
   -2.1628    3.4829    0.1099 H   0  0  0  0  0  0  0  0  0  0  0  0
   -1.1931    3.2894    1.5901 H   0  0  0  0  0  0  0  0  0  0  0  0
  5  6  2  0  0  0  0
  5  7  1  0  0  0  0
  2  3  1  0  0  0  0
  2  4  1  0  0  0  0
  2  5  1  0  0  0  0
  1  2  1  0  0  0  0
 15 16  2  0  0  0  0
 15 17  1  0  0  0  0
 11 12  1  0  0  0  0
 11 13  1  0  0  0  0
 11 14  1  0  0  0  0
  9 10  1  0  0  0  0
  9 11  1  0  0  0  0
  9 15  1  0  0  0  0
  7  8  1  0  0  0  0
  7  9  1  0  0  0  0
 19 20  1  0  0  0  0
 19 21  1  0  0  0  0
 19 22  1  0  0  0  0
 17 18  1  0  0  0  0
 17 19  1  0  0  0  0
M  END
$$$$
default_name
  -OEChem-01062215323D

 22 21  0     1  0  0  0  0  0999 V2000
   -2.5423   -3.6749    0.8058 H   0  0  0  0  0  0  0  0  0  0  0  0
   -2.5063   -2.6779    0.3688 C   0  0  0  0  0  0  0  0  0  0  0  0
   -3.1603   -2.0109    0.9268 H   0  0  0  0  0  0  0  0  0  0  0  0
   -2.8193   -2.7229   -0.6722 H   0  0  0  0  0  0  0  0  0  0  0  0
   -1.0873   -2.1629    0.4418 C   0  0  0  0  0  0  0  0  0  0  0  0
   -0.2073   -2.8549    0.9368 O   0  0  0  0  0  0  0  0  0  0  0  0
   -0.8713   -0.9449   -0.0482 N   0  0  0  0  0  0  0  0  0  0  0  0
   -1.6543   -0.4189   -0.4062 H   0  0  0  0  0  0  0  0  0  0  0  0
    0.4237   -0.2649   -0.0462 C   0  0  1  0  0  0  0  0  0  0  0  0
    1.0861   -0.7699    0.6587 H   0  0  0  0  0  0  0  0  0  0  0  0
    1.0400   -0.3620   -1.4503 C   0  0  0  0  0  0  0  0  0  0  0  0
    0.3923    0.1335   -2.1754 H   0  0  0  0  0  0  0  0  0  0  0  0
    2.0200    0.1140   -1.4615 H   0  0  0  0  0  0  0  0  0  0  0  0
    1.1563   -1.4104   -1.7300 H   0  0  0  0  0  0  0  0  0  0  0  0
    0.2778    1.2008    0.4072 C   0  0  0  0  0  0  0  0  0  0  0  0
    1.2664    1.8491    0.7496 O   0  0  0  0  0  0  0  0  0  0  0  0
   -0.9594    1.7127    0.4216 N   0  0  0  0  0  0  0  0  0  0  0  0
   -1.7196    1.1183    0.1322 H   0  0  0  0  0  0  0  0  0  0  0  0
   -1.2726    3.0805    0.8327 C   0  0  0  0  0  0  0  0  0  0  0  0
   -0.6857    3.7863    0.2416 H   0  0  0  0  0  0  0  0  0  0  0  0
   -2.3340    3.2870    0.6880 H   0  0  0  0  0  0  0  0  0  0  0  0
   -1.0188    3.2154    1.8855 H   0  0  0  0  0  0  0  0  0  0  0  0
  5  6  2  0  0  0  0
  5  7  1  0  0  0  0
  2  3  1  0  0  0  0
  2  4  1  0  0  0  0
  2  5  1  0  0  0  0
  1  2  1  0  0  0  0
 15 16  2  0  0  0  0
 15 17  1  0  0  0  0
 11 12  1  0  0  0  0
 11 13  1  0  0  0  0
 11 14  1  0  0  0  0
  9 10  1  0  0  0  0
  9 11  1  0  0  0  0
  9 15  1  0  0  0  0
  7  8  1  0  0  0  0
  7  9  1  0  0  0  0
 19 20  1  0  0  0  0
 19 21  1  0  0  0  0
 19 22  1  0  0  0  0
 17 18  1  0  0  0  0
 17 19  1  0  0  0  0
M  END
$$$$
default_name
  -OEChem-01062215323D

 22 21  0     1  0  0  0  0  0999 V2000
   -2.5423   -3.6749    0.8058 H   0  0  0  0  0  0  0  0  0  0  0  0
   -2.5063   -2.6779    0.3688 C   0  0  0  0  0  0  0  0  0  0  0  0
   -3.1603   -2.0109    0.9268 H   0  0  0  0  0  0  0  0  0  0  0  0
   -2.8193   -2.7229   -0.6722 H   0  0  0  0  0  0  0  0  0  0  0  0
   -1.0873   -2.1629    0.4418 C   0  0  0  0  0  0  0  0  0  0  0  0
   -0.2073   -2.8549    0.9368 O   0  0  0  0  0  0  0  0  0  0  0  0
   -0.8713   -0.9449   -0.0482 N   0  0  0  0  0  0  0  0  0  0  0  0
   -1.6543   -0.4189   -0.4062 H   0  0  0  0  0  0  0  0  0  0  0  0
    0.4237   -0.2649   -0.0462 C   0  0  1  0  0  0  0  0  0  0  0  0
    1.0861   -0.7699    0.6587 H   0  0  0  0  0  0  0  0  0  0  0  0
    1.0400   -0.3620   -1.4503 C   0  0  0  0  0  0  0  0  0  0  0  0
    0.3923    0.1335   -2.1754 H   0  0  0  0  0  0  0  0  0  0  0  0
    2.0200    0.1140   -1.4615 H   0  0  0  0  0  0  0  0  0  0  0  0
    1.1563   -1.4104   -1.7300 H   0  0  0  0  0  0  0  0  0  0  0  0
    0.2778    1.2008    0.4072 C   0  0  0  0  0  0  0  0  0  0  0  0
    1.2657    1.9309    0.4850 O   0  0  0  0  0  0  0  0  0  0  0  0
   -0.9546    1.6212    0.7192 N   0  0  0  0  0  0  0  0  0  0  0  0
   -1.7130    0.9632    0.6356 H   0  0  0  0  0  0  0  0  0  0  0  0
   -1.2648    2.9756    1.1745 C   0  0  0  0  0  0  0  0  0  0  0  0
   -0.8985    3.7019    0.4462 H   0  0  0  0  0  0  0  0  0  0  0  0
   -2.3422    3.0989    1.2935 H   0  0  0  0  0  0  0  0  0  0  0  0
   -0.7721    3.1644    2.1298 H   0  0  0  0  0  0  0  0  0  0  0  0
  5  6  2  0  0  0  0
  5  7  1  0  0  0  0
  2  3  1  0  0  0  0
  2  4  1  0  0  0  0
  2  5  1  0  0  0  0
  1  2  1  0  0  0  0
 15 16  2  0  0  0  0
 15 17  1  0  0  0  0
 11 12  1  0  0  0  0
 11 13  1  0  0  0  0
 11 14  1  0  0  0  0
  9 10  1  0  0  0  0
  9 11  1  0  0  0  0
  9 15  1  0  0  0  0
  7  8  1  0  0  0  0
  7  9  1  0  0  0  0
 19 20  1  0  0  0  0
 19 21  1  0  0  0  0
 19 22  1  0  0  0  0
 17 18  1  0  0  0  0
 17 19  1  0  0  0  0
M  END
$$$$
default_name
  -OEChem-01062215323D

 22 21  0     1  0  0  0  0  0999 V2000
   -2.5423   -3.6749    0.8058 H   0  0  0  0  0  0  0  0  0  0  0  0
   -2.5063   -2.6779    0.3688 C   0  0  0  0  0  0  0  0  0  0  0  0
   -3.1603   -2.0109    0.9268 H   0  0  0  0  0  0  0  0  0  0  0  0
   -2.8193   -2.7229   -0.6722 H   0  0  0  0  0  0  0  0  0  0  0  0
   -1.0873   -2.1629    0.4418 C   0  0  0  0  0  0  0  0  0  0  0  0
   -0.2073   -2.8549    0.9368 O   0  0  0  0  0  0  0  0  0  0  0  0
   -0.8713   -0.9449   -0.0482 N   0  0  0  0  0  0  0  0  0  0  0  0
   -1.6543   -0.4189   -0.4062 H   0  0  0  0  0  0  0  0  0  0  0  0
    0.4237   -0.2649   -0.0462 C   0  0  1  0  0  0  0  0  0  0  0  0
    1.0861   -0.7699    0.6587 H   0  0  0  0  0  0  0  0  0  0  0  0
    1.0400   -0.3620   -1.4503 C   0  0  0  0  0  0  0  0  0  0  0  0
    0.3923    0.1335   -2.1754 H   0  0  0  0  0  0  0  0  0  0  0  0
    2.0200    0.1140   -1.4615 H   0  0  0  0  0  0  0  0  0  0  0  0
    1.1563   -1.4104   -1.7300 H   0  0  0  0  0  0  0  0  0  0  0  0
    0.2778    1.2008    0.4072 C   0  0  0  0  0  0  0  0  0  0  0  0
    1.1936    2.0034    0.2275 O   0  0  0  0  0  0  0  0  0  0  0  0
   -0.8698    1.5403    1.0077 N   0  0  0  0  0  0  0  0  0  0  0  0
   -1.5710    0.8263    1.1240 H   0  0  0  0  0  0  0  0  0  0  0  0
   -1.1651    2.8832    1.5052 C   0  0  0  0  0  0  0  0  0  0  0  0
   -1.0473    3.6091    0.6982 H   0  0  0  0  0  0  0  0  0  0  0  0
   -2.1867    2.9315    1.8849 H   0  0  0  0  0  0  0  0  0  0  0  0
   -0.4698    3.1399    2.3062 H   0  0  0  0  0  0  0  0  0  0  0  0
  5  6  2  0  0  0  0
  5  7  1  0  0  0  0
  2  3  1  0  0  0  0
  2  4  1  0  0  0  0
  2  5  1  0  0  0  0
  1  2  1  0  0  0  0
 15 16  2  0  0  0  0
 15 17  1  0  0  0  0
 11 12  1  0  0  0  0
 11 13  1  0  0  0  0
 11 14  1  0  0  0  0
  9 10  1  0  0  0  0
  9 11  1  0  0  0  0
  9 15  1  0  0  0  0
  7  8  1  0  0  0  0
  7  9  1  0  0  0  0
 19 20  1  0  0  0  0
 19 21  1  0  0  0  0
 19 22  1  0  0  0  0
 17 18  1  0  0  0  0
 17 19  1  0  0  0  0
M  END
$$$$
default_name
  -OEChem-01062215323D

 22 21  0     1  0  0  0  0  0999 V2000
   -2.5423   -3.6749    0.8058 H   0  0  0  0  0  0  0  0  0  0  0  0
   -2.5063   -2.6779    0.3688 C   0  0  0  0  0  0  0  0  0  0  0  0
   -3.1603   -2.0109    0.9268 H   0  0  0  0  0  0  0  0  0  0  0  0
   -2.8193   -2.7229   -0.6722 H   0  0  0  0  0  0  0  0  0  0  0  0
   -1.0873   -2.1629    0.4418 C   0  0  0  0  0  0  0  0  0  0  0  0
   -0.2073   -2.8549    0.9368 O   0  0  0  0  0  0  0  0  0  0  0  0
   -0.8713   -0.9449   -0.0482 N   0  0  0  0  0  0  0  0  0  0  0  0
   -1.6543   -0.4189   -0.4062 H   0  0  0  0  0  0  0  0  0  0  0  0
    0.4237   -0.2649   -0.0462 C   0  0  1  0  0  0  0  0  0  0  0  0
    1.0861   -0.7699    0.6587 H   0  0  0  0  0  0  0  0  0  0  0  0
    1.0400   -0.3620   -1.4503 C   0  0  0  0  0  0  0  0  0  0  0  0
    0.3923    0.1335   -2.1754 H   0  0  0  0  0  0  0  0  0  0  0  0
    2.0200    0.1140   -1.4615 H   0  0  0  0  0  0  0  0  0  0  0  0
    1.1563   -1.4104   -1.7300 H   0  0  0  0  0  0  0  0  0  0  0  0
    0.2778    1.2008    0.4072 C   0  0  0  0  0  0  0  0  0  0  0  0
    1.0550    2.0616   -0.0051 O   0  0  0  0  0  0  0  0  0  0  0  0
   -0.7107    1.4758    1.2676 N   0  0  0  0  0  0  0  0  0  0  0  0
   -1.3031    0.7168    1.5641 H   0  0  0  0  0  0  0  0  0  0  0  0
   -0.9804    2.8096    1.8024 C   0  0  0  0  0  0  0  0  0  0  0  0
   -1.1219    3.5143    0.9805 H   0  0  0  0  0  0  0  0  0  0  0  0
   -1.8782    2.7960    2.4220 H   0  0  0  0  0  0  0  0  0  0  0  0
   -0.1325    3.1436    2.4028 H   0  0  0  0  0  0  0  0  0  0  0  0
  5  6  2  0  0  0  0
  5  7  1  0  0  0  0
  2  3  1  0  0  0  0
  2  4  1  0  0  0  0
  2  5  1  0  0  0  0
  1  2  1  0  0  0  0
 15 16  2  0  0  0  0
 15 17  1  0  0  0  0
 11 12  1  0  0  0  0
 11 13  1  0  0  0  0
 11 14  1  0  0  0  0
  9 10  1  0  0  0  0
  9 11  1  0  0  0  0
  9 15  1  0  0  0  0
  7  8  1  0  0  0  0
  7  9  1  0  0  0  0
 19 20  1  0  0  0  0
 19 21  1  0  0  0  0
 19 22  1  0  0  0  0
 17 18  1  0  0  0  0
 17 19  1  0  0  0  0
M  END
$$$$
default_name
  -OEChem-01062215323D

 22 21  0     1  0  0  0  0  0999 V2000
   -2.5423   -3.6749    0.8058 H   0  0  0  0  0  0  0  0  0  0  0  0
   -2.5063   -2.6779    0.3688 C   0  0  0  0  0  0  0  0  0  0  0  0
   -3.1603   -2.0109    0.9268 H   0  0  0  0  0  0  0  0  0  0  0  0
   -2.8193   -2.7229   -0.6722 H   0  0  0  0  0  0  0  0  0  0  0  0
   -1.0873   -2.1629    0.4418 C   0  0  0  0  0  0  0  0  0  0  0  0
   -0.2073   -2.8549    0.9368 O   0  0  0  0  0  0  0  0  0  0  0  0
   -0.8713   -0.9449   -0.0482 N   0  0  0  0  0  0  0  0  0  0  0  0
   -1.6543   -0.4189   -0.4062 H   0  0  0  0  0  0  0  0  0  0  0  0
    0.4237   -0.2649   -0.0462 C   0  0  1  0  0  0  0  0  0  0  0  0
    1.0861   -0.7699    0.6587 H   0  0  0  0  0  0  0  0  0  0  0  0
    1.0400   -0.3620   -1.4503 C   0  0  0  0  0  0  0  0  0  0  0  0
    0.3923    0.1335   -2.1754 H   0  0  0  0  0  0  0  0  0  0  0  0
    2.0200    0.1140   -1.4615 H   0  0  0  0  0  0  0  0  0  0  0  0
    1.1563   -1.4104   -1.7300 H   0  0  0  0  0  0  0  0  0  0  0  0
    0.2778    1.2008    0.4072 C   0  0  0  0  0  0  0  0  0  0  0  0
    0.8595    2.1015   -0.1972 O   0  0  0  0  0  0  0  0  0  0  0  0
   -0.4881    1.4320    1.4809 N   0  0  0  0  0  0  0  0  0  0  0  0
   -0.9277    0.6422    1.9260 H   0  0  0  0  0  0  0  0  0  0  0  0
   -0.7232    2.7599    2.0458 C   0  0  0  0  0  0  0  0  0  0  0  0
   -1.1173    3.4240    1.2740 H   0  0  0  0  0  0  0  0  0  0  0  0
   -1.4377    2.7019    2.8681 H   0  0  0  0  0  0  0  0  0  0  0  0
    0.2169    3.1752    2.4130 H   0  0  0  0  0  0  0  0  0  0  0  0
  5  6  2  0  0  0  0
  5  7  1  0  0  0  0
  2  3  1  0  0  0  0
  2  4  1  0  0  0  0
  2  5  1  0  0  0  0
  1  2  1  0  0  0  0
 15 16  2  0  0  0  0
 15 17  1  0  0  0  0
 11 12  1  0  0  0  0
 11 13  1  0  0  0  0
 11 14  1  0  0  0  0
  9 10  1  0  0  0  0
  9 11  1  0  0  0  0
  9 15  1  0  0  0  0
  7  8  1  0  0  0  0
  7  9  1  0  0  0  0
 19 20  1  0  0  0  0
 19 21  1  0  0  0  0
 19 22  1  0  0  0  0
 17 18  1  0  0  0  0
 17 19  1  0  0  0  0
M  END
$$$$
default_name
  -OEChem-01062215323D

 22 21  0     1  0  0  0  0  0999 V2000
   -2.5423   -3.6749    0.8058 H   0  0  0  0  0  0  0  0  0  0  0  0
   -2.5063   -2.6779    0.3688 C   0  0  0  0  0  0  0  0  0  0  0  0
   -3.1603   -2.0109    0.9268 H   0  0  0  0  0  0  0  0  0  0  0  0
   -2.8193   -2.7229   -0.6722 H   0  0  0  0  0  0  0  0  0  0  0  0
   -1.0873   -2.1629    0.4418 C   0  0  0  0  0  0  0  0  0  0  0  0
   -0.2073   -2.8549    0.9368 O   0  0  0  0  0  0  0  0  0  0  0  0
   -0.8713   -0.9449   -0.0482 N   0  0  0  0  0  0  0  0  0  0  0  0
   -1.6543   -0.4189   -0.4062 H   0  0  0  0  0  0  0  0  0  0  0  0
    0.4237   -0.2649   -0.0462 C   0  0  1  0  0  0  0  0  0  0  0  0
    1.0861   -0.7699    0.6587 H   0  0  0  0  0  0  0  0  0  0  0  0
    1.0400   -0.3620   -1.4503 C   0  0  0  0  0  0  0  0  0  0  0  0
    0.3923    0.1335   -2.1754 H   0  0  0  0  0  0  0  0  0  0  0  0
    2.0200    0.1140   -1.4615 H   0  0  0  0  0  0  0  0  0  0  0  0
    1.1563   -1.4104   -1.7300 H   0  0  0  0  0  0  0  0  0  0  0  0
    0.2778    1.2008    0.4072 C   0  0  0  0  0  0  0  0  0  0  0  0
    0.6203    2.1205   -0.3356 O   0  0  0  0  0  0  0  0  0  0  0  0
   -0.2173    1.4118    1.6333 N   0  0  0  0  0  0  0  0  0  0  0  0
   -0.4703    0.6077    2.1850 H   0  0  0  0  0  0  0  0  0  0  0  0
   -0.4111    2.7375    2.2188 C   0  0  0  0  0  0  0  0  0  0  0  0
   -1.0338    3.3444    1.5584 H   0  0  0  0  0  0  0  0  0  0  0  0
   -0.8953    2.6554    3.1930 H   0  0  0  0  0  0  0  0  0  0  0  0
    0.5544    3.2326    2.3361 H   0  0  0  0  0  0  0  0  0  0  0  0
  5  6  2  0  0  0  0
  5  7  1  0  0  0  0
  2  3  1  0  0  0  0
  2  4  1  0  0  0  0
  2  5  1  0  0  0  0
  1  2  1  0  0  0  0
 15 16  2  0  0  0  0
 15 17  1  0  0  0  0
 11 12  1  0  0  0  0
 11 13  1  0  0  0  0
 11 14  1  0  0  0  0
  9 10  1  0  0  0  0
  9 11  1  0  0  0  0
  9 15  1  0  0  0  0
  7  8  1  0  0  0  0
  7  9  1  0  0  0  0
 19 20  1  0  0  0  0
 19 21  1  0  0  0  0
 19 22  1  0  0  0  0
 17 18  1  0  0  0  0
 17 19  1  0  0  0  0
M  END
$$$$
default_name
  -OEChem-01062215323D

 22 21  0     1  0  0  0  0  0999 V2000
   -2.5423   -3.6749    0.8058 H   0  0  0  0  0  0  0  0  0  0  0  0
   -2.5063   -2.6779    0.3688 C   0  0  0  0  0  0  0  0  0  0  0  0
   -3.1603   -2.0109    0.9268 H   0  0  0  0  0  0  0  0  0  0  0  0
   -2.8193   -2.7229   -0.6722 H   0  0  0  0  0  0  0  0  0  0  0  0
   -1.0873   -2.1629    0.4418 C   0  0  0  0  0  0  0  0  0  0  0  0
   -0.2073   -2.8549    0.9368 O   0  0  0  0  0  0  0  0  0  0  0  0
   -0.8713   -0.9449   -0.0482 N   0  0  0  0  0  0  0  0  0  0  0  0
   -1.6543   -0.4189   -0.4062 H   0  0  0  0  0  0  0  0  0  0  0  0
    0.4237   -0.2649   -0.0462 C   0  0  1  0  0  0  0  0  0  0  0  0
    1.0861   -0.7699    0.6587 H   0  0  0  0  0  0  0  0  0  0  0  0
    1.0400   -0.3620   -1.4503 C   0  0  0  0  0  0  0  0  0  0  0  0
    0.3923    0.1335   -2.1754 H   0  0  0  0  0  0  0  0  0  0  0  0
    2.0200    0.1140   -1.4615 H   0  0  0  0  0  0  0  0  0  0  0  0
    1.1563   -1.4104   -1.7300 H   0  0  0  0  0  0  0  0  0  0  0  0
    0.2778    1.2008    0.4072 C   0  0  0  0  0  0  0  0  0  0  0  0
    0.3538    2.1173   -0.4109 O   0  0  0  0  0  0  0  0  0  0  0  0
    0.0834    1.4167    1.7143 N   0  0  0  0  0  0  0  0  0  0  0  0
    0.0378    0.6154    2.3234 H   0  0  0  0  0  0  0  0  0  0  0  0
   -0.0654    2.7438    2.3097 C   0  0  0  0  0  0  0  0  0  0  0  0
   -0.8770    3.2807    1.8146 H   0  0  0  0  0  0  0  0  0  0  0  0
   -0.2878    2.6597    3.3744 H   0  0  0  0  0  0  0  0  0  0  0  0
    0.8571    3.3118    2.1773 H   0  0  0  0  0  0  0  0  0  0  0  0
  5  6  2  0  0  0  0
  5  7  1  0  0  0  0
  2  3  1  0  0  0  0
  2  4  1  0  0  0  0
  2  5  1  0  0  0  0
  1  2  1  0  0  0  0
 15 16  2  0  0  0  0
 15 17  1  0  0  0  0
 11 12  1  0  0  0  0
 11 13  1  0  0  0  0
 11 14  1  0  0  0  0
  9 10  1  0  0  0  0
  9 11  1  0  0  0  0
  9 15  1  0  0  0  0
  7  8  1  0  0  0  0
  7  9  1  0  0  0  0
 19 20  1  0  0  0  0
 19 21  1  0  0  0  0
 19 22  1  0  0  0  0
 17 18  1  0  0  0  0
 17 19  1  0  0  0  0
M  END
$$$$
default_name
  -OEChem-01062215323D

 22 21  0     1  0  0  0  0  0999 V2000
   -2.5423   -3.6749    0.8058 H   0  0  0  0  0  0  0  0  0  0  0  0
   -2.5063   -2.6779    0.3688 C   0  0  0  0  0  0  0  0  0  0  0  0
   -3.1603   -2.0109    0.9268 H   0  0  0  0  0  0  0  0  0  0  0  0
   -2.8193   -2.7229   -0.6722 H   0  0  0  0  0  0  0  0  0  0  0  0
   -1.0873   -2.1629    0.4418 C   0  0  0  0  0  0  0  0  0  0  0  0
   -0.2073   -2.8549    0.9368 O   0  0  0  0  0  0  0  0  0  0  0  0
   -0.8713   -0.9449   -0.0482 N   0  0  0  0  0  0  0  0  0  0  0  0
   -1.6543   -0.4189   -0.4062 H   0  0  0  0  0  0  0  0  0  0  0  0
    0.4237   -0.2649   -0.0462 C   0  0  1  0  0  0  0  0  0  0  0  0
    1.0861   -0.7699    0.6587 H   0  0  0  0  0  0  0  0  0  0  0  0
    1.0400   -0.3620   -1.4503 C   0  0  0  0  0  0  0  0  0  0  0  0
    0.3923    0.1335   -2.1754 H   0  0  0  0  0  0  0  0  0  0  0  0
    2.0200    0.1140   -1.4615 H   0  0  0  0  0  0  0  0  0  0  0  0
    1.1563   -1.4104   -1.7300 H   0  0  0  0  0  0  0  0  0  0  0  0
    0.2778    1.2008    0.4072 C   0  0  0  0  0  0  0  0  0  0  0  0
    0.0780    2.0920   -0.4179 O   0  0  0  0  0  0  0  0  0  0  0  0
    0.3934    1.4462    1.7184 N   0  0  0  0  0  0  0  0  0  0  0  0
    0.5622    0.6650    2.3318 H   0  0  0  0  0  0  0  0  0  0  0  0
    0.2905    2.7784    2.3122 C   0  0  0  0  0  0  0  0  0  0  0  0
   -0.6576    3.2375    2.0250 H   0  0  0  0  0  0  0  0  0  0  0  0
    0.3434    2.7146    3.4000 H   0  0  0  0  0  0  0  0  0  0  0  0
    1.1044    3.4075    1.9475 H   0  0  0  0  0  0  0  0  0  0  0  0
  5  6  2  0  0  0  0
  5  7  1  0  0  0  0
  2  3  1  0  0  0  0
  2  4  1  0  0  0  0
  2  5  1  0  0  0  0
  1  2  1  0  0  0  0
 15 16  2  0  0  0  0
 15 17  1  0  0  0  0
 11 12  1  0  0  0  0
 11 13  1  0  0  0  0
 11 14  1  0  0  0  0
  9 10  1  0  0  0  0
  9 11  1  0  0  0  0
  9 15  1  0  0  0  0
  7  8  1  0  0  0  0
  7  9  1  0  0  0  0
 19 20  1  0  0  0  0
 19 21  1  0  0  0  0
 19 22  1  0  0  0  0
 17 18  1  0  0  0  0
 17 19  1  0  0  0  0
M  END
$$$$
default_name
  -OEChem-01062215323D

 22 21  0     1  0  0  0  0  0999 V2000
   -2.5423   -3.6749    0.8058 H   0  0  0  0  0  0  0  0  0  0  0  0
   -2.5063   -2.6779    0.3688 C   0  0  0  0  0  0  0  0  0  0  0  0
   -3.1603   -2.0109    0.9268 H   0  0  0  0  0  0  0  0  0  0  0  0
   -2.8193   -2.7229   -0.6722 H   0  0  0  0  0  0  0  0  0  0  0  0
   -1.0873   -2.1629    0.4418 C   0  0  0  0  0  0  0  0  0  0  0  0
   -0.2073   -2.8549    0.9368 O   0  0  0  0  0  0  0  0  0  0  0  0
   -0.8713   -0.9449   -0.0482 N   0  0  0  0  0  0  0  0  0  0  0  0
   -1.6543   -0.4189   -0.4062 H   0  0  0  0  0  0  0  0  0  0  0  0
    0.4237   -0.2649   -0.0462 C   0  0  1  0  0  0  0  0  0  0  0  0
    1.0861   -0.7699    0.6587 H   0  0  0  0  0  0  0  0  0  0  0  0
    1.0400   -0.3620   -1.4503 C   0  0  0  0  0  0  0  0  0  0  0  0
    0.3923    0.1335   -2.1754 H   0  0  0  0  0  0  0  0  0  0  0  0
    2.0200    0.1140   -1.4615 H   0  0  0  0  0  0  0  0  0  0  0  0
    1.1563   -1.4104   -1.7300 H   0  0  0  0  0  0  0  0  0  0  0  0
    0.2778    1.2008    0.4072 C   0  0  0  0  0  0  0  0  0  0  0  0
   -0.1881    2.0464   -0.3562 O   0  0  0  0  0  0  0  0  0  0  0  0
    0.6916    1.4985    1.6454 N   0  0  0  0  0  0  0  0  0  0  0  0
    1.0669    0.7530    2.2096 H   0  0  0  0  0  0  0  0  0  0  0  0
    0.6323    2.8391    2.2262 C   0  0  0  0  0  0  0  0  0  0  0  0
   -0.3906    3.2176    2.1753 H   0  0  0  0  0  0  0  0  0  0  0  0
    0.9551    2.8164    3.2680 H   0  0  0  0  0  0  0  0  0  0  0  0
    1.2793    3.5131    1.6623 H   0  0  0  0  0  0  0  0  0  0  0  0
  5  6  2  0  0  0  0
  5  7  1  0  0  0  0
  2  3  1  0  0  0  0
  2  4  1  0  0  0  0
  2  5  1  0  0  0  0
  1  2  1  0  0  0  0
 15 16  2  0  0  0  0
 15 17  1  0  0  0  0
 11 12  1  0  0  0  0
 11 13  1  0  0  0  0
 11 14  1  0  0  0  0
  9 10  1  0  0  0  0
  9 11  1  0  0  0  0
  9 15  1  0  0  0  0
  7  8  1  0  0  0  0
  7  9  1  0  0  0  0
 19 20  1  0  0  0  0
 19 21  1  0  0  0  0
 19 22  1  0  0  0  0
 17 18  1  0  0  0  0
 17 19  1  0  0  0  0
M  END
$$$$
default_name
  -OEChem-01062215323D

 22 21  0     1  0  0  0  0  0999 V2000
   -2.5423   -3.6749    0.8058 H   0  0  0  0  0  0  0  0  0  0  0  0
   -2.5063   -2.6779    0.3688 C   0  0  0  0  0  0  0  0  0  0  0  0
   -3.1603   -2.0109    0.9268 H   0  0  0  0  0  0  0  0  0  0  0  0
   -2.8193   -2.7229   -0.6722 H   0  0  0  0  0  0  0  0  0  0  0  0
   -1.0873   -2.1629    0.4418 C   0  0  0  0  0  0  0  0  0  0  0  0
   -0.2073   -2.8549    0.9368 O   0  0  0  0  0  0  0  0  0  0  0  0
   -0.8713   -0.9449   -0.0482 N   0  0  0  0  0  0  0  0  0  0  0  0
   -1.6543   -0.4189   -0.4062 H   0  0  0  0  0  0  0  0  0  0  0  0
    0.4237   -0.2649   -0.0462 C   0  0  1  0  0  0  0  0  0  0  0  0
    1.0861   -0.7699    0.6587 H   0  0  0  0  0  0  0  0  0  0  0  0
    1.0400   -0.3620   -1.4503 C   0  0  0  0  0  0  0  0  0  0  0  0
    0.3923    0.1335   -2.1754 H   0  0  0  0  0  0  0  0  0  0  0  0
    2.0200    0.1140   -1.4615 H   0  0  0  0  0  0  0  0  0  0  0  0
    1.1563   -1.4104   -1.7300 H   0  0  0  0  0  0  0  0  0  0  0  0
    0.2778    1.2008    0.4072 C   0  0  0  0  0  0  0  0  0  0  0  0
   -0.4265    1.9836   -0.2300 O   0  0  0  0  0  0  0  0  0  0  0  0
    0.9577    1.5699    1.5002 N   0  0  0  0  0  0  0  0  0  0  0  0
    1.5177    0.8735    1.9653 H   0  0  0  0  0  0  0  0  0  0  0  0
    0.9366    2.9215    2.0574 C   0  0  0  0  0  0  0  0  0  0  0  0
   -0.0942    3.2223    2.2553 H   0  0  0  0  0  0  0  0  0  0  0  0
    1.5057    2.9579    2.9874 H   0  0  0  0  0  0  0  0  0  0  0  0
    1.3701    3.6215    1.3411 H   0  0  0  0  0  0  0  0  0  0  0  0
  5  6  2  0  0  0  0
  5  7  1  0  0  0  0
  2  3  1  0  0  0  0
  2  4  1  0  0  0  0
  2  5  1  0  0  0  0
  1  2  1  0  0  0  0
 15 16  2  0  0  0  0
 15 17  1  0  0  0  0
 11 12  1  0  0  0  0
 11 13  1  0  0  0  0
 11 14  1  0  0  0  0
  9 10  1  0  0  0  0
  9 11  1  0  0  0  0
  9 15  1  0  0  0  0
  7  8  1  0  0  0  0
  7  9  1  0  0  0  0
 19 20  1  0  0  0  0
 19 21  1  0  0  0  0
 19 22  1  0  0  0  0
 17 18  1  0  0  0  0
 17 19  1  0  0  0  0
M  END
$$$$
default_name
  -OEChem-01062215323D

 22 21  0     1  0  0  0  0  0999 V2000
   -2.5423   -3.6749    0.8058 H   0  0  0  0  0  0  0  0  0  0  0  0
   -2.5063   -2.6779    0.3688 C   0  0  0  0  0  0  0  0  0  0  0  0
   -3.1603   -2.0109    0.9268 H   0  0  0  0  0  0  0  0  0  0  0  0
   -2.8193   -2.7229   -0.6722 H   0  0  0  0  0  0  0  0  0  0  0  0
   -1.0873   -2.1629    0.4418 C   0  0  0  0  0  0  0  0  0  0  0  0
   -0.2073   -2.8549    0.9368 O   0  0  0  0  0  0  0  0  0  0  0  0
   -0.8713   -0.9449   -0.0482 N   0  0  0  0  0  0  0  0  0  0  0  0
   -1.6543   -0.4189   -0.4062 H   0  0  0  0  0  0  0  0  0  0  0  0
    0.4237   -0.2649   -0.0462 C   0  0  1  0  0  0  0  0  0  0  0  0
    1.0861   -0.7699    0.6587 H   0  0  0  0  0  0  0  0  0  0  0  0
    1.0400   -0.3620   -1.4503 C   0  0  0  0  0  0  0  0  0  0  0  0
    0.3923    0.1335   -2.1754 H   0  0  0  0  0  0  0  0  0  0  0  0
    2.0200    0.1140   -1.4615 H   0  0  0  0  0  0  0  0  0  0  0  0
    1.1563   -1.4104   -1.7300 H   0  0  0  0  0  0  0  0  0  0  0  0
    0.2778    1.2008    0.4072 C   0  0  0  0  0  0  0  0  0  0  0  0
   -0.6210    1.9079   -0.0478 O   0  0  0  0  0  0  0  0  0  0  0  0
    1.1735    1.6556    1.2926 N   0  0  0  0  0  0  0  0  0  0  0  0
    1.8838    1.0182    1.6153 H   0  0  0  0  0  0  0  0  0  0  0  0
    1.1827    3.0202    1.8176 C   0  0  0  0  0  0  0  0  0  0  0  0
    0.2114    3.2515    2.2595 H   0  0  0  0  0  0  0  0  0  0  0  0
    1.9578    3.1298    2.5774 H   0  0  0  0  0  0  0  0  0  0  0  0
    1.3705    3.7252    1.0059 H   0  0  0  0  0  0  0  0  0  0  0  0
  5  6  2  0  0  0  0
  5  7  1  0  0  0  0
  2  3  1  0  0  0  0
  2  4  1  0  0  0  0
  2  5  1  0  0  0  0
  1  2  1  0  0  0  0
 15 16  2  0  0  0  0
 15 17  1  0  0  0  0
 11 12  1  0  0  0  0
 11 13  1  0  0  0  0
 11 14  1  0  0  0  0
  9 10  1  0  0  0  0
  9 11  1  0  0  0  0
  9 15  1  0  0  0  0
  7  8  1  0  0  0  0
  7  9  1  0  0  0  0
 19 20  1  0  0  0  0
 19 21  1  0  0  0  0
 19 22  1  0  0  0  0
 17 18  1  0  0  0  0
 17 19  1  0  0  0  0
M  END
$$$$
default_name
  -OEChem-01062215323D

 22 21  0     1  0  0  0  0  0999 V2000
   -2.5423   -3.6749    0.8058 H   0  0  0  0  0  0  0  0  0  0  0  0
   -2.5063   -2.6779    0.3688 C   0  0  0  0  0  0  0  0  0  0  0  0
   -3.1603   -2.0109    0.9268 H   0  0  0  0  0  0  0  0  0  0  0  0
   -2.8193   -2.7229   -0.6722 H   0  0  0  0  0  0  0  0  0  0  0  0
   -1.0873   -2.1629    0.4418 C   0  0  0  0  0  0  0  0  0  0  0  0
   -0.2073   -2.8549    0.9368 O   0  0  0  0  0  0  0  0  0  0  0  0
   -0.8713   -0.9449   -0.0482 N   0  0  0  0  0  0  0  0  0  0  0  0
   -1.6543   -0.4189   -0.4062 H   0  0  0  0  0  0  0  0  0  0  0  0
    0.4237   -0.2649   -0.0462 C   0  0  1  0  0  0  0  0  0  0  0  0
    1.0861   -0.7699    0.6587 H   0  0  0  0  0  0  0  0  0  0  0  0
    1.0400   -0.3620   -1.4503 C   0  0  0  0  0  0  0  0  0  0  0  0
    0.3923    0.1335   -2.1754 H   0  0  0  0  0  0  0  0  0  0  0  0
    2.0200    0.1140   -1.4615 H   0  0  0  0  0  0  0  0  0  0  0  0
    1.1563   -1.4104   -1.7300 H   0  0  0  0  0  0  0  0  0  0  0  0
    0.2778    1.2008    0.4072 C   0  0  0  0  0  0  0  0  0  0  0  0
   -0.7582    1.8245    0.1779 O   0  0  0  0  0  0  0  0  0  0  0  0
    1.3243    1.7497    1.0370 N   0  0  0  0  0  0  0  0  0  0  0  0
    2.1403    1.1772    1.1836 H   0  0  0  0  0  0  0  0  0  0  0  0
    1.3538    3.1284    1.5228 C   0  0  0  0  0  0  0  0  0  0  0  0
    0.5054    3.3030    2.1875 H   0  0  0  0  0  0  0  0  0  0  0  0
    2.2804    3.3201    2.0659 H   0  0  0  0  0  0  0  0  0  0  0  0
    1.2805    3.8173    0.6795 H   0  0  0  0  0  0  0  0  0  0  0  0
  5  6  2  0  0  0  0
  5  7  1  0  0  0  0
  2  3  1  0  0  0  0
  2  4  1  0  0  0  0
  2  5  1  0  0  0  0
  1  2  1  0  0  0  0
 15 16  2  0  0  0  0
 15 17  1  0  0  0  0
 11 12  1  0  0  0  0
 11 13  1  0  0  0  0
 11 14  1  0  0  0  0
  9 10  1  0  0  0  0
  9 11  1  0  0  0  0
  9 15  1  0  0  0  0
  7  8  1  0  0  0  0
  7  9  1  0  0  0  0
 19 20  1  0  0  0  0
 19 21  1  0  0  0  0
 19 22  1  0  0  0  0
 17 18  1  0  0  0  0
 17 19  1  0  0  0  0
M  END
$$$$
default_name
  -OEChem-01062215323D

 22 21  0     1  0  0  0  0  0999 V2000
   -2.5423   -3.6749    0.8058 H   0  0  0  0  0  0  0  0  0  0  0  0
   -2.5063   -2.6779    0.3688 C   0  0  0  0  0  0  0  0  0  0  0  0
   -3.1603   -2.0109    0.9268 H   0  0  0  0  0  0  0  0  0  0  0  0
   -2.8193   -2.7229   -0.6722 H   0  0  0  0  0  0  0  0  0  0  0  0
   -1.0873   -2.1629    0.4418 C   0  0  0  0  0  0  0  0  0  0  0  0
   -0.2073   -2.8549    0.9368 O   0  0  0  0  0  0  0  0  0  0  0  0
   -0.8713   -0.9449   -0.0482 N   0  0  0  0  0  0  0  0  0  0  0  0
   -1.6543   -0.4189   -0.4062 H   0  0  0  0  0  0  0  0  0  0  0  0
    0.4237   -0.2649   -0.0462 C   0  0  1  0  0  0  0  0  0  0  0  0
    1.0861   -0.7699    0.6587 H   0  0  0  0  0  0  0  0  0  0  0  0
    1.0400   -0.3620   -1.4503 C   0  0  0  0  0  0  0  0  0  0  0  0
    0.3923    0.1335   -2.1754 H   0  0  0  0  0  0  0  0  0  0  0  0
    2.0200    0.1140   -1.4615 H   0  0  0  0  0  0  0  0  0  0  0  0
    1.1563   -1.4104   -1.7300 H   0  0  0  0  0  0  0  0  0  0  0  0
    0.2778    1.2008    0.4072 C   0  0  0  0  0  0  0  0  0  0  0  0
   -0.8288    1.7389    0.4317 O   0  0  0  0  0  0  0  0  0  0  0  0
    1.4000    1.8458    0.7506 N   0  0  0  0  0  0  0  0  0  0  0  0
    2.2697    1.3398    0.6995 H   0  0  0  0  0  0  0  0  0  0  0  0
    1.4384    3.2388    1.1934 C   0  0  0  0  0  0  0  0  0  0  0  0
    0.7678    3.3733    2.0444 H   0  0  0  0  0  0  0  0  0  0  0  0
    2.4516    3.5160    1.4877 H   0  0  0  0  0  0  0  0  0  0  0  0
    1.1062    3.8913    0.3841 H   0  0  0  0  0  0  0  0  0  0  0  0
  5  6  2  0  0  0  0
  5  7  1  0  0  0  0
  2  3  1  0  0  0  0
  2  4  1  0  0  0  0
  2  5  1  0  0  0  0
  1  2  1  0  0  0  0
 15 16  2  0  0  0  0
 15 17  1  0  0  0  0
 11 12  1  0  0  0  0
 11 13  1  0  0  0  0
 11 14  1  0  0  0  0
  9 10  1  0  0  0  0
  9 11  1  0  0  0  0
  9 15  1  0  0  0  0
  7  8  1  0  0  0  0
  7  9  1  0  0  0  0
 19 20  1  0  0  0  0
 19 21  1  0  0  0  0
 19 22  1  0  0  0  0
 17 18  1  0  0  0  0
 17 19  1  0  0  0  0
M  END
$$$$
default_name
  -OEChem-01062215323D

 22 21  0     1  0  0  0  0  0999 V2000
   -2.5423   -3.6749    0.8058 H   0  0  0  0  0  0  0  0  0  0  0  0
   -2.5063   -2.6779    0.3688 C   0  0  0  0  0  0  0  0  0  0  0  0
   -3.1603   -2.0109    0.9268 H   0  0  0  0  0  0  0  0  0  0  0  0
   -2.8193   -2.7229   -0.6722 H   0  0  0  0  0  0  0  0  0  0  0  0
   -1.0873   -2.1629    0.4418 C   0  0  0  0  0  0  0  0  0  0  0  0
   -0.2073   -2.8549    0.9368 O   0  0  0  0  0  0  0  0  0  0  0  0
   -0.8713   -0.9449   -0.0482 N   0  0  0  0  0  0  0  0  0  0  0  0
   -1.6543   -0.4189   -0.4062 H   0  0  0  0  0  0  0  0  0  0  0  0
    0.4237   -0.2649   -0.0462 C   0  0  1  0  0  0  0  0  0  0  0  0
    1.1592   -0.9084    0.4393 H   0  0  0  0  0  0  0  0  0  0  0  0
    0.8651   -0.0288   -1.4988 C   0  0  0  0  0  0  0  0  0  0  0  0
    0.1417    0.6102   -2.0078 H   0  0  0  0  0  0  0  0  0  0  0  0
    1.8431    0.4511   -1.5185 H   0  0  0  0  0  0  0  0  0  0  0  0
    0.9326   -0.9835   -2.0233 H   0  0  0  0  0  0  0  0  0  0  0  0
    0.3535    1.0557    0.7452 C   0  0  0  0  0  0  0  0  0  0  0  0
   -0.7032    1.4177    1.2621 O   0  0  0  0  0  0  0  0  0  0  0  0
    1.4782    1.7782    0.8238 N   0  0  0  0  0  0  0  0  0  0  0  0
    2.3028    1.4188    0.3700 H   0  0  0  0  0  0  0  0  0  0  0  0
    1.5806    3.0561    1.5269 C   0  0  0  0  0  0  0  0  0  0  0  0
    1.2544    2.9342    2.5618 H   0  0  0  0  0  0  0  0  0  0  0  0
    2.6108    3.4146    1.5153 H   0  0  0  0  0  0  0  0  0  0  0  0
    0.9362    3.7935    1.0453 H   0  0  0  0  0  0  0  0  0  0  0  0
  5  6  2  0  0  0  0
  5  7  1  0  0  0  0
  2  3  1  0  0  0  0
  2  4  1  0  0  0  0
  2  5  1  0  0  0  0
  1  2  1  0  0  0  0
 15 16  2  0  0  0  0
 15 17  1  0  0  0  0
 11 12  1  0  0  0  0
 11 13  1  0  0  0  0
 11 14  1  0  0  0  0
  9 10  1  0  0  0  0
  9 11  1  0  0  0  0
  9 15  1  0  0  0  0
  7  8  1  0  0  0  0
  7  9  1  0  0  0  0
 19 20  1  0  0  0  0
 19 21  1  0  0  0  0
 19 22  1  0  0  0  0
 17 18  1  0  0  0  0
 17 19  1  0  0  0  0
M  END
$$$$
default_name
  -OEChem-01062215323D

 22 21  0     1  0  0  0  0  0999 V2000
   -2.5423   -3.6749    0.8058 H   0  0  0  0  0  0  0  0  0  0  0  0
   -2.5063   -2.6779    0.3688 C   0  0  0  0  0  0  0  0  0  0  0  0
   -3.1603   -2.0109    0.9268 H   0  0  0  0  0  0  0  0  0  0  0  0
   -2.8193   -2.7229   -0.6722 H   0  0  0  0  0  0  0  0  0  0  0  0
   -1.0873   -2.1629    0.4418 C   0  0  0  0  0  0  0  0  0  0  0  0
   -0.2073   -2.8549    0.9368 O   0  0  0  0  0  0  0  0  0  0  0  0
   -0.8713   -0.9449   -0.0482 N   0  0  0  0  0  0  0  0  0  0  0  0
   -1.6543   -0.4189   -0.4062 H   0  0  0  0  0  0  0  0  0  0  0  0
    0.4237   -0.2649   -0.0462 C   0  0  1  0  0  0  0  0  0  0  0  0
    1.1592   -0.9084    0.4393 H   0  0  0  0  0  0  0  0  0  0  0  0
    0.8651   -0.0288   -1.4988 C   0  0  0  0  0  0  0  0  0  0  0  0
    0.1417    0.6102   -2.0078 H   0  0  0  0  0  0  0  0  0  0  0  0
    1.8431    0.4511   -1.5185 H   0  0  0  0  0  0  0  0  0  0  0  0
    0.9326   -0.9835   -2.0233 H   0  0  0  0  0  0  0  0  0  0  0  0
    0.3535    1.0557    0.7452 C   0  0  0  0  0  0  0  0  0  0  0  0
   -0.6016    1.2892    1.4855 O   0  0  0  0  0  0  0  0  0  0  0  0
    1.3604    1.9217    0.5738 N   0  0  0  0  0  0  0  0  0  0  0  0
    2.1048    1.6619   -0.0533 H   0  0  0  0  0  0  0  0  0  0  0  0
    1.4431    3.2203    1.2406 C   0  0  0  0  0  0  0  0  0  0  0  0
    1.3731    3.0844    2.3217 H   0  0  0  0  0  0  0  0  0  0  0  0
    2.3876    3.7108    1.0011 H   0  0  0  0  0  0  0  0  0  0  0  0
    0.6152    3.8534    0.9168 H   0  0  0  0  0  0  0  0  0  0  0  0
  5  6  2  0  0  0  0
  5  7  1  0  0  0  0
  2  3  1  0  0  0  0
  2  4  1  0  0  0  0
  2  5  1  0  0  0  0
  1  2  1  0  0  0  0
 15 16  2  0  0  0  0
 15 17  1  0  0  0  0
 11 12  1  0  0  0  0
 11 13  1  0  0  0  0
 11 14  1  0  0  0  0
  9 10  1  0  0  0  0
  9 11  1  0  0  0  0
  9 15  1  0  0  0  0
  7  8  1  0  0  0  0
  7  9  1  0  0  0  0
 19 20  1  0  0  0  0
 19 21  1  0  0  0  0
 19 22  1  0  0  0  0
 17 18  1  0  0  0  0
 17 19  1  0  0  0  0
M  END
$$$$
default_name
  -OEChem-01062215323D

 22 21  0     1  0  0  0  0  0999 V2000
   -2.5423   -3.6749    0.8058 H   0  0  0  0  0  0  0  0  0  0  0  0
   -2.5063   -2.6779    0.3688 C   0  0  0  0  0  0  0  0  0  0  0  0
   -3.1603   -2.0109    0.9268 H   0  0  0  0  0  0  0  0  0  0  0  0
   -2.8193   -2.7229   -0.6722 H   0  0  0  0  0  0  0  0  0  0  0  0
   -1.0873   -2.1629    0.4418 C   0  0  0  0  0  0  0  0  0  0  0  0
   -0.2073   -2.8549    0.9368 O   0  0  0  0  0  0  0  0  0  0  0  0
   -0.8713   -0.9449   -0.0482 N   0  0  0  0  0  0  0  0  0  0  0  0
   -1.6543   -0.4189   -0.4062 H   0  0  0  0  0  0  0  0  0  0  0  0
    0.4237   -0.2649   -0.0462 C   0  0  1  0  0  0  0  0  0  0  0  0
    1.1592   -0.9084    0.4393 H   0  0  0  0  0  0  0  0  0  0  0  0
    0.8651   -0.0288   -1.4988 C   0  0  0  0  0  0  0  0  0  0  0  0
    0.1417    0.6102   -2.0078 H   0  0  0  0  0  0  0  0  0  0  0  0
    1.8431    0.4511   -1.5185 H   0  0  0  0  0  0  0  0  0  0  0  0
    0.9326   -0.9835   -2.0233 H   0  0  0  0  0  0  0  0  0  0  0  0
    0.3535    1.0557    0.7452 C   0  0  0  0  0  0  0  0  0  0  0  0
   -0.4369    1.1813    1.6802 O   0  0  0  0  0  0  0  0  0  0  0  0
    1.1720    2.0417    0.3568 N   0  0  0  0  0  0  0  0  0  0  0  0
    1.7875    1.8655   -0.4211 H   0  0  0  0  0  0  0  0  0  0  0  0
    1.2250    3.3573    0.9926 C   0  0  0  0  0  0  0  0  0  0  0  0
    1.4145    3.2424    2.0617 H   0  0  0  0  0  0  0  0  0  0  0  0
    2.0186    3.9613    0.5505 H   0  0  0  0  0  0  0  0  0  0  0  0
    0.2687    3.8671    0.8633 H   0  0  0  0  0  0  0  0  0  0  0  0
  5  6  2  0  0  0  0
  5  7  1  0  0  0  0
  2  3  1  0  0  0  0
  2  4  1  0  0  0  0
  2  5  1  0  0  0  0
  1  2  1  0  0  0  0
 15 16  2  0  0  0  0
 15 17  1  0  0  0  0
 11 12  1  0  0  0  0
 11 13  1  0  0  0  0
 11 14  1  0  0  0  0
  9 10  1  0  0  0  0
  9 11  1  0  0  0  0
  9 15  1  0  0  0  0
  7  8  1  0  0  0  0
  7  9  1  0  0  0  0
 19 20  1  0  0  0  0
 19 21  1  0  0  0  0
 19 22  1  0  0  0  0
 17 18  1  0  0  0  0
 17 19  1  0  0  0  0
M  END
$$$$
default_name
  -OEChem-01062215323D

 22 21  0     1  0  0  0  0  0999 V2000
   -2.5423   -3.6749    0.8058 H   0  0  0  0  0  0  0  0  0  0  0  0
   -2.5063   -2.6779    0.3688 C   0  0  0  0  0  0  0  0  0  0  0  0
   -3.1603   -2.0109    0.9268 H   0  0  0  0  0  0  0  0  0  0  0  0
   -2.8193   -2.7229   -0.6722 H   0  0  0  0  0  0  0  0  0  0  0  0
   -1.0873   -2.1629    0.4418 C   0  0  0  0  0  0  0  0  0  0  0  0
   -0.2073   -2.8549    0.9368 O   0  0  0  0  0  0  0  0  0  0  0  0
   -0.8713   -0.9449   -0.0482 N   0  0  0  0  0  0  0  0  0  0  0  0
   -1.6543   -0.4189   -0.4062 H   0  0  0  0  0  0  0  0  0  0  0  0
    0.4237   -0.2649   -0.0462 C   0  0  1  0  0  0  0  0  0  0  0  0
    1.1592   -0.9084    0.4393 H   0  0  0  0  0  0  0  0  0  0  0  0
    0.8651   -0.0288   -1.4988 C   0  0  0  0  0  0  0  0  0  0  0  0
    0.1417    0.6102   -2.0078 H   0  0  0  0  0  0  0  0  0  0  0  0
    1.8431    0.4511   -1.5185 H   0  0  0  0  0  0  0  0  0  0  0  0
    0.9326   -0.9835   -2.0233 H   0  0  0  0  0  0  0  0  0  0  0  0
    0.3535    1.0557    0.7452 C   0  0  0  0  0  0  0  0  0  0  0  0
   -0.2202    1.1012    1.8331 O   0  0  0  0  0  0  0  0  0  0  0  0
    0.9260    2.1301    0.1875 N   0  0  0  0  0  0  0  0  0  0  0  0
    1.3723    2.0156   -0.7084 H   0  0  0  0  0  0  0  0  0  0  0  0
    0.9411    3.4578    0.7998 C   0  0  0  0  0  0  0  0  0  0  0  0
    1.3758    3.3974    1.7995 H   0  0  0  0  0  0  0  0  0  0  0  0
    1.5289    4.1488    0.1940 H   0  0  0  0  0  0  0  0  0  0  0  0
   -0.0797    3.8337    0.8882 H   0  0  0  0  0  0  0  0  0  0  0  0
  5  6  2  0  0  0  0
  5  7  1  0  0  0  0
  2  3  1  0  0  0  0
  2  4  1  0  0  0  0
  2  5  1  0  0  0  0
  1  2  1  0  0  0  0
 15 16  2  0  0  0  0
 15 17  1  0  0  0  0
 11 12  1  0  0  0  0
 11 13  1  0  0  0  0
 11 14  1  0  0  0  0
  9 10  1  0  0  0  0
  9 11  1  0  0  0  0
  9 15  1  0  0  0  0
  7  8  1  0  0  0  0
  7  9  1  0  0  0  0
 19 20  1  0  0  0  0
 19 21  1  0  0  0  0
 19 22  1  0  0  0  0
 17 18  1  0  0  0  0
 17 19  1  0  0  0  0
M  END
$$$$
default_name
  -OEChem-01062215323D

 22 21  0     1  0  0  0  0  0999 V2000
   -2.5423   -3.6749    0.8058 H   0  0  0  0  0  0  0  0  0  0  0  0
   -2.5063   -2.6779    0.3688 C   0  0  0  0  0  0  0  0  0  0  0  0
   -3.1603   -2.0109    0.9268 H   0  0  0  0  0  0  0  0  0  0  0  0
   -2.8193   -2.7229   -0.6722 H   0  0  0  0  0  0  0  0  0  0  0  0
   -1.0873   -2.1629    0.4418 C   0  0  0  0  0  0  0  0  0  0  0  0
   -0.2073   -2.8549    0.9368 O   0  0  0  0  0  0  0  0  0  0  0  0
   -0.8713   -0.9449   -0.0482 N   0  0  0  0  0  0  0  0  0  0  0  0
   -1.6543   -0.4189   -0.4062 H   0  0  0  0  0  0  0  0  0  0  0  0
    0.4237   -0.2649   -0.0462 C   0  0  1  0  0  0  0  0  0  0  0  0
    1.1592   -0.9084    0.4393 H   0  0  0  0  0  0  0  0  0  0  0  0
    0.8651   -0.0288   -1.4988 C   0  0  0  0  0  0  0  0  0  0  0  0
    0.1417    0.6102   -2.0078 H   0  0  0  0  0  0  0  0  0  0  0  0
    1.8431    0.4511   -1.5185 H   0  0  0  0  0  0  0  0  0  0  0  0
    0.9326   -0.9835   -2.0233 H   0  0  0  0  0  0  0  0  0  0  0  0
    0.3535    1.0557    0.7452 C   0  0  0  0  0  0  0  0  0  0  0  0
    0.0336    1.0544    1.9336 O   0  0  0  0  0  0  0  0  0  0  0  0
    0.6391    2.1808    0.0775 N   0  0  0  0  0  0  0  0  0  0  0  0
    0.8876    2.1020   -0.8956 H   0  0  0  0  0  0  0  0  0  0  0  0
    0.6107    3.5148    0.6754 C   0  0  0  0  0  0  0  0  0  0  0  0
    1.2597    3.5390    1.5531 H   0  0  0  0  0  0  0  0  0  0  0  0
    0.9520    4.2607   -0.0438 H   0  0  0  0  0  0  0  0  0  0  0  0
   -0.4063    3.7553    0.9899 H   0  0  0  0  0  0  0  0  0  0  0  0
  5  6  2  0  0  0  0
  5  7  1  0  0  0  0
  2  3  1  0  0  0  0
  2  4  1  0  0  0  0
  2  5  1  0  0  0  0
  1  2  1  0  0  0  0
 15 16  2  0  0  0  0
 15 17  1  0  0  0  0
 11 12  1  0  0  0  0
 11 13  1  0  0  0  0
 11 14  1  0  0  0  0
  9 10  1  0  0  0  0
  9 11  1  0  0  0  0
  9 15  1  0  0  0  0
  7  8  1  0  0  0  0
  7  9  1  0  0  0  0
 19 20  1  0  0  0  0
 19 21  1  0  0  0  0
 19 22  1  0  0  0  0
 17 18  1  0  0  0  0
 17 19  1  0  0  0  0
M  END
$$$$
default_name
  -OEChem-01062215323D

 22 21  0     1  0  0  0  0  0999 V2000
   -2.5423   -3.6749    0.8058 H   0  0  0  0  0  0  0  0  0  0  0  0
   -2.5063   -2.6779    0.3688 C   0  0  0  0  0  0  0  0  0  0  0  0
   -3.1603   -2.0109    0.9268 H   0  0  0  0  0  0  0  0  0  0  0  0
   -2.8193   -2.7229   -0.6722 H   0  0  0  0  0  0  0  0  0  0  0  0
   -1.0873   -2.1629    0.4418 C   0  0  0  0  0  0  0  0  0  0  0  0
   -0.2073   -2.8549    0.9368 O   0  0  0  0  0  0  0  0  0  0  0  0
   -0.8713   -0.9449   -0.0482 N   0  0  0  0  0  0  0  0  0  0  0  0
   -1.6543   -0.4189   -0.4062 H   0  0  0  0  0  0  0  0  0  0  0  0
    0.4237   -0.2649   -0.0462 C   0  0  1  0  0  0  0  0  0  0  0  0
    1.1592   -0.9084    0.4393 H   0  0  0  0  0  0  0  0  0  0  0  0
    0.8651   -0.0288   -1.4988 C   0  0  0  0  0  0  0  0  0  0  0  0
    0.1417    0.6102   -2.0078 H   0  0  0  0  0  0  0  0  0  0  0  0
    1.8431    0.4511   -1.5185 H   0  0  0  0  0  0  0  0  0  0  0  0
    0.9326   -0.9835   -2.0233 H   0  0  0  0  0  0  0  0  0  0  0  0
    0.3535    1.0557    0.7452 C   0  0  0  0  0  0  0  0  0  0  0  0
    0.3073    1.0442    1.9750 O   0  0  0  0  0  0  0  0  0  0  0  0
    0.3308    2.1903    0.0343 N   0  0  0  0  0  0  0  0  0  0  0  0
    0.3664    2.1188   -0.9700 H   0  0  0  0  0  0  0  0  0  0  0  0
    0.2565    3.5245    0.6278 C   0  0  0  0  0  0  0  0  0  0  0  0
    1.0741    3.6574    1.3390 H   0  0  0  0  0  0  0  0  0  0  0  0
    0.3271    4.2893   -0.1470 H   0  0  0  0  0  0  0  0  0  0  0  0
   -0.6887    3.6375    1.1615 H   0  0  0  0  0  0  0  0  0  0  0  0
  5  6  2  0  0  0  0
  5  7  1  0  0  0  0
  2  3  1  0  0  0  0
  2  4  1  0  0  0  0
  2  5  1  0  0  0  0
  1  2  1  0  0  0  0
 15 16  2  0  0  0  0
 15 17  1  0  0  0  0
 11 12  1  0  0  0  0
 11 13  1  0  0  0  0
 11 14  1  0  0  0  0
  9 10  1  0  0  0  0
  9 11  1  0  0  0  0
  9 15  1  0  0  0  0
  7  8  1  0  0  0  0
  7  9  1  0  0  0  0
 19 20  1  0  0  0  0
 19 21  1  0  0  0  0
 19 22  1  0  0  0  0
 17 18  1  0  0  0  0
 17 19  1  0  0  0  0
M  END
$$$$
default_name
  -OEChem-01062215323D

 22 21  0     1  0  0  0  0  0999 V2000
   -2.5423   -3.6749    0.8058 H   0  0  0  0  0  0  0  0  0  0  0  0
   -2.5063   -2.6779    0.3688 C   0  0  0  0  0  0  0  0  0  0  0  0
   -3.1603   -2.0109    0.9268 H   0  0  0  0  0  0  0  0  0  0  0  0
   -2.8193   -2.7229   -0.6722 H   0  0  0  0  0  0  0  0  0  0  0  0
   -1.0873   -2.1629    0.4418 C   0  0  0  0  0  0  0  0  0  0  0  0
   -0.2073   -2.8549    0.9368 O   0  0  0  0  0  0  0  0  0  0  0  0
   -0.8713   -0.9449   -0.0482 N   0  0  0  0  0  0  0  0  0  0  0  0
   -1.6543   -0.4189   -0.4062 H   0  0  0  0  0  0  0  0  0  0  0  0
    0.4237   -0.2649   -0.0462 C   0  0  1  0  0  0  0  0  0  0  0  0
    1.1592   -0.9084    0.4393 H   0  0  0  0  0  0  0  0  0  0  0  0
    0.8651   -0.0288   -1.4988 C   0  0  0  0  0  0  0  0  0  0  0  0
    0.1417    0.6102   -2.0078 H   0  0  0  0  0  0  0  0  0  0  0  0
    1.8431    0.4511   -1.5185 H   0  0  0  0  0  0  0  0  0  0  0  0
    0.9326   -0.9835   -2.0233 H   0  0  0  0  0  0  0  0  0  0  0  0
    0.3535    1.0557    0.7452 C   0  0  0  0  0  0  0  0  0  0  0  0
    0.5822    1.0711    1.9544 O   0  0  0  0  0  0  0  0  0  0  0  0
    0.0222    2.1580    0.0608 N   0  0  0  0  0  0  0  0  0  0  0  0
   -0.1558    2.0650   -0.9264 H   0  0  0  0  0  0  0  0  0  0  0  0
   -0.0976    3.4862    0.6602 C   0  0  0  0  0  0  0  0  0  0  0  0
    0.8316    3.7445    1.1721 H   0  0  0  0  0  0  0  0  0  0  0  0
   -0.3032    4.2327   -0.1083 H   0  0  0  0  0  0  0  0  0  0  0  0
   -0.9078    3.4881    1.3913 H   0  0  0  0  0  0  0  0  0  0  0  0
  5  6  2  0  0  0  0
  5  7  1  0  0  0  0
  2  3  1  0  0  0  0
  2  4  1  0  0  0  0
  2  5  1  0  0  0  0
  1  2  1  0  0  0  0
 15 16  2  0  0  0  0
 15 17  1  0  0  0  0
 11 12  1  0  0  0  0
 11 13  1  0  0  0  0
 11 14  1  0  0  0  0
  9 10  1  0  0  0  0
  9 11  1  0  0  0  0
  9 15  1  0  0  0  0
  7  8  1  0  0  0  0
  7  9  1  0  0  0  0
 19 20  1  0  0  0  0
 19 21  1  0  0  0  0
 19 22  1  0  0  0  0
 17 18  1  0  0  0  0
 17 19  1  0  0  0  0
M  END
$$$$
default_name
  -OEChem-01062215323D

 22 21  0     1  0  0  0  0  0999 V2000
   -2.5423   -3.6749    0.8058 H   0  0  0  0  0  0  0  0  0  0  0  0
   -2.5063   -2.6779    0.3688 C   0  0  0  0  0  0  0  0  0  0  0  0
   -3.1603   -2.0109    0.9268 H   0  0  0  0  0  0  0  0  0  0  0  0
   -2.8193   -2.7229   -0.6722 H   0  0  0  0  0  0  0  0  0  0  0  0
   -1.0873   -2.1629    0.4418 C   0  0  0  0  0  0  0  0  0  0  0  0
   -0.2073   -2.8549    0.9368 O   0  0  0  0  0  0  0  0  0  0  0  0
   -0.8713   -0.9449   -0.0482 N   0  0  0  0  0  0  0  0  0  0  0  0
   -1.6543   -0.4189   -0.4062 H   0  0  0  0  0  0  0  0  0  0  0  0
    0.4237   -0.2649   -0.0462 C   0  0  1  0  0  0  0  0  0  0  0  0
    1.1592   -0.9084    0.4393 H   0  0  0  0  0  0  0  0  0  0  0  0
    0.8651   -0.0288   -1.4988 C   0  0  0  0  0  0  0  0  0  0  0  0
    0.1417    0.6102   -2.0078 H   0  0  0  0  0  0  0  0  0  0  0  0
    1.8431    0.4511   -1.5185 H   0  0  0  0  0  0  0  0  0  0  0  0
    0.9326   -0.9835   -2.0233 H   0  0  0  0  0  0  0  0  0  0  0  0
    0.3535    1.0557    0.7452 C   0  0  0  0  0  0  0  0  0  0  0  0
    0.8395    1.1334    1.8733 O   0  0  0  0  0  0  0  0  0  0  0  0
   -0.2657    2.0861    0.1553 N   0  0  0  0  0  0  0  0  0  0  0  0
   -0.6433    1.9441   -0.7679 H   0  0  0  0  0  0  0  0  0  0  0  0
   -0.4273    3.4026    0.7705 C   0  0  0  0  0  0  0  0  0  0  0  0
    0.5488    3.7945    1.0636 H   0  0  0  0  0  0  0  0  0  0  0  0
   -0.8960    4.0946    0.0694 H   0  0  0  0  0  0  0  0  0  0  0  0
   -1.0486    3.3174    1.6637 H   0  0  0  0  0  0  0  0  0  0  0  0
  5  6  2  0  0  0  0
  5  7  1  0  0  0  0
  2  3  1  0  0  0  0
  2  4  1  0  0  0  0
  2  5  1  0  0  0  0
  1  2  1  0  0  0  0
 15 16  2  0  0  0  0
 15 17  1  0  0  0  0
 11 12  1  0  0  0  0
 11 13  1  0  0  0  0
 11 14  1  0  0  0  0
  9 10  1  0  0  0  0
  9 11  1  0  0  0  0
  9 15  1  0  0  0  0
  7  8  1  0  0  0  0
  7  9  1  0  0  0  0
 19 20  1  0  0  0  0
 19 21  1  0  0  0  0
 19 22  1  0  0  0  0
 17 18  1  0  0  0  0
 17 19  1  0  0  0  0
M  END
$$$$
default_name
  -OEChem-01062215323D

 22 21  0     1  0  0  0  0  0999 V2000
   -2.5423   -3.6749    0.8058 H   0  0  0  0  0  0  0  0  0  0  0  0
   -2.5063   -2.6779    0.3688 C   0  0  0  0  0  0  0  0  0  0  0  0
   -3.1603   -2.0109    0.9268 H   0  0  0  0  0  0  0  0  0  0  0  0
   -2.8193   -2.7229   -0.6722 H   0  0  0  0  0  0  0  0  0  0  0  0
   -1.0873   -2.1629    0.4418 C   0  0  0  0  0  0  0  0  0  0  0  0
   -0.2073   -2.8549    0.9368 O   0  0  0  0  0  0  0  0  0  0  0  0
   -0.8713   -0.9449   -0.0482 N   0  0  0  0  0  0  0  0  0  0  0  0
   -1.6543   -0.4189   -0.4062 H   0  0  0  0  0  0  0  0  0  0  0  0
    0.4237   -0.2649   -0.0462 C   0  0  1  0  0  0  0  0  0  0  0  0
    1.1592   -0.9084    0.4393 H   0  0  0  0  0  0  0  0  0  0  0  0
    0.8651   -0.0288   -1.4988 C   0  0  0  0  0  0  0  0  0  0  0  0
    0.1417    0.6102   -2.0078 H   0  0  0  0  0  0  0  0  0  0  0  0
    1.8431    0.4511   -1.5185 H   0  0  0  0  0  0  0  0  0  0  0  0
    0.9326   -0.9835   -2.0233 H   0  0  0  0  0  0  0  0  0  0  0  0
    0.3535    1.0557    0.7452 C   0  0  0  0  0  0  0  0  0  0  0  0
    1.0619    1.2269    1.7370 O   0  0  0  0  0  0  0  0  0  0  0  0
   -0.5133    1.9795    0.3112 N   0  0  0  0  0  0  0  0  0  0  0  0
   -1.0630    1.7643   -0.5052 H   0  0  0  0  0  0  0  0  0  0  0  0
   -0.7101    3.2793    0.9512 C   0  0  0  0  0  0  0  0  0  0  0  0
    0.2449    3.8039    1.0209 H   0  0  0  0  0  0  0  0  0  0  0  0
   -1.4107    3.8846    0.3742 H   0  0  0  0  0  0  0  0  0  0  0  0
   -1.1016    3.1371    1.9599 H   0  0  0  0  0  0  0  0  0  0  0  0
  5  6  2  0  0  0  0
  5  7  1  0  0  0  0
  2  3  1  0  0  0  0
  2  4  1  0  0  0  0
  2  5  1  0  0  0  0
  1  2  1  0  0  0  0
 15 16  2  0  0  0  0
 15 17  1  0  0  0  0
 11 12  1  0  0  0  0
 11 13  1  0  0  0  0
 11 14  1  0  0  0  0
  9 10  1  0  0  0  0
  9 11  1  0  0  0  0
  9 15  1  0  0  0  0
  7  8  1  0  0  0  0
  7  9  1  0  0  0  0
 19 20  1  0  0  0  0
 19 21  1  0  0  0  0
 19 22  1  0  0  0  0
 17 18  1  0  0  0  0
 17 19  1  0  0  0  0
M  END
$$$$
default_name
  -OEChem-01062215323D

 22 21  0     1  0  0  0  0  0999 V2000
   -2.5423   -3.6749    0.8058 H   0  0  0  0  0  0  0  0  0  0  0  0
   -2.5063   -2.6779    0.3688 C   0  0  0  0  0  0  0  0  0  0  0  0
   -3.1603   -2.0109    0.9268 H   0  0  0  0  0  0  0  0  0  0  0  0
   -2.8193   -2.7229   -0.6722 H   0  0  0  0  0  0  0  0  0  0  0  0
   -1.0873   -2.1629    0.4418 C   0  0  0  0  0  0  0  0  0  0  0  0
   -0.2073   -2.8549    0.9368 O   0  0  0  0  0  0  0  0  0  0  0  0
   -0.8713   -0.9449   -0.0482 N   0  0  0  0  0  0  0  0  0  0  0  0
   -1.6543   -0.4189   -0.4062 H   0  0  0  0  0  0  0  0  0  0  0  0
    0.4237   -0.2649   -0.0462 C   0  0  1  0  0  0  0  0  0  0  0  0
    1.1592   -0.9084    0.4393 H   0  0  0  0  0  0  0  0  0  0  0  0
    0.8651   -0.0288   -1.4988 C   0  0  0  0  0  0  0  0  0  0  0  0
    0.1417    0.6102   -2.0078 H   0  0  0  0  0  0  0  0  0  0  0  0
    1.8431    0.4511   -1.5185 H   0  0  0  0  0  0  0  0  0  0  0  0
    0.9326   -0.9835   -2.0233 H   0  0  0  0  0  0  0  0  0  0  0  0
    0.3535    1.0557    0.7452 C   0  0  0  0  0  0  0  0  0  0  0  0
    1.2340    1.3451    1.5550 O   0  0  0  0  0  0  0  0  0  0  0  0
   -0.7037    1.8454    0.5180 N   0  0  0  0  0  0  0  0  0  0  0  0
   -1.3863    1.5381   -0.1563 H   0  0  0  0  0  0  0  0  0  0  0  0
   -0.9269    3.1247    1.1899 C   0  0  0  0  0  0  0  0  0  0  0  0
   -0.0594    3.7721    1.0470 H   0  0  0  0  0  0  0  0  0  0  0  0
   -1.8124    3.6169    0.7853 H   0  0  0  0  0  0  0  0  0  0  0  0
   -1.0630    2.9593    2.2600 H   0  0  0  0  0  0  0  0  0  0  0  0
  5  6  2  0  0  0  0
  5  7  1  0  0  0  0
  2  3  1  0  0  0  0
  2  4  1  0  0  0  0
  2  5  1  0  0  0  0
  1  2  1  0  0  0  0
 15 16  2  0  0  0  0
 15 17  1  0  0  0  0
 11 12  1  0  0  0  0
 11 13  1  0  0  0  0
 11 14  1  0  0  0  0
  9 10  1  0  0  0  0
  9 11  1  0  0  0  0
  9 15  1  0  0  0  0
  7  8  1  0  0  0  0
  7  9  1  0  0  0  0
 19 20  1  0  0  0  0
 19 21  1  0  0  0  0
 19 22  1  0  0  0  0
 17 18  1  0  0  0  0
 17 19  1  0  0  0  0
M  END
$$$$
default_name
  -OEChem-01062215323D

 22 21  0     1  0  0  0  0  0999 V2000
   -2.5423   -3.6749    0.8058 H   0  0  0  0  0  0  0  0  0  0  0  0
   -2.5063   -2.6779    0.3688 C   0  0  0  0  0  0  0  0  0  0  0  0
   -3.1603   -2.0109    0.9268 H   0  0  0  0  0  0  0  0  0  0  0  0
   -2.8193   -2.7229   -0.6722 H   0  0  0  0  0  0  0  0  0  0  0  0
   -1.0873   -2.1629    0.4418 C   0  0  0  0  0  0  0  0  0  0  0  0
   -0.2073   -2.8549    0.9368 O   0  0  0  0  0  0  0  0  0  0  0  0
   -0.8713   -0.9449   -0.0482 N   0  0  0  0  0  0  0  0  0  0  0  0
   -1.6543   -0.4189   -0.4062 H   0  0  0  0  0  0  0  0  0  0  0  0
    0.4237   -0.2649   -0.0462 C   0  0  1  0  0  0  0  0  0  0  0  0
    1.1592   -0.9084    0.4393 H   0  0  0  0  0  0  0  0  0  0  0  0
    0.8651   -0.0288   -1.4988 C   0  0  0  0  0  0  0  0  0  0  0  0
    0.1417    0.6102   -2.0078 H   0  0  0  0  0  0  0  0  0  0  0  0
    1.8431    0.4511   -1.5185 H   0  0  0  0  0  0  0  0  0  0  0  0
    0.9326   -0.9835   -2.0233 H   0  0  0  0  0  0  0  0  0  0  0  0
    0.3535    1.0557    0.7452 C   0  0  0  0  0  0  0  0  0  0  0  0
    1.3442    1.4800    1.3397 O   0  0  0  0  0  0  0  0  0  0  0  0
   -0.8240    1.6931    0.7615 N   0  0  0  0  0  0  0  0  0  0  0  0
   -1.5911    1.2806    0.2551 H   0  0  0  0  0  0  0  0  0  0  0  0
   -1.0628    2.9494    1.4704 C   0  0  0  0  0  0  0  0  0  0  0  0
   -0.3433    3.7013    1.1400 H   0  0  0  0  0  0  0  0  0  0  0  0
   -2.0737    3.3098    1.2745 H   0  0  0  0  0  0  0  0  0  0  0  0
   -0.9357    2.7963    2.5434 H   0  0  0  0  0  0  0  0  0  0  0  0
  5  6  2  0  0  0  0
  5  7  1  0  0  0  0
  2  3  1  0  0  0  0
  2  4  1  0  0  0  0
  2  5  1  0  0  0  0
  1  2  1  0  0  0  0
 15 16  2  0  0  0  0
 15 17  1  0  0  0  0
 11 12  1  0  0  0  0
 11 13  1  0  0  0  0
 11 14  1  0  0  0  0
  9 10  1  0  0  0  0
  9 11  1  0  0  0  0
  9 15  1  0  0  0  0
  7  8  1  0  0  0  0
  7  9  1  0  0  0  0
 19 20  1  0  0  0  0
 19 21  1  0  0  0  0
 19 22  1  0  0  0  0
 17 18  1  0  0  0  0
 17 19  1  0  0  0  0
M  END
$$$$
default_name
  -OEChem-01062215323D

 22 21  0     1  0  0  0  0  0999 V2000
   -2.5423   -3.6749    0.8058 H   0  0  0  0  0  0  0  0  0  0  0  0
   -2.5063   -2.6779    0.3688 C   0  0  0  0  0  0  0  0  0  0  0  0
   -3.1603   -2.0109    0.9268 H   0  0  0  0  0  0  0  0  0  0  0  0
   -2.8193   -2.7229   -0.6722 H   0  0  0  0  0  0  0  0  0  0  0  0
   -1.0873   -2.1629    0.4418 C   0  0  0  0  0  0  0  0  0  0  0  0
   -0.2073   -2.8549    0.9368 O   0  0  0  0  0  0  0  0  0  0  0  0
   -0.8713   -0.9449   -0.0482 N   0  0  0  0  0  0  0  0  0  0  0  0
   -1.6543   -0.4189   -0.4062 H   0  0  0  0  0  0  0  0  0  0  0  0
    0.4237   -0.2649   -0.0462 C   0  0  1  0  0  0  0  0  0  0  0  0
    1.1592   -0.9084    0.4393 H   0  0  0  0  0  0  0  0  0  0  0  0
    0.8651   -0.0288   -1.4988 C   0  0  0  0  0  0  0  0  0  0  0  0
    0.1417    0.6102   -2.0078 H   0  0  0  0  0  0  0  0  0  0  0  0
    1.8431    0.4511   -1.5185 H   0  0  0  0  0  0  0  0  0  0  0  0
    0.9326   -0.9835   -2.0233 H   0  0  0  0  0  0  0  0  0  0  0  0
    0.3535    1.0557    0.7452 C   0  0  0  0  0  0  0  0  0  0  0  0
    1.3849    1.6224    1.1056 O   0  0  0  0  0  0  0  0  0  0  0  0
   -0.8659    1.5328    1.0252 N   0  0  0  0  0  0  0  0  0  0  0  0
   -1.6634    1.0096    0.7009 H   0  0  0  0  0  0  0  0  0  0  0  0
   -1.1086    2.7654    1.7735 C   0  0  0  0  0  0  0  0  0  0  0  0
   -0.5875    3.5962    1.2937 H   0  0  0  0  0  0  0  0  0  0  0  0
   -2.1768    2.9842    1.8087 H   0  0  0  0  0  0  0  0  0  0  0  0
   -0.7281    2.6590    2.7908 H   0  0  0  0  0  0  0  0  0  0  0  0
  5  6  2  0  0  0  0
  5  7  1  0  0  0  0
  2  3  1  0  0  0  0
  2  4  1  0  0  0  0
  2  5  1  0  0  0  0
  1  2  1  0  0  0  0
 15 16  2  0  0  0  0
 15 17  1  0  0  0  0
 11 12  1  0  0  0  0
 11 13  1  0  0  0  0
 11 14  1  0  0  0  0
  9 10  1  0  0  0  0
  9 11  1  0  0  0  0
  9 15  1  0  0  0  0
  7  8  1  0  0  0  0
  7  9  1  0  0  0  0
 19 20  1  0  0  0  0
 19 21  1  0  0  0  0
 19 22  1  0  0  0  0
 17 18  1  0  0  0  0
 17 19  1  0  0  0  0
M  END
$$$$
default_name
  -OEChem-01062215323D

 22 21  0     1  0  0  0  0  0999 V2000
   -2.5423   -3.6749    0.8058 H   0  0  0  0  0  0  0  0  0  0  0  0
   -2.5063   -2.6779    0.3688 C   0  0  0  0  0  0  0  0  0  0  0  0
   -3.1603   -2.0109    0.9268 H   0  0  0  0  0  0  0  0  0  0  0  0
   -2.8193   -2.7229   -0.6722 H   0  0  0  0  0  0  0  0  0  0  0  0
   -1.0873   -2.1629    0.4418 C   0  0  0  0  0  0  0  0  0  0  0  0
   -0.2073   -2.8549    0.9368 O   0  0  0  0  0  0  0  0  0  0  0  0
   -0.8713   -0.9449   -0.0482 N   0  0  0  0  0  0  0  0  0  0  0  0
   -1.6543   -0.4189   -0.4062 H   0  0  0  0  0  0  0  0  0  0  0  0
    0.4237   -0.2649   -0.0462 C   0  0  1  0  0  0  0  0  0  0  0  0
    1.1592   -0.9084    0.4393 H   0  0  0  0  0  0  0  0  0  0  0  0
    0.8651   -0.0288   -1.4988 C   0  0  0  0  0  0  0  0  0  0  0  0
    0.1417    0.6102   -2.0078 H   0  0  0  0  0  0  0  0  0  0  0  0
    1.8431    0.4511   -1.5185 H   0  0  0  0  0  0  0  0  0  0  0  0
    0.9326   -0.9835   -2.0233 H   0  0  0  0  0  0  0  0  0  0  0  0
    0.3535    1.0557    0.7452 C   0  0  0  0  0  0  0  0  0  0  0  0
    1.3534    1.7627    0.8688 O   0  0  0  0  0  0  0  0  0  0  0  0
   -0.8266    1.3756    1.2911 N   0  0  0  0  0  0  0  0  0  0  0  0
   -1.5984    0.7435    1.1508 H   0  0  0  0  0  0  0  0  0  0  0  0
   -1.0611    2.5850    2.0786 C   0  0  0  0  0  0  0  0  0  0  0  0
   -0.7753    3.4641    1.4975 H   0  0  0  0  0  0  0  0  0  0  0  0
   -2.1146    2.6624    2.3514 H   0  0  0  0  0  0  0  0  0  0  0  0
   -0.4545    2.5570    2.9853 H   0  0  0  0  0  0  0  0  0  0  0  0
  5  6  2  0  0  0  0
  5  7  1  0  0  0  0
  2  3  1  0  0  0  0
  2  4  1  0  0  0  0
  2  5  1  0  0  0  0
  1  2  1  0  0  0  0
 15 16  2  0  0  0  0
 15 17  1  0  0  0  0
 11 12  1  0  0  0  0
 11 13  1  0  0  0  0
 11 14  1  0  0  0  0
  9 10  1  0  0  0  0
  9 11  1  0  0  0  0
  9 15  1  0  0  0  0
  7  8  1  0  0  0  0
  7  9  1  0  0  0  0
 19 20  1  0  0  0  0
 19 21  1  0  0  0  0
 19 22  1  0  0  0  0
 17 18  1  0  0  0  0
 17 19  1  0  0  0  0
M  END
$$$$
default_name
  -OEChem-01062215323D

 22 21  0     1  0  0  0  0  0999 V2000
   -2.5423   -3.6749    0.8058 H   0  0  0  0  0  0  0  0  0  0  0  0
   -2.5063   -2.6779    0.3688 C   0  0  0  0  0  0  0  0  0  0  0  0
   -3.1603   -2.0109    0.9268 H   0  0  0  0  0  0  0  0  0  0  0  0
   -2.8193   -2.7229   -0.6722 H   0  0  0  0  0  0  0  0  0  0  0  0
   -1.0873   -2.1629    0.4418 C   0  0  0  0  0  0  0  0  0  0  0  0
   -0.2073   -2.8549    0.9368 O   0  0  0  0  0  0  0  0  0  0  0  0
   -0.8713   -0.9449   -0.0482 N   0  0  0  0  0  0  0  0  0  0  0  0
   -1.6543   -0.4189   -0.4062 H   0  0  0  0  0  0  0  0  0  0  0  0
    0.4237   -0.2649   -0.0462 C   0  0  1  0  0  0  0  0  0  0  0  0
    1.1592   -0.9084    0.4393 H   0  0  0  0  0  0  0  0  0  0  0  0
    0.8651   -0.0288   -1.4988 C   0  0  0  0  0  0  0  0  0  0  0  0
    0.1417    0.6102   -2.0078 H   0  0  0  0  0  0  0  0  0  0  0  0
    1.8431    0.4511   -1.5185 H   0  0  0  0  0  0  0  0  0  0  0  0
    0.9326   -0.9835   -2.0233 H   0  0  0  0  0  0  0  0  0  0  0  0
    0.3535    1.0557    0.7452 C   0  0  0  0  0  0  0  0  0  0  0  0
    1.2519    1.8911    0.6454 O   0  0  0  0  0  0  0  0  0  0  0  0
   -0.7087    1.2320    1.5411 N   0  0  0  0  0  0  0  0  0  0  0  0
   -1.4005    0.5004    1.5741 H   0  0  0  0  0  0  0  0  0  0  0  0
   -0.9237    2.4208    2.3649 C   0  0  0  0  0  0  0  0  0  0  0  0
   -0.8939    3.3139    1.7376 H   0  0  0  0  0  0  0  0  0  0  0  0
   -1.8914    2.3661    2.8656 H   0  0  0  0  0  0  0  0  0  0  0  0
   -0.1335    2.4971    3.1138 H   0  0  0  0  0  0  0  0  0  0  0  0
  5  6  2  0  0  0  0
  5  7  1  0  0  0  0
  2  3  1  0  0  0  0
  2  4  1  0  0  0  0
  2  5  1  0  0  0  0
  1  2  1  0  0  0  0
 15 16  2  0  0  0  0
 15 17  1  0  0  0  0
 11 12  1  0  0  0  0
 11 13  1  0  0  0  0
 11 14  1  0  0  0  0
  9 10  1  0  0  0  0
  9 11  1  0  0  0  0
  9 15  1  0  0  0  0
  7  8  1  0  0  0  0
  7  9  1  0  0  0  0
 19 20  1  0  0  0  0
 19 21  1  0  0  0  0
 19 22  1  0  0  0  0
 17 18  1  0  0  0  0
 17 19  1  0  0  0  0
M  END
$$$$
default_name
  -OEChem-01062215323D

 22 21  0     1  0  0  0  0  0999 V2000
   -2.5423   -3.6749    0.8058 H   0  0  0  0  0  0  0  0  0  0  0  0
   -2.5063   -2.6779    0.3688 C   0  0  0  0  0  0  0  0  0  0  0  0
   -3.1603   -2.0109    0.9268 H   0  0  0  0  0  0  0  0  0  0  0  0
   -2.8193   -2.7229   -0.6722 H   0  0  0  0  0  0  0  0  0  0  0  0
   -1.0873   -2.1629    0.4418 C   0  0  0  0  0  0  0  0  0  0  0  0
   -0.2073   -2.8549    0.9368 O   0  0  0  0  0  0  0  0  0  0  0  0
   -0.8713   -0.9449   -0.0482 N   0  0  0  0  0  0  0  0  0  0  0  0
   -1.6543   -0.4189   -0.4062 H   0  0  0  0  0  0  0  0  0  0  0  0
    0.4237   -0.2649   -0.0462 C   0  0  1  0  0  0  0  0  0  0  0  0
    1.1592   -0.9084    0.4393 H   0  0  0  0  0  0  0  0  0  0  0  0
    0.8651   -0.0288   -1.4988 C   0  0  0  0  0  0  0  0  0  0  0  0
    0.1417    0.6102   -2.0078 H   0  0  0  0  0  0  0  0  0  0  0  0
    1.8431    0.4511   -1.5185 H   0  0  0  0  0  0  0  0  0  0  0  0
    0.9326   -0.9835   -2.0233 H   0  0  0  0  0  0  0  0  0  0  0  0
    0.3535    1.0557    0.7452 C   0  0  0  0  0  0  0  0  0  0  0  0
    1.0871    1.9991    0.4507 O   0  0  0  0  0  0  0  0  0  0  0  0
   -0.5204    1.1120    1.7582 N   0  0  0  0  0  0  0  0  0  0  0  0
   -1.0831    0.2968    1.9419 H   0  0  0  0  0  0  0  0  0  0  0  0
   -0.7055    2.2838    2.6129 C   0  0  0  0  0  0  0  0  0  0  0  0
   -0.9353    3.1559    1.9976 H   0  0  0  0  0  0  0  0  0  0  0  0
   -1.5223    2.1156    3.3162 H   0  0  0  0  0  0  0  0  0  0  0  0
    0.2130    2.4834    3.1674 H   0  0  0  0  0  0  0  0  0  0  0  0
  5  6  2  0  0  0  0
  5  7  1  0  0  0  0
  2  3  1  0  0  0  0
  2  4  1  0  0  0  0
  2  5  1  0  0  0  0
  1  2  1  0  0  0  0
 15 16  2  0  0  0  0
 15 17  1  0  0  0  0
 11 12  1  0  0  0  0
 11 13  1  0  0  0  0
 11 14  1  0  0  0  0
  9 10  1  0  0  0  0
  9 11  1  0  0  0  0
  9 15  1  0  0  0  0
  7  8  1  0  0  0  0
  7  9  1  0  0  0  0
 19 20  1  0  0  0  0
 19 21  1  0  0  0  0
 19 22  1  0  0  0  0
 17 18  1  0  0  0  0
 17 19  1  0  0  0  0
M  END
$$$$
default_name
  -OEChem-01062215323D

 22 21  0     1  0  0  0  0  0999 V2000
   -2.5423   -3.6749    0.8058 H   0  0  0  0  0  0  0  0  0  0  0  0
   -2.5063   -2.6779    0.3688 C   0  0  0  0  0  0  0  0  0  0  0  0
   -3.1603   -2.0109    0.9268 H   0  0  0  0  0  0  0  0  0  0  0  0
   -2.8193   -2.7229   -0.6722 H   0  0  0  0  0  0  0  0  0  0  0  0
   -1.0873   -2.1629    0.4418 C   0  0  0  0  0  0  0  0  0  0  0  0
   -0.2073   -2.8549    0.9368 O   0  0  0  0  0  0  0  0  0  0  0  0
   -0.8713   -0.9449   -0.0482 N   0  0  0  0  0  0  0  0  0  0  0  0
   -1.6543   -0.4189   -0.4062 H   0  0  0  0  0  0  0  0  0  0  0  0
    0.4237   -0.2649   -0.0462 C   0  0  1  0  0  0  0  0  0  0  0  0
    1.1592   -0.9084    0.4393 H   0  0  0  0  0  0  0  0  0  0  0  0
    0.8651   -0.0288   -1.4988 C   0  0  0  0  0  0  0  0  0  0  0  0
    0.1417    0.6102   -2.0078 H   0  0  0  0  0  0  0  0  0  0  0  0
    1.8431    0.4511   -1.5185 H   0  0  0  0  0  0  0  0  0  0  0  0
    0.9326   -0.9835   -2.0233 H   0  0  0  0  0  0  0  0  0  0  0  0
    0.3535    1.0557    0.7452 C   0  0  0  0  0  0  0  0  0  0  0  0
    0.8705    2.0792    0.2978 O   0  0  0  0  0  0  0  0  0  0  0  0
   -0.2744    1.0236    1.9274 N   0  0  0  0  0  0  0  0  0  0  0  0
   -0.6679    0.1467    2.2292 H   0  0  0  0  0  0  0  0  0  0  0  0
   -0.4216    2.1833    2.8057 C   0  0  0  0  0  0  0  0  0  0  0  0
   -0.8966    3.0009    2.2597 H   0  0  0  0  0  0  0  0  0  0  0  0
   -1.0327    1.9281    3.6726 H   0  0  0  0  0  0  0  0  0  0  0  0
    0.5614    2.5169    3.1424 H   0  0  0  0  0  0  0  0  0  0  0  0
  5  6  2  0  0  0  0
  5  7  1  0  0  0  0
  2  3  1  0  0  0  0
  2  4  1  0  0  0  0
  2  5  1  0  0  0  0
  1  2  1  0  0  0  0
 15 16  2  0  0  0  0
 15 17  1  0  0  0  0
 11 12  1  0  0  0  0
 11 13  1  0  0  0  0
 11 14  1  0  0  0  0
  9 10  1  0  0  0  0
  9 11  1  0  0  0  0
  9 15  1  0  0  0  0
  7  8  1  0  0  0  0
  7  9  1  0  0  0  0
 19 20  1  0  0  0  0
 19 21  1  0  0  0  0
 19 22  1  0  0  0  0
 17 18  1  0  0  0  0
 17 19  1  0  0  0  0
M  END
$$$$
default_name
  -OEChem-01062215323D

 22 21  0     1  0  0  0  0  0999 V2000
   -2.5423   -3.6749    0.8058 H   0  0  0  0  0  0  0  0  0  0  0  0
   -2.5063   -2.6779    0.3688 C   0  0  0  0  0  0  0  0  0  0  0  0
   -3.1603   -2.0109    0.9268 H   0  0  0  0  0  0  0  0  0  0  0  0
   -2.8193   -2.7229   -0.6722 H   0  0  0  0  0  0  0  0  0  0  0  0
   -1.0873   -2.1629    0.4418 C   0  0  0  0  0  0  0  0  0  0  0  0
   -0.2073   -2.8549    0.9368 O   0  0  0  0  0  0  0  0  0  0  0  0
   -0.8713   -0.9449   -0.0482 N   0  0  0  0  0  0  0  0  0  0  0  0
   -1.6543   -0.4189   -0.4062 H   0  0  0  0  0  0  0  0  0  0  0  0
    0.4237   -0.2649   -0.0462 C   0  0  1  0  0  0  0  0  0  0  0  0
    1.1592   -0.9084    0.4393 H   0  0  0  0  0  0  0  0  0  0  0  0
    0.8651   -0.0288   -1.4988 C   0  0  0  0  0  0  0  0  0  0  0  0
    0.1417    0.6102   -2.0078 H   0  0  0  0  0  0  0  0  0  0  0  0
    1.8431    0.4511   -1.5185 H   0  0  0  0  0  0  0  0  0  0  0  0
    0.9326   -0.9835   -2.0233 H   0  0  0  0  0  0  0  0  0  0  0  0
    0.3535    1.0557    0.7452 C   0  0  0  0  0  0  0  0  0  0  0  0
    0.6167    2.1260    0.1972 O   0  0  0  0  0  0  0  0  0  0  0  0
    0.0125    0.9730    2.0374 N   0  0  0  0  0  0  0  0  0  0  0  0
   -0.1832    0.0603    2.4164 H   0  0  0  0  0  0  0  0  0  0  0  0
   -0.0913    2.1263    2.9301 C   0  0  0  0  0  0  0  0  0  0  0  0
   -0.7805    2.8593    2.5062 H   0  0  0  0  0  0  0  0  0  0  0  0
   -0.4557    1.8162    3.9105 H   0  0  0  0  0  0  0  0  0  0  0  0
    0.8880    2.5952    3.0407 H   0  0  0  0  0  0  0  0  0  0  0  0
  5  6  2  0  0  0  0
  5  7  1  0  0  0  0
  2  3  1  0  0  0  0
  2  4  1  0  0  0  0
  2  5  1  0  0  0  0
  1  2  1  0  0  0  0
 15 16  2  0  0  0  0
 15 17  1  0  0  0  0
 11 12  1  0  0  0  0
 11 13  1  0  0  0  0
 11 14  1  0  0  0  0
  9 10  1  0  0  0  0
  9 11  1  0  0  0  0
  9 15  1  0  0  0  0
  7  8  1  0  0  0  0
  7  9  1  0  0  0  0
 19 20  1  0  0  0  0
 19 21  1  0  0  0  0
 19 22  1  0  0  0  0
 17 18  1  0  0  0  0
 17 19  1  0  0  0  0
M  END
$$$$
default_name
  -OEChem-01062215323D

 22 21  0     1  0  0  0  0  0999 V2000
   -2.5423   -3.6749    0.8058 H   0  0  0  0  0  0  0  0  0  0  0  0
   -2.5063   -2.6779    0.3688 C   0  0  0  0  0  0  0  0  0  0  0  0
   -3.1603   -2.0109    0.9268 H   0  0  0  0  0  0  0  0  0  0  0  0
   -2.8193   -2.7229   -0.6722 H   0  0  0  0  0  0  0  0  0  0  0  0
   -1.0873   -2.1629    0.4418 C   0  0  0  0  0  0  0  0  0  0  0  0
   -0.2073   -2.8549    0.9368 O   0  0  0  0  0  0  0  0  0  0  0  0
   -0.8713   -0.9449   -0.0482 N   0  0  0  0  0  0  0  0  0  0  0  0
   -1.6543   -0.4189   -0.4062 H   0  0  0  0  0  0  0  0  0  0  0  0
    0.4237   -0.2649   -0.0462 C   0  0  1  0  0  0  0  0  0  0  0  0
    1.1592   -0.9084    0.4393 H   0  0  0  0  0  0  0  0  0  0  0  0
    0.8651   -0.0288   -1.4988 C   0  0  0  0  0  0  0  0  0  0  0  0
    0.1417    0.6102   -2.0078 H   0  0  0  0  0  0  0  0  0  0  0  0
    1.8431    0.4511   -1.5185 H   0  0  0  0  0  0  0  0  0  0  0  0
    0.9326   -0.9835   -2.0233 H   0  0  0  0  0  0  0  0  0  0  0  0
    0.3535    1.0557    0.7452 C   0  0  0  0  0  0  0  0  0  0  0  0
    0.3430    2.1362    0.1559 O   0  0  0  0  0  0  0  0  0  0  0  0
    0.3208    0.9635    2.0806 N   0  0  0  0  0  0  0  0  0  0  0  0
    0.3379    0.0434    2.4908 H   0  0  0  0  0  0  0  0  0  0  0  0
    0.2630    2.1166    2.9778 C   0  0  0  0  0  0  0  0  0  0  0  0
   -0.5949    2.7410    2.7202 H   0  0  0  0  0  0  0  0  0  0  0  0
    0.1692    1.7876    4.0137 H   0  0  0  0  0  0  0  0  0  0  0  0
    1.1704    2.7130    2.8691 H   0  0  0  0  0  0  0  0  0  0  0  0
  5  6  2  0  0  0  0
  5  7  1  0  0  0  0
  2  3  1  0  0  0  0
  2  4  1  0  0  0  0
  2  5  1  0  0  0  0
  1  2  1  0  0  0  0
 15 16  2  0  0  0  0
 15 17  1  0  0  0  0
 11 12  1  0  0  0  0
 11 13  1  0  0  0  0
 11 14  1  0  0  0  0
  9 10  1  0  0  0  0
  9 11  1  0  0  0  0
  9 15  1  0  0  0  0
  7  8  1  0  0  0  0
  7  9  1  0  0  0  0
 19 20  1  0  0  0  0
 19 21  1  0  0  0  0
 19 22  1  0  0  0  0
 17 18  1  0  0  0  0
 17 19  1  0  0  0  0
M  END
$$$$
default_name
  -OEChem-01062215323D

 22 21  0     1  0  0  0  0  0999 V2000
   -2.5423   -3.6749    0.8058 H   0  0  0  0  0  0  0  0  0  0  0  0
   -2.5063   -2.6779    0.3688 C   0  0  0  0  0  0  0  0  0  0  0  0
   -3.1603   -2.0109    0.9268 H   0  0  0  0  0  0  0  0  0  0  0  0
   -2.8193   -2.7229   -0.6722 H   0  0  0  0  0  0  0  0  0  0  0  0
   -1.0873   -2.1629    0.4418 C   0  0  0  0  0  0  0  0  0  0  0  0
   -0.2073   -2.8549    0.9368 O   0  0  0  0  0  0  0  0  0  0  0  0
   -0.8713   -0.9449   -0.0482 N   0  0  0  0  0  0  0  0  0  0  0  0
   -1.6543   -0.4189   -0.4062 H   0  0  0  0  0  0  0  0  0  0  0  0
    0.4237   -0.2649   -0.0462 C   0  0  1  0  0  0  0  0  0  0  0  0
    1.1592   -0.9084    0.4393 H   0  0  0  0  0  0  0  0  0  0  0  0
    0.8651   -0.0288   -1.4988 C   0  0  0  0  0  0  0  0  0  0  0  0
    0.1417    0.6102   -2.0078 H   0  0  0  0  0  0  0  0  0  0  0  0
    1.8431    0.4511   -1.5185 H   0  0  0  0  0  0  0  0  0  0  0  0
    0.9326   -0.9835   -2.0233 H   0  0  0  0  0  0  0  0  0  0  0  0
    0.3535    1.0557    0.7452 C   0  0  0  0  0  0  0  0  0  0  0  0
    0.0681    2.1093    0.1765 O   0  0  0  0  0  0  0  0  0  0  0  0
    0.6294    0.9958    2.0541 N   0  0  0  0  0  0  0  0  0  0  0  0
    0.8601    0.0973    2.4472 H   0  0  0  0  0  0  0  0  0  0  0  0
    0.6170    2.1549    2.9453 C   0  0  0  0  0  0  0  0  0  0  0  0
   -0.3524    2.6538    2.8872 H   0  0  0  0  0  0  0  0  0  0  0  0
    0.7995    1.8443    3.9750 H   0  0  0  0  0  0  0  0  0  0  0  0
    1.3895    2.8624    2.6393 H   0  0  0  0  0  0  0  0  0  0  0  0
  5  6  2  0  0  0  0
  5  7  1  0  0  0  0
  2  3  1  0  0  0  0
  2  4  1  0  0  0  0
  2  5  1  0  0  0  0
  1  2  1  0  0  0  0
 15 16  2  0  0  0  0
 15 17  1  0  0  0  0
 11 12  1  0  0  0  0
 11 13  1  0  0  0  0
 11 14  1  0  0  0  0
  9 10  1  0  0  0  0
  9 11  1  0  0  0  0
  9 15  1  0  0  0  0
  7  8  1  0  0  0  0
  7  9  1  0  0  0  0
 19 20  1  0  0  0  0
 19 21  1  0  0  0  0
 19 22  1  0  0  0  0
 17 18  1  0  0  0  0
 17 19  1  0  0  0  0
M  END
$$$$
default_name
  -OEChem-01062215323D

 22 21  0     1  0  0  0  0  0999 V2000
   -2.5423   -3.6749    0.8058 H   0  0  0  0  0  0  0  0  0  0  0  0
   -2.5063   -2.6779    0.3688 C   0  0  0  0  0  0  0  0  0  0  0  0
   -3.1603   -2.0109    0.9268 H   0  0  0  0  0  0  0  0  0  0  0  0
   -2.8193   -2.7229   -0.6722 H   0  0  0  0  0  0  0  0  0  0  0  0
   -1.0873   -2.1629    0.4418 C   0  0  0  0  0  0  0  0  0  0  0  0
   -0.2073   -2.8549    0.9368 O   0  0  0  0  0  0  0  0  0  0  0  0
   -0.8713   -0.9449   -0.0482 N   0  0  0  0  0  0  0  0  0  0  0  0
   -1.6543   -0.4189   -0.4062 H   0  0  0  0  0  0  0  0  0  0  0  0
    0.4237   -0.2649   -0.0462 C   0  0  1  0  0  0  0  0  0  0  0  0
    1.1592   -0.9084    0.4393 H   0  0  0  0  0  0  0  0  0  0  0  0
    0.8651   -0.0288   -1.4988 C   0  0  0  0  0  0  0  0  0  0  0  0
    0.1417    0.6102   -2.0078 H   0  0  0  0  0  0  0  0  0  0  0  0
    1.8431    0.4511   -1.5185 H   0  0  0  0  0  0  0  0  0  0  0  0
    0.9326   -0.9835   -2.0233 H   0  0  0  0  0  0  0  0  0  0  0  0
    0.3535    1.0557    0.7452 C   0  0  0  0  0  0  0  0  0  0  0  0
   -0.1893    2.0469    0.2576 O   0  0  0  0  0  0  0  0  0  0  0  0
    0.9173    1.0677    1.9597 N   0  0  0  0  0  0  0  0  0  0  0  0
    1.3476    0.2182    2.2887 H   0  0  0  0  0  0  0  0  0  0  0  0
    0.9467    2.2385    2.8350 C   0  0  0  0  0  0  0  0  0  0  0  0
   -0.0696    2.6038    2.9957 H   0  0  0  0  0  0  0  0  0  0  0  0
    1.3922    1.9823    3.7973 H   0  0  0  0  0  0  0  0  0  0  0  0
    1.5303    3.0331    2.3670 H   0  0  0  0  0  0  0  0  0  0  0  0
  5  6  2  0  0  0  0
  5  7  1  0  0  0  0
  2  3  1  0  0  0  0
  2  4  1  0  0  0  0
  2  5  1  0  0  0  0
  1  2  1  0  0  0  0
 15 16  2  0  0  0  0
 15 17  1  0  0  0  0
 11 12  1  0  0  0  0
 11 13  1  0  0  0  0
 11 14  1  0  0  0  0
  9 10  1  0  0  0  0
  9 11  1  0  0  0  0
  9 15  1  0  0  0  0
  7  8  1  0  0  0  0
  7  9  1  0  0  0  0
 19 20  1  0  0  0  0
 19 21  1  0  0  0  0
 19 22  1  0  0  0  0
 17 18  1  0  0  0  0
 17 19  1  0  0  0  0
M  END
$$$$
default_name
  -OEChem-01062215323D

 22 21  0     1  0  0  0  0  0999 V2000
   -2.5423   -3.6749    0.8058 H   0  0  0  0  0  0  0  0  0  0  0  0
   -2.5063   -2.6779    0.3688 C   0  0  0  0  0  0  0  0  0  0  0  0
   -3.1603   -2.0109    0.9268 H   0  0  0  0  0  0  0  0  0  0  0  0
   -2.8193   -2.7229   -0.6722 H   0  0  0  0  0  0  0  0  0  0  0  0
   -1.0873   -2.1629    0.4418 C   0  0  0  0  0  0  0  0  0  0  0  0
   -0.2073   -2.8549    0.9368 O   0  0  0  0  0  0  0  0  0  0  0  0
   -0.8713   -0.9449   -0.0482 N   0  0  0  0  0  0  0  0  0  0  0  0
   -1.6543   -0.4189   -0.4062 H   0  0  0  0  0  0  0  0  0  0  0  0
    0.4237   -0.2649   -0.0462 C   0  0  1  0  0  0  0  0  0  0  0  0
    1.1592   -0.9084    0.4393 H   0  0  0  0  0  0  0  0  0  0  0  0
    0.8651   -0.0288   -1.4988 C   0  0  0  0  0  0  0  0  0  0  0  0
    0.1417    0.6102   -2.0078 H   0  0  0  0  0  0  0  0  0  0  0  0
    1.8431    0.4511   -1.5185 H   0  0  0  0  0  0  0  0  0  0  0  0
    0.9326   -0.9835   -2.0233 H   0  0  0  0  0  0  0  0  0  0  0  0
    0.3535    1.0557    0.7452 C   0  0  0  0  0  0  0  0  0  0  0  0
   -0.4116    1.9535    0.3939 O   0  0  0  0  0  0  0  0  0  0  0  0
    1.1649    1.1743    1.8037 N   0  0  0  0  0  0  0  0  0  0  0  0
    1.7674    0.3979    2.0260 H   0  0  0  0  0  0  0  0  0  0  0  0
    1.2296    2.3618    2.6543 C   0  0  0  0  0  0  0  0  0  0  0  0
    0.2343    2.5944    3.0383 H   0  0  0  0  0  0  0  0  0  0  0  0
    1.9070    2.1923    3.4925 H   0  0  0  0  0  0  0  0  0  0  0  0
    1.5833    3.2134    2.0707 H   0  0  0  0  0  0  0  0  0  0  0  0
  5  6  2  0  0  0  0
  5  7  1  0  0  0  0
  2  3  1  0  0  0  0
  2  4  1  0  0  0  0
  2  5  1  0  0  0  0
  1  2  1  0  0  0  0
 15 16  2  0  0  0  0
 15 17  1  0  0  0  0
 11 12  1  0  0  0  0
 11 13  1  0  0  0  0
 11 14  1  0  0  0  0
  9 10  1  0  0  0  0
  9 11  1  0  0  0  0
  9 15  1  0  0  0  0
  7  8  1  0  0  0  0
  7  9  1  0  0  0  0
 19 20  1  0  0  0  0
 19 21  1  0  0  0  0
 19 22  1  0  0  0  0
 17 18  1  0  0  0  0
 17 19  1  0  0  0  0
M  END
$$$$
default_name
  -OEChem-01062215323D

 22 21  0     1  0  0  0  0  0999 V2000
   -2.5423   -3.6749    0.8058 H   0  0  0  0  0  0  0  0  0  0  0  0
   -2.5063   -2.6779    0.3688 C   0  0  0  0  0  0  0  0  0  0  0  0
   -3.1603   -2.0109    0.9268 H   0  0  0  0  0  0  0  0  0  0  0  0
   -2.8193   -2.7229   -0.6722 H   0  0  0  0  0  0  0  0  0  0  0  0
   -1.0873   -2.1629    0.4418 C   0  0  0  0  0  0  0  0  0  0  0  0
   -0.2073   -2.8549    0.9368 O   0  0  0  0  0  0  0  0  0  0  0  0
   -0.8713   -0.9449   -0.0482 N   0  0  0  0  0  0  0  0  0  0  0  0
   -1.6543   -0.4189   -0.4062 H   0  0  0  0  0  0  0  0  0  0  0  0
    0.4237   -0.2649   -0.0462 C   0  0  1  0  0  0  0  0  0  0  0  0
    1.1592   -0.9084    0.4393 H   0  0  0  0  0  0  0  0  0  0  0  0
    0.8651   -0.0288   -1.4988 C   0  0  0  0  0  0  0  0  0  0  0  0
    0.1417    0.6102   -2.0078 H   0  0  0  0  0  0  0  0  0  0  0  0
    1.8431    0.4511   -1.5185 H   0  0  0  0  0  0  0  0  0  0  0  0
    0.9326   -0.9835   -2.0233 H   0  0  0  0  0  0  0  0  0  0  0  0
    0.3535    1.0557    0.7452 C   0  0  0  0  0  0  0  0  0  0  0  0
   -0.5838    1.8353    0.5759 O   0  0  0  0  0  0  0  0  0  0  0  0
    1.3554    1.3083    1.5970 N   0  0  0  0  0  0  0  0  0  0  0  0
    2.0906    0.6242    1.6771 H   0  0  0  0  0  0  0  0  0  0  0  0
    1.4463    2.5164    2.4156 C   0  0  0  0  0  0  0  0  0  0  0  0
    0.5386    2.6262    3.0123 H   0  0  0  0  0  0  0  0  0  0  0  0
    2.3087    2.4600    3.0814 H   0  0  0  0  0  0  0  0  0  0  0  0
    1.5448    3.3912    1.7706 H   0  0  0  0  0  0  0  0  0  0  0  0
  5  6  2  0  0  0  0
  5  7  1  0  0  0  0
  2  3  1  0  0  0  0
  2  4  1  0  0  0  0
  2  5  1  0  0  0  0
  1  2  1  0  0  0  0
 15 16  2  0  0  0  0
 15 17  1  0  0  0  0
 11 12  1  0  0  0  0
 11 13  1  0  0  0  0
 11 14  1  0  0  0  0
  9 10  1  0  0  0  0
  9 11  1  0  0  0  0
  9 15  1  0  0  0  0
  7  8  1  0  0  0  0
  7  9  1  0  0  0  0
 19 20  1  0  0  0  0
 19 21  1  0  0  0  0
 19 22  1  0  0  0  0
 17 18  1  0  0  0  0
 17 19  1  0  0  0  0
M  END
$$$$
default_name
  -OEChem-01062215323D

 22 21  0     1  0  0  0  0  0999 V2000
   -2.5423   -3.6749    0.8058 H   0  0  0  0  0  0  0  0  0  0  0  0
   -2.5063   -2.6779    0.3688 C   0  0  0  0  0  0  0  0  0  0  0  0
   -3.1603   -2.0109    0.9268 H   0  0  0  0  0  0  0  0  0  0  0  0
   -2.8193   -2.7229   -0.6722 H   0  0  0  0  0  0  0  0  0  0  0  0
   -1.0873   -2.1629    0.4418 C   0  0  0  0  0  0  0  0  0  0  0  0
   -0.2073   -2.8549    0.9368 O   0  0  0  0  0  0  0  0  0  0  0  0
   -0.8713   -0.9449   -0.0482 N   0  0  0  0  0  0  0  0  0  0  0  0
   -1.6543   -0.4189   -0.4062 H   0  0  0  0  0  0  0  0  0  0  0  0
    0.4237   -0.2649   -0.0462 C   0  0  1  0  0  0  0  0  0  0  0  0
    1.1592   -0.9084    0.4393 H   0  0  0  0  0  0  0  0  0  0  0  0
    0.8651   -0.0288   -1.4988 C   0  0  0  0  0  0  0  0  0  0  0  0
    0.1417    0.6102   -2.0078 H   0  0  0  0  0  0  0  0  0  0  0  0
    1.8431    0.4511   -1.5185 H   0  0  0  0  0  0  0  0  0  0  0  0
    0.9326   -0.9835   -2.0233 H   0  0  0  0  0  0  0  0  0  0  0  0
    0.3535    1.0557    0.7452 C   0  0  0  0  0  0  0  0  0  0  0  0
   -0.6939    1.7003    0.7912 O   0  0  0  0  0  0  0  0  0  0  0  0
    1.4756    1.4606    1.3534 N   0  0  0  0  0  0  0  0  0  0  0  0
    2.2954    0.8816    1.2657 H   0  0  0  0  0  0  0  0  0  0  0  0
    1.5822    2.6917    2.1352 C   0  0  0  0  0  0  0  0  0  0  0  0
    0.8225    2.6970    2.9192 H   0  0  0  0  0  0  0  0  0  0  0  0
    2.5700    2.7671    2.5921 H   0  0  0  0  0  0  0  0  0  0  0  0
    1.4174    3.5542    1.4872 H   0  0  0  0  0  0  0  0  0  0  0  0
  5  6  2  0  0  0  0
  5  7  1  0  0  0  0
  2  3  1  0  0  0  0
  2  4  1  0  0  0  0
  2  5  1  0  0  0  0
  1  2  1  0  0  0  0
 15 16  2  0  0  0  0
 15 17  1  0  0  0  0
 11 12  1  0  0  0  0
 11 13  1  0  0  0  0
 11 14  1  0  0  0  0
  9 10  1  0  0  0  0
  9 11  1  0  0  0  0
  9 15  1  0  0  0  0
  7  8  1  0  0  0  0
  7  9  1  0  0  0  0
 19 20  1  0  0  0  0
 19 21  1  0  0  0  0
 19 22  1  0  0  0  0
 17 18  1  0  0  0  0
 17 19  1  0  0  0  0
M  END
$$$$
default_name
  -OEChem-01062215323D

 22 21  0     1  0  0  0  0  0999 V2000
   -2.5423   -3.6749    0.8058 H   0  0  0  0  0  0  0  0  0  0  0  0
   -2.5063   -2.6779    0.3688 C   0  0  0  0  0  0  0  0  0  0  0  0
   -3.1603   -2.0109    0.9268 H   0  0  0  0  0  0  0  0  0  0  0  0
   -2.8193   -2.7229   -0.6722 H   0  0  0  0  0  0  0  0  0  0  0  0
   -1.0873   -2.1629    0.4418 C   0  0  0  0  0  0  0  0  0  0  0  0
   -0.2073   -2.8549    0.9368 O   0  0  0  0  0  0  0  0  0  0  0  0
   -0.8713   -0.9449   -0.0482 N   0  0  0  0  0  0  0  0  0  0  0  0
   -1.6543   -0.4189   -0.4062 H   0  0  0  0  0  0  0  0  0  0  0  0
    0.4237   -0.2649   -0.0462 C   0  0  1  0  0  0  0  0  0  0  0  0
    1.1592   -0.9084    0.4393 H   0  0  0  0  0  0  0  0  0  0  0  0
    0.8651   -0.0288   -1.4988 C   0  0  0  0  0  0  0  0  0  0  0  0
    0.1417    0.6102   -2.0078 H   0  0  0  0  0  0  0  0  0  0  0  0
    1.8431    0.4511   -1.5185 H   0  0  0  0  0  0  0  0  0  0  0  0
    0.9326   -0.9835   -2.0233 H   0  0  0  0  0  0  0  0  0  0  0  0
    0.3535    1.0557    0.7452 C   0  0  0  0  0  0  0  0  0  0  0  0
   -0.7347    1.5579    1.0253 O   0  0  0  0  0  0  0  0  0  0  0  0
    1.5175    1.6209    1.0897 N   0  0  0  0  0  0  0  0  0  0  0  0
    2.3678    1.1526    0.8199 H   0  0  0  0  0  0  0  0  0  0  0  0
    1.6280    2.8757    1.8320 C   0  0  0  0  0  0  0  0  0  0  0  0
    1.0666    2.8021    2.7656 H   0  0  0  0  0  0  0  0  0  0  0  0
    2.6730    3.0927    2.0580 H   0  0  0  0  0  0  0  0  0  0  0  0
    1.2098    3.6915    1.2398 H   0  0  0  0  0  0  0  0  0  0  0  0
  5  6  2  0  0  0  0
  5  7  1  0  0  0  0
  2  3  1  0  0  0  0
  2  4  1  0  0  0  0
  2  5  1  0  0  0  0
  1  2  1  0  0  0  0
 15 16  2  0  0  0  0
 15 17  1  0  0  0  0
 11 12  1  0  0  0  0
 11 13  1  0  0  0  0
 11 14  1  0  0  0  0
  9 10  1  0  0  0  0
  9 11  1  0  0  0  0
  9 15  1  0  0  0  0
  7  8  1  0  0  0  0
  7  9  1  0  0  0  0
 19 20  1  0  0  0  0
 19 21  1  0  0  0  0
 19 22  1  0  0  0  0
 17 18  1  0  0  0  0
 17 19  1  0  0  0  0
M  END
$$$$
default_name
  -OEChem-01062215323D

 22 21  0     1  0  0  0  0  0999 V2000
   -2.5423   -3.6749    0.8058 H   0  0  0  0  0  0  0  0  0  0  0  0
   -2.5063   -2.6779    0.3688 C   0  0  0  0  0  0  0  0  0  0  0  0
   -3.1603   -2.0109    0.9268 H   0  0  0  0  0  0  0  0  0  0  0  0
   -2.8193   -2.7229   -0.6722 H   0  0  0  0  0  0  0  0  0  0  0  0
   -1.0873   -2.1629    0.4418 C   0  0  0  0  0  0  0  0  0  0  0  0
   -0.2073   -2.8549    0.9368 O   0  0  0  0  0  0  0  0  0  0  0  0
   -0.8713   -0.9449   -0.0482 N   0  0  0  0  0  0  0  0  0  0  0  0
   -1.6543   -0.4189   -0.4062 H   0  0  0  0  0  0  0  0  0  0  0  0
    0.4237   -0.2649   -0.0462 C   0  0  1  0  0  0  0  0  0  0  0  0
    1.2034   -0.9919    0.1869 H   0  0  0  0  0  0  0  0  0  0  0  0
    0.6903    0.3040   -1.4483 C   0  0  0  0  0  0  0  0  0  0  0  0
   -0.0804    1.0322   -1.7064 H   0  0  0  0  0  0  0  0  0  0  0  0
    1.6652    0.7897   -1.4749 H   0  0  0  0  0  0  0  0  0  0  0  0
    0.6810   -0.5040   -2.1818 H   0  0  0  0  0  0  0  0  0  0  0  0
    0.4674    0.8381    1.0293 C   0  0  0  0  0  0  0  0  0  0  0  0
   -0.5144    1.0568    1.7386 O   0  0  0  0  0  0  0  0  0  0  0  0
    1.6031    1.5394    1.1355 N   0  0  0  0  0  0  0  0  0  0  0  0
    2.3621    1.3055    0.5156 H   0  0  0  0  0  0  0  0  0  0  0  0
    1.8068    2.6235    2.0952 C   0  0  0  0  0  0  0  0  0  0  0  0
    1.6060    2.2632    3.1061 H   0  0  0  0  0  0  0  0  0  0  0  0
    2.8330    2.9900    2.0422 H   0  0  0  0  0  0  0  0  0  0  0  0
    1.1193    3.4424    1.8765 H   0  0  0  0  0  0  0  0  0  0  0  0
  5  6  2  0  0  0  0
  5  7  1  0  0  0  0
  2  3  1  0  0  0  0
  2  4  1  0  0  0  0
  2  5  1  0  0  0  0
  1  2  1  0  0  0  0
 15 16  2  0  0  0  0
 15 17  1  0  0  0  0
 11 12  1  0  0  0  0
 11 13  1  0  0  0  0
 11 14  1  0  0  0  0
  9 10  1  0  0  0  0
  9 11  1  0  0  0  0
  9 15  1  0  0  0  0
  7  8  1  0  0  0  0
  7  9  1  0  0  0  0
 19 20  1  0  0  0  0
 19 21  1  0  0  0  0
 19 22  1  0  0  0  0
 17 18  1  0  0  0  0
 17 19  1  0  0  0  0
M  END
$$$$
default_name
  -OEChem-01062215323D

 22 21  0     1  0  0  0  0  0999 V2000
   -2.5423   -3.6749    0.8058 H   0  0  0  0  0  0  0  0  0  0  0  0
   -2.5063   -2.6779    0.3688 C   0  0  0  0  0  0  0  0  0  0  0  0
   -3.1603   -2.0109    0.9268 H   0  0  0  0  0  0  0  0  0  0  0  0
   -2.8193   -2.7229   -0.6722 H   0  0  0  0  0  0  0  0  0  0  0  0
   -1.0873   -2.1629    0.4418 C   0  0  0  0  0  0  0  0  0  0  0  0
   -0.2073   -2.8549    0.9368 O   0  0  0  0  0  0  0  0  0  0  0  0
   -0.8713   -0.9449   -0.0482 N   0  0  0  0  0  0  0  0  0  0  0  0
   -1.6543   -0.4189   -0.4062 H   0  0  0  0  0  0  0  0  0  0  0  0
    0.4237   -0.2649   -0.0462 C   0  0  1  0  0  0  0  0  0  0  0  0
    1.2034   -0.9919    0.1869 H   0  0  0  0  0  0  0  0  0  0  0  0
    0.6903    0.3040   -1.4483 C   0  0  0  0  0  0  0  0  0  0  0  0
   -0.0804    1.0322   -1.7064 H   0  0  0  0  0  0  0  0  0  0  0  0
    1.6652    0.7897   -1.4749 H   0  0  0  0  0  0  0  0  0  0  0  0
    0.6810   -0.5040   -2.1818 H   0  0  0  0  0  0  0  0  0  0  0  0
    0.4674    0.8381    1.0293 C   0  0  0  0  0  0  0  0  0  0  0  0
   -0.3885    0.8820    1.9128 O   0  0  0  0  0  0  0  0  0  0  0  0
    1.4580    1.7347    0.9411 N   0  0  0  0  0  0  0  0  0  0  0  0
    2.1180    1.6362    0.1863 H   0  0  0  0  0  0  0  0  0  0  0  0
    1.6381    2.8470    1.8729 C   0  0  0  0  0  0  0  0  0  0  0  0
    1.6969    2.4660    2.8944 H   0  0  0  0  0  0  0  0  0  0  0  0
    2.5536    3.3929    1.6403 H   0  0  0  0  0  0  0  0  0  0  0  0
    0.7860    3.5255    1.8048 H   0  0  0  0  0  0  0  0  0  0  0  0
  5  6  2  0  0  0  0
  5  7  1  0  0  0  0
  2  3  1  0  0  0  0
  2  4  1  0  0  0  0
  2  5  1  0  0  0  0
  1  2  1  0  0  0  0
 15 16  2  0  0  0  0
 15 17  1  0  0  0  0
 11 12  1  0  0  0  0
 11 13  1  0  0  0  0
 11 14  1  0  0  0  0
  9 10  1  0  0  0  0
  9 11  1  0  0  0  0
  9 15  1  0  0  0  0
  7  8  1  0  0  0  0
  7  9  1  0  0  0  0
 19 20  1  0  0  0  0
 19 21  1  0  0  0  0
 19 22  1  0  0  0  0
 17 18  1  0  0  0  0
 17 19  1  0  0  0  0
M  END
$$$$
default_name
  -OEChem-01062215323D

 22 21  0     1  0  0  0  0  0999 V2000
   -2.5423   -3.6749    0.8058 H   0  0  0  0  0  0  0  0  0  0  0  0
   -2.5063   -2.6779    0.3688 C   0  0  0  0  0  0  0  0  0  0  0  0
   -3.1603   -2.0109    0.9268 H   0  0  0  0  0  0  0  0  0  0  0  0
   -2.8193   -2.7229   -0.6722 H   0  0  0  0  0  0  0  0  0  0  0  0
   -1.0873   -2.1629    0.4418 C   0  0  0  0  0  0  0  0  0  0  0  0
   -0.2073   -2.8549    0.9368 O   0  0  0  0  0  0  0  0  0  0  0  0
   -0.8713   -0.9449   -0.0482 N   0  0  0  0  0  0  0  0  0  0  0  0
   -1.6543   -0.4189   -0.4062 H   0  0  0  0  0  0  0  0  0  0  0  0
    0.4237   -0.2649   -0.0462 C   0  0  1  0  0  0  0  0  0  0  0  0
    1.2034   -0.9919    0.1869 H   0  0  0  0  0  0  0  0  0  0  0  0
    0.6903    0.3040   -1.4483 C   0  0  0  0  0  0  0  0  0  0  0  0
   -0.0804    1.0322   -1.7064 H   0  0  0  0  0  0  0  0  0  0  0  0
    1.6652    0.7897   -1.4749 H   0  0  0  0  0  0  0  0  0  0  0  0
    0.6810   -0.5040   -2.1818 H   0  0  0  0  0  0  0  0  0  0  0  0
    0.4674    0.8381    1.0293 C   0  0  0  0  0  0  0  0  0  0  0  0
   -0.2030    0.7347    2.0563 O   0  0  0  0  0  0  0  0  0  0  0  0
    1.2466    1.8986    0.7817 N   0  0  0  0  0  0  0  0  0  0  0  0
    1.7614    1.9141   -0.0842 H   0  0  0  0  0  0  0  0  0  0  0  0
    1.3936    3.0341    1.6909 C   0  0  0  0  0  0  0  0  0  0  0  0
    1.7088    2.6800    2.6745 H   0  0  0  0  0  0  0  0  0  0  0  0
    2.1365    3.7346    1.3068 H   0  0  0  0  0  0  0  0  0  0  0  0
    0.4358    3.5461    1.7979 H   0  0  0  0  0  0  0  0  0  0  0  0
  5  6  2  0  0  0  0
  5  7  1  0  0  0  0
  2  3  1  0  0  0  0
  2  4  1  0  0  0  0
  2  5  1  0  0  0  0
  1  2  1  0  0  0  0
 15 16  2  0  0  0  0
 15 17  1  0  0  0  0
 11 12  1  0  0  0  0
 11 13  1  0  0  0  0
 11 14  1  0  0  0  0
  9 10  1  0  0  0  0
  9 11  1  0  0  0  0
  9 15  1  0  0  0  0
  7  8  1  0  0  0  0
  7  9  1  0  0  0  0
 19 20  1  0  0  0  0
 19 21  1  0  0  0  0
 19 22  1  0  0  0  0
 17 18  1  0  0  0  0
 17 19  1  0  0  0  0
M  END
$$$$
default_name
  -OEChem-01062215323D

 22 21  0     1  0  0  0  0  0999 V2000
   -2.5423   -3.6749    0.8058 H   0  0  0  0  0  0  0  0  0  0  0  0
   -2.5063   -2.6779    0.3688 C   0  0  0  0  0  0  0  0  0  0  0  0
   -3.1603   -2.0109    0.9268 H   0  0  0  0  0  0  0  0  0  0  0  0
   -2.8193   -2.7229   -0.6722 H   0  0  0  0  0  0  0  0  0  0  0  0
   -1.0873   -2.1629    0.4418 C   0  0  0  0  0  0  0  0  0  0  0  0
   -0.2073   -2.8549    0.9368 O   0  0  0  0  0  0  0  0  0  0  0  0
   -0.8713   -0.9449   -0.0482 N   0  0  0  0  0  0  0  0  0  0  0  0
   -1.6543   -0.4189   -0.4062 H   0  0  0  0  0  0  0  0  0  0  0  0
    0.4237   -0.2649   -0.0462 C   0  0  1  0  0  0  0  0  0  0  0  0
    1.2034   -0.9919    0.1869 H   0  0  0  0  0  0  0  0  0  0  0  0
    0.6903    0.3040   -1.4483 C   0  0  0  0  0  0  0  0  0  0  0  0
   -0.0804    1.0322   -1.7064 H   0  0  0  0  0  0  0  0  0  0  0  0
    1.6652    0.7897   -1.4749 H   0  0  0  0  0  0  0  0  0  0  0  0
    0.6810   -0.5040   -2.1818 H   0  0  0  0  0  0  0  0  0  0  0  0
    0.4674    0.8381    1.0293 C   0  0  0  0  0  0  0  0  0  0  0  0
    0.0294    0.6248    2.1596 O   0  0  0  0  0  0  0  0  0  0  0  0
    0.9832    2.0198    0.6680 N   0  0  0  0  0  0  0  0  0  0  0  0
    1.3168    2.1200   -0.2773 H   0  0  0  0  0  0  0  0  0  0  0  0
    1.0900    3.1719    1.5619 C   0  0  0  0  0  0  0  0  0  0  0  0
    1.6410    2.8904    2.4614 H   0  0  0  0  0  0  0  0  0  0  0  0
    1.6101    3.9918    1.0644 H   0  0  0  0  0  0  0  0  0  0  0  0
    0.0925    3.5028    1.8562 H   0  0  0  0  0  0  0  0  0  0  0  0
  5  6  2  0  0  0  0
  5  7  1  0  0  0  0
  2  3  1  0  0  0  0
  2  4  1  0  0  0  0
  2  5  1  0  0  0  0
  1  2  1  0  0  0  0
 15 16  2  0  0  0  0
 15 17  1  0  0  0  0
 11 12  1  0  0  0  0
 11 13  1  0  0  0  0
 11 14  1  0  0  0  0
  9 10  1  0  0  0  0
  9 11  1  0  0  0  0
  9 15  1  0  0  0  0
  7  8  1  0  0  0  0
  7  9  1  0  0  0  0
 19 20  1  0  0  0  0
 19 21  1  0  0  0  0
 19 22  1  0  0  0  0
 17 18  1  0  0  0  0
 17 19  1  0  0  0  0
M  END
$$$$
default_name
  -OEChem-01062215323D

 22 21  0     1  0  0  0  0  0999 V2000
   -2.5423   -3.6749    0.8058 H   0  0  0  0  0  0  0  0  0  0  0  0
   -2.5063   -2.6779    0.3688 C   0  0  0  0  0  0  0  0  0  0  0  0
   -3.1603   -2.0109    0.9268 H   0  0  0  0  0  0  0  0  0  0  0  0
   -2.8193   -2.7229   -0.6722 H   0  0  0  0  0  0  0  0  0  0  0  0
   -1.0873   -2.1629    0.4418 C   0  0  0  0  0  0  0  0  0  0  0  0
   -0.2073   -2.8549    0.9368 O   0  0  0  0  0  0  0  0  0  0  0  0
   -0.8713   -0.9449   -0.0482 N   0  0  0  0  0  0  0  0  0  0  0  0
   -1.6543   -0.4189   -0.4062 H   0  0  0  0  0  0  0  0  0  0  0  0
    0.4237   -0.2649   -0.0462 C   0  0  1  0  0  0  0  0  0  0  0  0
    1.2034   -0.9919    0.1869 H   0  0  0  0  0  0  0  0  0  0  0  0
    0.6903    0.3040   -1.4483 C   0  0  0  0  0  0  0  0  0  0  0  0
   -0.0804    1.0322   -1.7064 H   0  0  0  0  0  0  0  0  0  0  0  0
    1.6652    0.7897   -1.4749 H   0  0  0  0  0  0  0  0  0  0  0  0
    0.6810   -0.5040   -2.1818 H   0  0  0  0  0  0  0  0  0  0  0  0
    0.4674    0.8381    1.0293 C   0  0  0  0  0  0  0  0  0  0  0  0
    0.2928    0.5599    2.2155 O   0  0  0  0  0  0  0  0  0  0  0  0
    0.6858    2.0902    0.6079 N   0  0  0  0  0  0  0  0  0  0  0  0
    0.8143    2.2401   -0.3801 H   0  0  0  0  0  0  0  0  0  0  0  0
    0.7479    3.2512    1.4945 C   0  0  0  0  0  0  0  0  0  0  0  0
    1.4981    3.0830    2.2697 H   0  0  0  0  0  0  0  0  0  0  0  0
    1.0103    4.1469    0.9297 H   0  0  0  0  0  0  0  0  0  0  0  0
   -0.2205    3.3986    1.9758 H   0  0  0  0  0  0  0  0  0  0  0  0
  5  6  2  0  0  0  0
  5  7  1  0  0  0  0
  2  3  1  0  0  0  0
  2  4  1  0  0  0  0
  2  5  1  0  0  0  0
  1  2  1  0  0  0  0
 15 16  2  0  0  0  0
 15 17  1  0  0  0  0
 11 12  1  0  0  0  0
 11 13  1  0  0  0  0
 11 14  1  0  0  0  0
  9 10  1  0  0  0  0
  9 11  1  0  0  0  0
  9 15  1  0  0  0  0
  7  8  1  0  0  0  0
  7  9  1  0  0  0  0
 19 20  1  0  0  0  0
 19 21  1  0  0  0  0
 19 22  1  0  0  0  0
 17 18  1  0  0  0  0
 17 19  1  0  0  0  0
M  END
$$$$
default_name
  -OEChem-01062215323D

 22 21  0     1  0  0  0  0  0999 V2000
   -2.5423   -3.6749    0.8058 H   0  0  0  0  0  0  0  0  0  0  0  0
   -2.5063   -2.6779    0.3688 C   0  0  0  0  0  0  0  0  0  0  0  0
   -3.1603   -2.0109    0.9268 H   0  0  0  0  0  0  0  0  0  0  0  0
   -2.8193   -2.7229   -0.6722 H   0  0  0  0  0  0  0  0  0  0  0  0
   -1.0873   -2.1629    0.4418 C   0  0  0  0  0  0  0  0  0  0  0  0
   -0.2073   -2.8549    0.9368 O   0  0  0  0  0  0  0  0  0  0  0  0
   -0.8713   -0.9449   -0.0482 N   0  0  0  0  0  0  0  0  0  0  0  0
   -1.6543   -0.4189   -0.4062 H   0  0  0  0  0  0  0  0  0  0  0  0
    0.4237   -0.2649   -0.0462 C   0  0  1  0  0  0  0  0  0  0  0  0
    1.2034   -0.9919    0.1869 H   0  0  0  0  0  0  0  0  0  0  0  0
    0.6903    0.3040   -1.4483 C   0  0  0  0  0  0  0  0  0  0  0  0
   -0.0804    1.0322   -1.7064 H   0  0  0  0  0  0  0  0  0  0  0  0
    1.6652    0.7897   -1.4749 H   0  0  0  0  0  0  0  0  0  0  0  0
    0.6810   -0.5040   -2.1818 H   0  0  0  0  0  0  0  0  0  0  0  0
    0.4674    0.8381    1.0293 C   0  0  0  0  0  0  0  0  0  0  0  0
    0.5693    0.5444    2.2202 O   0  0  0  0  0  0  0  0  0  0  0  0
    0.3748    2.1049    0.6054 N   0  0  0  0  0  0  0  0  0  0  0  0
    0.2882    2.2660   -0.3853 H   0  0  0  0  0  0  0  0  0  0  0  0
    0.3906    3.2665    1.4933 C   0  0  0  0  0  0  0  0  0  0  0  0
    1.2897    3.2445    2.1125 H   0  0  0  0  0  0  0  0  0  0  0  0
    0.3779    4.1894    0.9118 H   0  0  0  0  0  0  0  0  0  0  0  0
   -0.4818    3.2405    2.1485 H   0  0  0  0  0  0  0  0  0  0  0  0
  5  6  2  0  0  0  0
  5  7  1  0  0  0  0
  2  3  1  0  0  0  0
  2  4  1  0  0  0  0
  2  5  1  0  0  0  0
  1  2  1  0  0  0  0
 15 16  2  0  0  0  0
 15 17  1  0  0  0  0
 11 12  1  0  0  0  0
 11 13  1  0  0  0  0
 11 14  1  0  0  0  0
  9 10  1  0  0  0  0
  9 11  1  0  0  0  0
  9 15  1  0  0  0  0
  7  8  1  0  0  0  0
  7  9  1  0  0  0  0
 19 20  1  0  0  0  0
 19 21  1  0  0  0  0
 19 22  1  0  0  0  0
 17 18  1  0  0  0  0
 17 19  1  0  0  0  0
M  END
$$$$
default_name
  -OEChem-01062215323D

 22 21  0     1  0  0  0  0  0999 V2000
   -2.5423   -3.6749    0.8058 H   0  0  0  0  0  0  0  0  0  0  0  0
   -2.5063   -2.6779    0.3688 C   0  0  0  0  0  0  0  0  0  0  0  0
   -3.1603   -2.0109    0.9268 H   0  0  0  0  0  0  0  0  0  0  0  0
   -2.8193   -2.7229   -0.6722 H   0  0  0  0  0  0  0  0  0  0  0  0
   -1.0873   -2.1629    0.4418 C   0  0  0  0  0  0  0  0  0  0  0  0
   -0.2073   -2.8549    0.9368 O   0  0  0  0  0  0  0  0  0  0  0  0
   -0.8713   -0.9449   -0.0482 N   0  0  0  0  0  0  0  0  0  0  0  0
   -1.6543   -0.4189   -0.4062 H   0  0  0  0  0  0  0  0  0  0  0  0
    0.4237   -0.2649   -0.0462 C   0  0  1  0  0  0  0  0  0  0  0  0
    1.2034   -0.9919    0.1869 H   0  0  0  0  0  0  0  0  0  0  0  0
    0.6903    0.3040   -1.4483 C   0  0  0  0  0  0  0  0  0  0  0  0
   -0.0804    1.0322   -1.7064 H   0  0  0  0  0  0  0  0  0  0  0  0
    1.6652    0.7897   -1.4749 H   0  0  0  0  0  0  0  0  0  0  0  0
    0.6810   -0.5040   -2.1818 H   0  0  0  0  0  0  0  0  0  0  0  0
    0.4674    0.8381    1.0293 C   0  0  0  0  0  0  0  0  0  0  0  0
    0.8401    0.5793    2.1734 O   0  0  0  0  0  0  0  0  0  0  0  0
    0.0712    2.0630    0.6607 N   0  0  0  0  0  0  0  0  0  0  0  0
   -0.2256    2.1961   -0.2928 H   0  0  0  0  0  0  0  0  0  0  0  0
    0.0426    3.2167    1.5585 C   0  0  0  0  0  0  0  0  0  0  0  0
    1.0301    3.3641    2.0004 H   0  0  0  0  0  0  0  0  0  0  0  0
   -0.2439    4.1163    1.0119 H   0  0  0  0  0  0  0  0  0  0  0  0
   -0.6737    3.0393    2.3626 H   0  0  0  0  0  0  0  0  0  0  0  0
  5  6  2  0  0  0  0
  5  7  1  0  0  0  0
  2  3  1  0  0  0  0
  2  4  1  0  0  0  0
  2  5  1  0  0  0  0
  1  2  1  0  0  0  0
 15 16  2  0  0  0  0
 15 17  1  0  0  0  0
 11 12  1  0  0  0  0
 11 13  1  0  0  0  0
 11 14  1  0  0  0  0
  9 10  1  0  0  0  0
  9 11  1  0  0  0  0
  9 15  1  0  0  0  0
  7  8  1  0  0  0  0
  7  9  1  0  0  0  0
 19 20  1  0  0  0  0
 19 21  1  0  0  0  0
 19 22  1  0  0  0  0
 17 18  1  0  0  0  0
 17 19  1  0  0  0  0
M  END
$$$$
default_name
  -OEChem-01062215323D

 22 21  0     1  0  0  0  0  0999 V2000
   -2.5423   -3.6749    0.8058 H   0  0  0  0  0  0  0  0  0  0  0  0
   -2.5063   -2.6779    0.3688 C   0  0  0  0  0  0  0  0  0  0  0  0
   -3.1603   -2.0109    0.9268 H   0  0  0  0  0  0  0  0  0  0  0  0
   -2.8193   -2.7229   -0.6722 H   0  0  0  0  0  0  0  0  0  0  0  0
   -1.0873   -2.1629    0.4418 C   0  0  0  0  0  0  0  0  0  0  0  0
   -0.2073   -2.8549    0.9368 O   0  0  0  0  0  0  0  0  0  0  0  0
   -0.8713   -0.9449   -0.0482 N   0  0  0  0  0  0  0  0  0  0  0  0
   -1.6543   -0.4189   -0.4062 H   0  0  0  0  0  0  0  0  0  0  0  0
    0.4237   -0.2649   -0.0462 C   0  0  1  0  0  0  0  0  0  0  0  0
    1.2034   -0.9919    0.1869 H   0  0  0  0  0  0  0  0  0  0  0  0
    0.6903    0.3040   -1.4483 C   0  0  0  0  0  0  0  0  0  0  0  0
   -0.0804    1.0322   -1.7064 H   0  0  0  0  0  0  0  0  0  0  0  0
    1.6652    0.7897   -1.4749 H   0  0  0  0  0  0  0  0  0  0  0  0
    0.6810   -0.5040   -2.1818 H   0  0  0  0  0  0  0  0  0  0  0  0
    0.4674    0.8381    1.0293 C   0  0  0  0  0  0  0  0  0  0  0  0
    1.0866    0.6623    2.0783 O   0  0  0  0  0  0  0  0  0  0  0  0
   -0.2042    1.9672    0.7701 N   0  0  0  0  0  0  0  0  0  0  0  0
   -0.6921    2.0351   -0.1087 H   0  0  0  0  0  0  0  0  0  0  0  0
   -0.2725    3.1053    1.6855 C   0  0  0  0  0  0  0  0  0  0  0  0
    0.7369    3.4336    1.9410 H   0  0  0  0  0  0  0  0  0  0  0  0
   -0.8127    3.9327    1.2233 H   0  0  0  0  0  0  0  0  0  0  0  0
   -0.7830    2.8088    2.6035 H   0  0  0  0  0  0  0  0  0  0  0  0
  5  6  2  0  0  0  0
  5  7  1  0  0  0  0
  2  3  1  0  0  0  0
  2  4  1  0  0  0  0
  2  5  1  0  0  0  0
  1  2  1  0  0  0  0
 15 16  2  0  0  0  0
 15 17  1  0  0  0  0
 11 12  1  0  0  0  0
 11 13  1  0  0  0  0
 11 14  1  0  0  0  0
  9 10  1  0  0  0  0
  9 11  1  0  0  0  0
  9 15  1  0  0  0  0
  7  8  1  0  0  0  0
  7  9  1  0  0  0  0
 19 20  1  0  0  0  0
 19 21  1  0  0  0  0
 19 22  1  0  0  0  0
 17 18  1  0  0  0  0
 17 19  1  0  0  0  0
M  END
$$$$
default_name
  -OEChem-01062215323D

 22 21  0     1  0  0  0  0  0999 V2000
   -2.5423   -3.6749    0.8058 H   0  0  0  0  0  0  0  0  0  0  0  0
   -2.5063   -2.6779    0.3688 C   0  0  0  0  0  0  0  0  0  0  0  0
   -3.1603   -2.0109    0.9268 H   0  0  0  0  0  0  0  0  0  0  0  0
   -2.8193   -2.7229   -0.6722 H   0  0  0  0  0  0  0  0  0  0  0  0
   -1.0873   -2.1629    0.4418 C   0  0  0  0  0  0  0  0  0  0  0  0
   -0.2073   -2.8549    0.9368 O   0  0  0  0  0  0  0  0  0  0  0  0
   -0.8713   -0.9449   -0.0482 N   0  0  0  0  0  0  0  0  0  0  0  0
   -1.6543   -0.4189   -0.4062 H   0  0  0  0  0  0  0  0  0  0  0  0
    0.4237   -0.2649   -0.0462 C   0  0  1  0  0  0  0  0  0  0  0  0
    1.2034   -0.9919    0.1869 H   0  0  0  0  0  0  0  0  0  0  0  0
    0.6903    0.3040   -1.4483 C   0  0  0  0  0  0  0  0  0  0  0  0
   -0.0804    1.0322   -1.7064 H   0  0  0  0  0  0  0  0  0  0  0  0
    1.6652    0.7897   -1.4749 H   0  0  0  0  0  0  0  0  0  0  0  0
    0.6810   -0.5040   -2.1818 H   0  0  0  0  0  0  0  0  0  0  0  0
    0.4674    0.8381    1.0293 C   0  0  0  0  0  0  0  0  0  0  0  0
    1.2922    0.7876    1.9414 O   0  0  0  0  0  0  0  0  0  0  0  0
   -0.4327    1.8242    0.9261 N   0  0  0  0  0  0  0  0  0  0  0  0
   -1.0796    1.7939    0.1543 H   0  0  0  0  0  0  0  0  0  0  0  0
   -0.5333    2.9398    1.8658 C   0  0  0  0  0  0  0  0  0  0  0  0
    0.4303    3.4481    1.9385 H   0  0  0  0  0  0  0  0  0  0  0  0
   -1.2899    3.6511    1.5315 H   0  0  0  0  0  0  0  0  0  0  0  0
   -0.8024    2.5646    2.8547 H   0  0  0  0  0  0  0  0  0  0  0  0
  5  6  2  0  0  0  0
  5  7  1  0  0  0  0
  2  3  1  0  0  0  0
  2  4  1  0  0  0  0
  2  5  1  0  0  0  0
  1  2  1  0  0  0  0
 15 16  2  0  0  0  0
 15 17  1  0  0  0  0
 11 12  1  0  0  0  0
 11 13  1  0  0  0  0
 11 14  1  0  0  0  0
  9 10  1  0  0  0  0
  9 11  1  0  0  0  0
  9 15  1  0  0  0  0
  7  8  1  0  0  0  0
  7  9  1  0  0  0  0
 19 20  1  0  0  0  0
 19 21  1  0  0  0  0
 19 22  1  0  0  0  0
 17 18  1  0  0  0  0
 17 19  1  0  0  0  0
M  END
$$$$
default_name
  -OEChem-01062215323D

 22 21  0     1  0  0  0  0  0999 V2000
   -2.5423   -3.6749    0.8058 H   0  0  0  0  0  0  0  0  0  0  0  0
   -2.5063   -2.6779    0.3688 C   0  0  0  0  0  0  0  0  0  0  0  0
   -3.1603   -2.0109    0.9268 H   0  0  0  0  0  0  0  0  0  0  0  0
   -2.8193   -2.7229   -0.6722 H   0  0  0  0  0  0  0  0  0  0  0  0
   -1.0873   -2.1629    0.4418 C   0  0  0  0  0  0  0  0  0  0  0  0
   -0.2073   -2.8549    0.9368 O   0  0  0  0  0  0  0  0  0  0  0  0
   -0.8713   -0.9449   -0.0482 N   0  0  0  0  0  0  0  0  0  0  0  0
   -1.6543   -0.4189   -0.4062 H   0  0  0  0  0  0  0  0  0  0  0  0
    0.4237   -0.2649   -0.0462 C   0  0  1  0  0  0  0  0  0  0  0  0
    1.2034   -0.9919    0.1869 H   0  0  0  0  0  0  0  0  0  0  0  0
    0.6903    0.3040   -1.4483 C   0  0  0  0  0  0  0  0  0  0  0  0
   -0.0804    1.0322   -1.7064 H   0  0  0  0  0  0  0  0  0  0  0  0
    1.6652    0.7897   -1.4749 H   0  0  0  0  0  0  0  0  0  0  0  0
    0.6810   -0.5040   -2.1818 H   0  0  0  0  0  0  0  0  0  0  0  0
    0.4674    0.8381    1.0293 C   0  0  0  0  0  0  0  0  0  0  0  0
    1.4428    0.9469    1.7720 O   0  0  0  0  0  0  0  0  0  0  0  0
   -0.5987    1.6436    1.1180 N   0  0  0  0  0  0  0  0  0  0  0  0
   -1.3615    1.4891    0.4784 H   0  0  0  0  0  0  0  0  0  0  0  0
   -0.7218    2.7315    2.0870 C   0  0  0  0  0  0  0  0  0  0  0  0
    0.1309    3.4068    1.9930 H   0  0  0  0  0  0  0  0  0  0  0  0
   -1.6428    3.2906    1.9155 H   0  0  0  0  0  0  0  0  0  0  0  0
   -0.7304    2.3234    3.0992 H   0  0  0  0  0  0  0  0  0  0  0  0
  5  6  2  0  0  0  0
  5  7  1  0  0  0  0
  2  3  1  0  0  0  0
  2  4  1  0  0  0  0
  2  5  1  0  0  0  0
  1  2  1  0  0  0  0
 15 16  2  0  0  0  0
 15 17  1  0  0  0  0
 11 12  1  0  0  0  0
 11 13  1  0  0  0  0
 11 14  1  0  0  0  0
  9 10  1  0  0  0  0
  9 11  1  0  0  0  0
  9 15  1  0  0  0  0
  7  8  1  0  0  0  0
  7  9  1  0  0  0  0
 19 20  1  0  0  0  0
 19 21  1  0  0  0  0
 19 22  1  0  0  0  0
 17 18  1  0  0  0  0
 17 19  1  0  0  0  0
M  END
$$$$
default_name
  -OEChem-01062215323D

 22 21  0     1  0  0  0  0  0999 V2000
   -2.5423   -3.6749    0.8058 H   0  0  0  0  0  0  0  0  0  0  0  0
   -2.5063   -2.6779    0.3688 C   0  0  0  0  0  0  0  0  0  0  0  0
   -3.1603   -2.0109    0.9268 H   0  0  0  0  0  0  0  0  0  0  0  0
   -2.8193   -2.7229   -0.6722 H   0  0  0  0  0  0  0  0  0  0  0  0
   -1.0873   -2.1629    0.4418 C   0  0  0  0  0  0  0  0  0  0  0  0
   -0.2073   -2.8549    0.9368 O   0  0  0  0  0  0  0  0  0  0  0  0
   -0.8713   -0.9449   -0.0482 N   0  0  0  0  0  0  0  0  0  0  0  0
   -1.6543   -0.4189   -0.4062 H   0  0  0  0  0  0  0  0  0  0  0  0
    0.4237   -0.2649   -0.0462 C   0  0  1  0  0  0  0  0  0  0  0  0
    1.2034   -0.9919    0.1869 H   0  0  0  0  0  0  0  0  0  0  0  0
    0.6903    0.3040   -1.4483 C   0  0  0  0  0  0  0  0  0  0  0  0
   -0.0804    1.0322   -1.7064 H   0  0  0  0  0  0  0  0  0  0  0  0
    1.6652    0.7897   -1.4749 H   0  0  0  0  0  0  0  0  0  0  0  0
    0.6810   -0.5040   -2.1818 H   0  0  0  0  0  0  0  0  0  0  0  0
    0.4674    0.8381    1.0293 C   0  0  0  0  0  0  0  0  0  0  0  0
    1.5281    1.1291    1.5816 O   0  0  0  0  0  0  0  0  0  0  0  0
   -0.6908    1.4378    1.3328 N   0  0  0  0  0  0  0  0  0  0  0  0
   -1.5188    1.1413    0.8414 H   0  0  0  0  0  0  0  0  0  0  0  0
   -0.8254    2.4947    2.3341 C   0  0  0  0  0  0  0  0  0  0  0  0
   -0.1406    3.3125    2.1008 H   0  0  0  0  0  0  0  0  0  0  0  0
   -1.8475    2.8758    2.3492 H   0  0  0  0  0  0  0  0  0  0  0  0
   -0.5721    2.1016    3.3202 H   0  0  0  0  0  0  0  0  0  0  0  0
  5  6  2  0  0  0  0
  5  7  1  0  0  0  0
  2  3  1  0  0  0  0
  2  4  1  0  0  0  0
  2  5  1  0  0  0  0
  1  2  1  0  0  0  0
 15 16  2  0  0  0  0
 15 17  1  0  0  0  0
 11 12  1  0  0  0  0
 11 13  1  0  0  0  0
 11 14  1  0  0  0  0
  9 10  1  0  0  0  0
  9 11  1  0  0  0  0
  9 15  1  0  0  0  0
  7  8  1  0  0  0  0
  7  9  1  0  0  0  0
 19 20  1  0  0  0  0
 19 21  1  0  0  0  0
 19 22  1  0  0  0  0
 17 18  1  0  0  0  0
 17 19  1  0  0  0  0
M  END
$$$$
default_name
  -OEChem-01062215323D

 22 21  0     1  0  0  0  0  0999 V2000
   -2.5423   -3.6749    0.8058 H   0  0  0  0  0  0  0  0  0  0  0  0
   -2.5063   -2.6779    0.3688 C   0  0  0  0  0  0  0  0  0  0  0  0
   -3.1603   -2.0109    0.9268 H   0  0  0  0  0  0  0  0  0  0  0  0
   -2.8193   -2.7229   -0.6722 H   0  0  0  0  0  0  0  0  0  0  0  0
   -1.0873   -2.1629    0.4418 C   0  0  0  0  0  0  0  0  0  0  0  0
   -0.2073   -2.8549    0.9368 O   0  0  0  0  0  0  0  0  0  0  0  0
   -0.8713   -0.9449   -0.0482 N   0  0  0  0  0  0  0  0  0  0  0  0
   -1.6543   -0.4189   -0.4062 H   0  0  0  0  0  0  0  0  0  0  0  0
    0.4237   -0.2649   -0.0462 C   0  0  1  0  0  0  0  0  0  0  0  0
    1.2034   -0.9919    0.1869 H   0  0  0  0  0  0  0  0  0  0  0  0
    0.6903    0.3040   -1.4483 C   0  0  0  0  0  0  0  0  0  0  0  0
   -0.0804    1.0322   -1.7064 H   0  0  0  0  0  0  0  0  0  0  0  0
    1.6652    0.7897   -1.4749 H   0  0  0  0  0  0  0  0  0  0  0  0
    0.6810   -0.5040   -2.1818 H   0  0  0  0  0  0  0  0  0  0  0  0
    0.4674    0.8381    1.0293 C   0  0  0  0  0  0  0  0  0  0  0  0
    1.5423    1.3219    1.3833 O   0  0  0  0  0  0  0  0  0  0  0  0
   -0.7028    1.2208    1.5558 N   0  0  0  0  0  0  0  0  0  0  0  0
   -1.5407    0.7744    1.2186 H   0  0  0  0  0  0  0  0  0  0  0  0
   -0.8369    2.2454    2.5902 C   0  0  0  0  0  0  0  0  0  0  0  0
   -0.3659    3.1715    2.2545 H   0  0  0  0  0  0  0  0  0  0  0  0
   -1.8899    2.4350    2.8029 H   0  0  0  0  0  0  0  0  0  0  0  0
   -0.3381    1.9143    3.5027 H   0  0  0  0  0  0  0  0  0  0  0  0
  5  6  2  0  0  0  0
  5  7  1  0  0  0  0
  2  3  1  0  0  0  0
  2  4  1  0  0  0  0
  2  5  1  0  0  0  0
  1  2  1  0  0  0  0
 15 16  2  0  0  0  0
 15 17  1  0  0  0  0
 11 12  1  0  0  0  0
 11 13  1  0  0  0  0
 11 14  1  0  0  0  0
  9 10  1  0  0  0  0
  9 11  1  0  0  0  0
  9 15  1  0  0  0  0
  7  8  1  0  0  0  0
  7  9  1  0  0  0  0
 19 20  1  0  0  0  0
 19 21  1  0  0  0  0
 19 22  1  0  0  0  0
 17 18  1  0  0  0  0
 17 19  1  0  0  0  0
M  END
$$$$
default_name
  -OEChem-01062215323D

 22 21  0     1  0  0  0  0  0999 V2000
   -2.5423   -3.6749    0.8058 H   0  0  0  0  0  0  0  0  0  0  0  0
   -2.5063   -2.6779    0.3688 C   0  0  0  0  0  0  0  0  0  0  0  0
   -3.1603   -2.0109    0.9268 H   0  0  0  0  0  0  0  0  0  0  0  0
   -2.8193   -2.7229   -0.6722 H   0  0  0  0  0  0  0  0  0  0  0  0
   -1.0873   -2.1629    0.4418 C   0  0  0  0  0  0  0  0  0  0  0  0
   -0.2073   -2.8549    0.9368 O   0  0  0  0  0  0  0  0  0  0  0  0
   -0.8713   -0.9449   -0.0482 N   0  0  0  0  0  0  0  0  0  0  0  0
   -1.6543   -0.4189   -0.4062 H   0  0  0  0  0  0  0  0  0  0  0  0
    0.4237   -0.2649   -0.0462 C   0  0  1  0  0  0  0  0  0  0  0  0
    1.2034   -0.9919    0.1869 H   0  0  0  0  0  0  0  0  0  0  0  0
    0.6903    0.3040   -1.4483 C   0  0  0  0  0  0  0  0  0  0  0  0
   -0.0804    1.0322   -1.7064 H   0  0  0  0  0  0  0  0  0  0  0  0
    1.6652    0.7897   -1.4749 H   0  0  0  0  0  0  0  0  0  0  0  0
    0.6810   -0.5040   -2.1818 H   0  0  0  0  0  0  0  0  0  0  0  0
    0.4674    0.8381    1.0293 C   0  0  0  0  0  0  0  0  0  0  0  0
    1.4844    1.5122    1.1905 O   0  0  0  0  0  0  0  0  0  0  0  0
   -0.6340    1.0074    1.7719 N   0  0  0  0  0  0  0  0  0  0  0  0
   -1.4257    0.4132    1.5844 H   0  0  0  0  0  0  0  0  0  0  0  0
   -0.7555    2.0007    2.8379 C   0  0  0  0  0  0  0  0  0  0  0  0
   -0.5296    2.9935    2.4437 H   0  0  0  0  0  0  0  0  0  0  0  0
   -1.7673    1.9983    3.2459 H   0  0  0  0  0  0  0  0  0  0  0  0
   -0.0445    1.7744    3.6344 H   0  0  0  0  0  0  0  0  0  0  0  0
  5  6  2  0  0  0  0
  5  7  1  0  0  0  0
  2  3  1  0  0  0  0
  2  4  1  0  0  0  0
  2  5  1  0  0  0  0
  1  2  1  0  0  0  0
 15 16  2  0  0  0  0
 15 17  1  0  0  0  0
 11 12  1  0  0  0  0
 11 13  1  0  0  0  0
 11 14  1  0  0  0  0
  9 10  1  0  0  0  0
  9 11  1  0  0  0  0
  9 15  1  0  0  0  0
  7  8  1  0  0  0  0
  7  9  1  0  0  0  0
 19 20  1  0  0  0  0
 19 21  1  0  0  0  0
 19 22  1  0  0  0  0
 17 18  1  0  0  0  0
 17 19  1  0  0  0  0
M  END
$$$$
default_name
  -OEChem-01062215323D

 22 21  0     1  0  0  0  0  0999 V2000
   -2.5423   -3.6749    0.8058 H   0  0  0  0  0  0  0  0  0  0  0  0
   -2.5063   -2.6779    0.3688 C   0  0  0  0  0  0  0  0  0  0  0  0
   -3.1603   -2.0109    0.9268 H   0  0  0  0  0  0  0  0  0  0  0  0
   -2.8193   -2.7229   -0.6722 H   0  0  0  0  0  0  0  0  0  0  0  0
   -1.0873   -2.1629    0.4418 C   0  0  0  0  0  0  0  0  0  0  0  0
   -0.2073   -2.8549    0.9368 O   0  0  0  0  0  0  0  0  0  0  0  0
   -0.8713   -0.9449   -0.0482 N   0  0  0  0  0  0  0  0  0  0  0  0
   -1.6543   -0.4189   -0.4062 H   0  0  0  0  0  0  0  0  0  0  0  0
    0.4237   -0.2649   -0.0462 C   0  0  1  0  0  0  0  0  0  0  0  0
    1.2034   -0.9919    0.1869 H   0  0  0  0  0  0  0  0  0  0  0  0
    0.6903    0.3040   -1.4483 C   0  0  0  0  0  0  0  0  0  0  0  0
   -0.0804    1.0322   -1.7064 H   0  0  0  0  0  0  0  0  0  0  0  0
    1.6652    0.7897   -1.4749 H   0  0  0  0  0  0  0  0  0  0  0  0
    0.6810   -0.5040   -2.1818 H   0  0  0  0  0  0  0  0  0  0  0  0
    0.4674    0.8381    1.0293 C   0  0  0  0  0  0  0  0  0  0  0  0
    1.3585    1.6870    1.0164 O   0  0  0  0  0  0  0  0  0  0  0  0
   -0.4889    0.8121    1.9663 N   0  0  0  0  0  0  0  0  0  0  0  0
   -1.1816    0.0824    1.9137 H   0  0  0  0  0  0  0  0  0  0  0  0
   -0.5868    1.7772    3.0603 C   0  0  0  0  0  0  0  0  0  0  0  0
   -0.6206    2.7907    2.6555 H   0  0  0  0  0  0  0  0  0  0  0  0
   -1.4879    1.5954    3.6478 H   0  0  0  0  0  0  0  0  0  0  0  0
    0.2887    1.6913    3.7061 H   0  0  0  0  0  0  0  0  0  0  0  0
  5  6  2  0  0  0  0
  5  7  1  0  0  0  0
  2  3  1  0  0  0  0
  2  4  1  0  0  0  0
  2  5  1  0  0  0  0
  1  2  1  0  0  0  0
 15 16  2  0  0  0  0
 15 17  1  0  0  0  0
 11 12  1  0  0  0  0
 11 13  1  0  0  0  0
 11 14  1  0  0  0  0
  9 10  1  0  0  0  0
  9 11  1  0  0  0  0
  9 15  1  0  0  0  0
  7  8  1  0  0  0  0
  7  9  1  0  0  0  0
 19 20  1  0  0  0  0
 19 21  1  0  0  0  0
 19 22  1  0  0  0  0
 17 18  1  0  0  0  0
 17 19  1  0  0  0  0
M  END
$$$$
default_name
  -OEChem-01062215323D

 22 21  0     1  0  0  0  0  0999 V2000
   -2.5423   -3.6749    0.8058 H   0  0  0  0  0  0  0  0  0  0  0  0
   -2.5063   -2.6779    0.3688 C   0  0  0  0  0  0  0  0  0  0  0  0
   -3.1603   -2.0109    0.9268 H   0  0  0  0  0  0  0  0  0  0  0  0
   -2.8193   -2.7229   -0.6722 H   0  0  0  0  0  0  0  0  0  0  0  0
   -1.0873   -2.1629    0.4418 C   0  0  0  0  0  0  0  0  0  0  0  0
   -0.2073   -2.8549    0.9368 O   0  0  0  0  0  0  0  0  0  0  0  0
   -0.8713   -0.9449   -0.0482 N   0  0  0  0  0  0  0  0  0  0  0  0
   -1.6543   -0.4189   -0.4062 H   0  0  0  0  0  0  0  0  0  0  0  0
    0.4237   -0.2649   -0.0462 C   0  0  1  0  0  0  0  0  0  0  0  0
    1.2034   -0.9919    0.1869 H   0  0  0  0  0  0  0  0  0  0  0  0
    0.6903    0.3040   -1.4483 C   0  0  0  0  0  0  0  0  0  0  0  0
   -0.0804    1.0322   -1.7064 H   0  0  0  0  0  0  0  0  0  0  0  0
    1.6652    0.7897   -1.4749 H   0  0  0  0  0  0  0  0  0  0  0  0
    0.6810   -0.5040   -2.1818 H   0  0  0  0  0  0  0  0  0  0  0  0
    0.4674    0.8381    1.0293 C   0  0  0  0  0  0  0  0  0  0  0  0
    1.1730    1.8343    0.8728 O   0  0  0  0  0  0  0  0  0  0  0  0
   -0.2774    0.6482    2.1258 N   0  0  0  0  0  0  0  0  0  0  0  0
   -0.8250   -0.1954    2.1842 H   0  0  0  0  0  0  0  0  0  0  0  0
   -0.3423    1.5902    3.2422 C   0  0  0  0  0  0  0  0  0  0  0  0
   -0.6325    2.5767    2.8753 H   0  0  0  0  0  0  0  0  0  0  0  0
   -1.0707    1.2537    3.9813 H   0  0  0  0  0  0  0  0  0  0  0  0
    0.6389    1.6706    3.7130 H   0  0  0  0  0  0  0  0  0  0  0  0
  5  6  2  0  0  0  0
  5  7  1  0  0  0  0
  2  3  1  0  0  0  0
  2  4  1  0  0  0  0
  2  5  1  0  0  0  0
  1  2  1  0  0  0  0
 15 16  2  0  0  0  0
 15 17  1  0  0  0  0
 11 12  1  0  0  0  0
 11 13  1  0  0  0  0
 11 14  1  0  0  0  0
  9 10  1  0  0  0  0
  9 11  1  0  0  0  0
  9 15  1  0  0  0  0
  7  8  1  0  0  0  0
  7  9  1  0  0  0  0
 19 20  1  0  0  0  0
 19 21  1  0  0  0  0
 19 22  1  0  0  0  0
 17 18  1  0  0  0  0
 17 19  1  0  0  0  0
M  END
$$$$
default_name
  -OEChem-01062215323D

 22 21  0     1  0  0  0  0  0999 V2000
   -2.5423   -3.6749    0.8058 H   0  0  0  0  0  0  0  0  0  0  0  0
   -2.5063   -2.6779    0.3688 C   0  0  0  0  0  0  0  0  0  0  0  0
   -3.1603   -2.0109    0.9268 H   0  0  0  0  0  0  0  0  0  0  0  0
   -2.8193   -2.7229   -0.6722 H   0  0  0  0  0  0  0  0  0  0  0  0
   -1.0873   -2.1629    0.4418 C   0  0  0  0  0  0  0  0  0  0  0  0
   -0.2073   -2.8549    0.9368 O   0  0  0  0  0  0  0  0  0  0  0  0
   -0.8713   -0.9449   -0.0482 N   0  0  0  0  0  0  0  0  0  0  0  0
   -1.6543   -0.4189   -0.4062 H   0  0  0  0  0  0  0  0  0  0  0  0
    0.4237   -0.2649   -0.0462 C   0  0  1  0  0  0  0  0  0  0  0  0
    1.2034   -0.9919    0.1869 H   0  0  0  0  0  0  0  0  0  0  0  0
    0.6903    0.3040   -1.4483 C   0  0  0  0  0  0  0  0  0  0  0  0
   -0.0804    1.0322   -1.7064 H   0  0  0  0  0  0  0  0  0  0  0  0
    1.6652    0.7897   -1.4749 H   0  0  0  0  0  0  0  0  0  0  0  0
    0.6810   -0.5040   -2.1818 H   0  0  0  0  0  0  0  0  0  0  0  0
    0.4674    0.8381    1.0293 C   0  0  0  0  0  0  0  0  0  0  0  0
    0.9406    1.9442    0.7695 O   0  0  0  0  0  0  0  0  0  0  0  0
   -0.0140    0.5270    2.2394 N   0  0  0  0  0  0  0  0  0  0  0  0
   -0.3804   -0.4014    2.3773 H   0  0  0  0  0  0  0  0  0  0  0  0
   -0.0387    1.4523    3.3713 C   0  0  0  0  0  0  0  0  0  0  0  0
   -0.5647    2.3663    3.0884 H   0  0  0  0  0  0  0  0  0  0  0  0
   -0.5443    0.9965    4.2237 H   0  0  0  0  0  0  0  0  0  0  0  0
    0.9822    1.7139    3.6547 H   0  0  0  0  0  0  0  0  0  0  0  0
  5  6  2  0  0  0  0
  5  7  1  0  0  0  0
  2  3  1  0  0  0  0
  2  4  1  0  0  0  0
  2  5  1  0  0  0  0
  1  2  1  0  0  0  0
 15 16  2  0  0  0  0
 15 17  1  0  0  0  0
 11 12  1  0  0  0  0
 11 13  1  0  0  0  0
 11 14  1  0  0  0  0
  9 10  1  0  0  0  0
  9 11  1  0  0  0  0
  9 15  1  0  0  0  0
  7  8  1  0  0  0  0
  7  9  1  0  0  0  0
 19 20  1  0  0  0  0
 19 21  1  0  0  0  0
 19 22  1  0  0  0  0
 17 18  1  0  0  0  0
 17 19  1  0  0  0  0
M  END
$$$$
default_name
  -OEChem-01062215323D

 22 21  0     1  0  0  0  0  0999 V2000
   -2.5423   -3.6749    0.8058 H   0  0  0  0  0  0  0  0  0  0  0  0
   -2.5063   -2.6779    0.3688 C   0  0  0  0  0  0  0  0  0  0  0  0
   -3.1603   -2.0109    0.9268 H   0  0  0  0  0  0  0  0  0  0  0  0
   -2.8193   -2.7229   -0.6722 H   0  0  0  0  0  0  0  0  0  0  0  0
   -1.0873   -2.1629    0.4418 C   0  0  0  0  0  0  0  0  0  0  0  0
   -0.2073   -2.8549    0.9368 O   0  0  0  0  0  0  0  0  0  0  0  0
   -0.8713   -0.9449   -0.0482 N   0  0  0  0  0  0  0  0  0  0  0  0
   -1.6543   -0.4189   -0.4062 H   0  0  0  0  0  0  0  0  0  0  0  0
    0.4237   -0.2649   -0.0462 C   0  0  1  0  0  0  0  0  0  0  0  0
    1.2034   -0.9919    0.1869 H   0  0  0  0  0  0  0  0  0  0  0  0
    0.6903    0.3040   -1.4483 C   0  0  0  0  0  0  0  0  0  0  0  0
   -0.0804    1.0322   -1.7064 H   0  0  0  0  0  0  0  0  0  0  0  0
    1.6652    0.7897   -1.4749 H   0  0  0  0  0  0  0  0  0  0  0  0
    0.6810   -0.5040   -2.1818 H   0  0  0  0  0  0  0  0  0  0  0  0
    0.4674    0.8381    1.0293 C   0  0  0  0  0  0  0  0  0  0  0  0
    0.6772    2.0091    0.7137 O   0  0  0  0  0  0  0  0  0  0  0  0
    0.2833    0.4566    2.2996 N   0  0  0  0  0  0  0  0  0  0  0  0
    0.1221   -0.5214    2.4801 H   0  0  0  0  0  0  0  0  0  0  0  0
    0.3034    1.3731    3.4387 C   0  0  0  0  0  0  0  0  0  0  0  0
   -0.4217    2.1737    3.2801 H   0  0  0  0  0  0  0  0  0  0  0  0
    0.0555    0.8414    4.3584 H   0  0  0  0  0  0  0  0  0  0  0  0
    1.2952    1.8182    3.5351 H   0  0  0  0  0  0  0  0  0  0  0  0
  5  6  2  0  0  0  0
  5  7  1  0  0  0  0
  2  3  1  0  0  0  0
  2  4  1  0  0  0  0
  2  5  1  0  0  0  0
  1  2  1  0  0  0  0
 15 16  2  0  0  0  0
 15 17  1  0  0  0  0
 11 12  1  0  0  0  0
 11 13  1  0  0  0  0
 11 14  1  0  0  0  0
  9 10  1  0  0  0  0
  9 11  1  0  0  0  0
  9 15  1  0  0  0  0
  7  8  1  0  0  0  0
  7  9  1  0  0  0  0
 19 20  1  0  0  0  0
 19 21  1  0  0  0  0
 19 22  1  0  0  0  0
 17 18  1  0  0  0  0
 17 19  1  0  0  0  0
M  END
$$$$
default_name
  -OEChem-01062215323D

 22 21  0     1  0  0  0  0  0999 V2000
   -2.5423   -3.6749    0.8058 H   0  0  0  0  0  0  0  0  0  0  0  0
   -2.5063   -2.6779    0.3688 C   0  0  0  0  0  0  0  0  0  0  0  0
   -3.1603   -2.0109    0.9268 H   0  0  0  0  0  0  0  0  0  0  0  0
   -2.8193   -2.7229   -0.6722 H   0  0  0  0  0  0  0  0  0  0  0  0
   -1.0873   -2.1629    0.4418 C   0  0  0  0  0  0  0  0  0  0  0  0
   -0.2073   -2.8549    0.9368 O   0  0  0  0  0  0  0  0  0  0  0  0
   -0.8713   -0.9449   -0.0482 N   0  0  0  0  0  0  0  0  0  0  0  0
   -1.6543   -0.4189   -0.4062 H   0  0  0  0  0  0  0  0  0  0  0  0
    0.4237   -0.2649   -0.0462 C   0  0  1  0  0  0  0  0  0  0  0  0
    1.2034   -0.9919    0.1869 H   0  0  0  0  0  0  0  0  0  0  0  0
    0.6903    0.3040   -1.4483 C   0  0  0  0  0  0  0  0  0  0  0  0
   -0.0804    1.0322   -1.7064 H   0  0  0  0  0  0  0  0  0  0  0  0
    1.6652    0.7897   -1.4749 H   0  0  0  0  0  0  0  0  0  0  0  0
    0.6810   -0.5040   -2.1818 H   0  0  0  0  0  0  0  0  0  0  0  0
    0.4674    0.8381    1.0293 C   0  0  0  0  0  0  0  0  0  0  0  0
    0.4007    2.0246    0.7089 O   0  0  0  0  0  0  0  0  0  0  0  0
    0.5944    0.4419    2.3020 N   0  0  0  0  0  0  0  0  0  0  0  0
    0.6482   -0.5473    2.4853 H   0  0  0  0  0  0  0  0  0  0  0  0
    0.6607    1.3578    3.4398 C   0  0  0  0  0  0  0  0  0  0  0  0
   -0.2133    2.0122    3.4373 H   0  0  0  0  0  0  0  0  0  0  0  0
    0.6878    0.7989    4.3763 H   0  0  0  0  0  0  0  0  0  0  0  0
    1.5565    1.9763    3.3624 H   0  0  0  0  0  0  0  0  0  0  0  0
  5  6  2  0  0  0  0
  5  7  1  0  0  0  0
  2  3  1  0  0  0  0
  2  4  1  0  0  0  0
  2  5  1  0  0  0  0
  1  2  1  0  0  0  0
 15 16  2  0  0  0  0
 15 17  1  0  0  0  0
 11 12  1  0  0  0  0
 11 13  1  0  0  0  0
 11 14  1  0  0  0  0
  9 10  1  0  0  0  0
  9 11  1  0  0  0  0
  9 15  1  0  0  0  0
  7  8  1  0  0  0  0
  7  9  1  0  0  0  0
 19 20  1  0  0  0  0
 19 21  1  0  0  0  0
 19 22  1  0  0  0  0
 17 18  1  0  0  0  0
 17 19  1  0  0  0  0
M  END
$$$$
default_name
  -OEChem-01062215323D

 22 21  0     1  0  0  0  0  0999 V2000
   -2.5423   -3.6749    0.8058 H   0  0  0  0  0  0  0  0  0  0  0  0
   -2.5063   -2.6779    0.3688 C   0  0  0  0  0  0  0  0  0  0  0  0
   -3.1603   -2.0109    0.9268 H   0  0  0  0  0  0  0  0  0  0  0  0
   -2.8193   -2.7229   -0.6722 H   0  0  0  0  0  0  0  0  0  0  0  0
   -1.0873   -2.1629    0.4418 C   0  0  0  0  0  0  0  0  0  0  0  0
   -0.2073   -2.8549    0.9368 O   0  0  0  0  0  0  0  0  0  0  0  0
   -0.8713   -0.9449   -0.0482 N   0  0  0  0  0  0  0  0  0  0  0  0
   -1.6543   -0.4189   -0.4062 H   0  0  0  0  0  0  0  0  0  0  0  0
    0.4237   -0.2649   -0.0462 C   0  0  1  0  0  0  0  0  0  0  0  0
    1.2034   -0.9919    0.1869 H   0  0  0  0  0  0  0  0  0  0  0  0
    0.6903    0.3040   -1.4483 C   0  0  0  0  0  0  0  0  0  0  0  0
   -0.0804    1.0322   -1.7064 H   0  0  0  0  0  0  0  0  0  0  0  0
    1.6652    0.7897   -1.4749 H   0  0  0  0  0  0  0  0  0  0  0  0
    0.6810   -0.5040   -2.1818 H   0  0  0  0  0  0  0  0  0  0  0  0
    0.4674    0.8381    1.0293 C   0  0  0  0  0  0  0  0  0  0  0  0
    0.1299    1.9897    0.7557 O   0  0  0  0  0  0  0  0  0  0  0  0
    0.8980    0.4838    2.2467 N   0  0  0  0  0  0  0  0  0  0  0  0
    1.1620   -0.4774    2.3928 H   0  0  0  0  0  0  0  0  0  0  0  0
    1.0087    1.4076    3.3747 C   0  0  0  0  0  0  0  0  0  0  0  0
    0.0463    1.8926    3.5495 H   0  0  0  0  0  0  0  0  0  0  0  0
    1.3096    0.8720    4.2762 H   0  0  0  0  0  0  0  0  0  0  0  0
    1.7484    2.1774    3.1483 H   0  0  0  0  0  0  0  0  0  0  0  0
  5  6  2  0  0  0  0
  5  7  1  0  0  0  0
  2  3  1  0  0  0  0
  2  4  1  0  0  0  0
  2  5  1  0  0  0  0
  1  2  1  0  0  0  0
 15 16  2  0  0  0  0
 15 17  1  0  0  0  0
 11 12  1  0  0  0  0
 11 13  1  0  0  0  0
 11 14  1  0  0  0  0
  9 10  1  0  0  0  0
  9 11  1  0  0  0  0
  9 15  1  0  0  0  0
  7  8  1  0  0  0  0
  7  9  1  0  0  0  0
 19 20  1  0  0  0  0
 19 21  1  0  0  0  0
 19 22  1  0  0  0  0
 17 18  1  0  0  0  0
 17 19  1  0  0  0  0
M  END
$$$$
default_name
  -OEChem-01062215323D

 22 21  0     1  0  0  0  0  0999 V2000
   -2.5423   -3.6749    0.8058 H   0  0  0  0  0  0  0  0  0  0  0  0
   -2.5063   -2.6779    0.3688 C   0  0  0  0  0  0  0  0  0  0  0  0
   -3.1603   -2.0109    0.9268 H   0  0  0  0  0  0  0  0  0  0  0  0
   -2.8193   -2.7229   -0.6722 H   0  0  0  0  0  0  0  0  0  0  0  0
   -1.0873   -2.1629    0.4418 C   0  0  0  0  0  0  0  0  0  0  0  0
   -0.2073   -2.8549    0.9368 O   0  0  0  0  0  0  0  0  0  0  0  0
   -0.8713   -0.9449   -0.0482 N   0  0  0  0  0  0  0  0  0  0  0  0
   -1.6543   -0.4189   -0.4062 H   0  0  0  0  0  0  0  0  0  0  0  0
    0.4237   -0.2649   -0.0462 C   0  0  1  0  0  0  0  0  0  0  0  0
    1.2034   -0.9919    0.1869 H   0  0  0  0  0  0  0  0  0  0  0  0
    0.6903    0.3040   -1.4483 C   0  0  0  0  0  0  0  0  0  0  0  0
   -0.0804    1.0322   -1.7064 H   0  0  0  0  0  0  0  0  0  0  0  0
    1.6652    0.7897   -1.4749 H   0  0  0  0  0  0  0  0  0  0  0  0
    0.6810   -0.5040   -2.1818 H   0  0  0  0  0  0  0  0  0  0  0  0
    0.4674    0.8381    1.0293 C   0  0  0  0  0  0  0  0  0  0  0  0
   -0.1166    1.9067    0.8508 O   0  0  0  0  0  0  0  0  0  0  0  0
    1.1734    0.5796    2.1373 N   0  0  0  0  0  0  0  0  0  0  0  0
    1.6285   -0.3164    2.2087 H   0  0  0  0  0  0  0  0  0  0  0  0
    1.3239    1.5190    3.2476 C   0  0  0  0  0  0  0  0  0  0  0  0
    0.3394    1.8231    3.6088 H   0  0  0  0  0  0  0  0  0  0  0  0
    1.8784    1.0556    4.0648 H   0  0  0  0  0  0  0  0  0  0  0  0
    1.8578    2.4080    2.9074 H   0  0  0  0  0  0  0  0  0  0  0  0
  5  6  2  0  0  0  0
  5  7  1  0  0  0  0
  2  3  1  0  0  0  0
  2  4  1  0  0  0  0
  2  5  1  0  0  0  0
  1  2  1  0  0  0  0
 15 16  2  0  0  0  0
 15 17  1  0  0  0  0
 11 12  1  0  0  0  0
 11 13  1  0  0  0  0
 11 14  1  0  0  0  0
  9 10  1  0  0  0  0
  9 11  1  0  0  0  0
  9 15  1  0  0  0  0
  7  8  1  0  0  0  0
  7  9  1  0  0  0  0
 19 20  1  0  0  0  0
 19 21  1  0  0  0  0
 19 22  1  0  0  0  0
 17 18  1  0  0  0  0
 17 19  1  0  0  0  0
M  END
$$$$
default_name
  -OEChem-01062215323D

 22 21  0     1  0  0  0  0  0999 V2000
   -2.5423   -3.6749    0.8058 H   0  0  0  0  0  0  0  0  0  0  0  0
   -2.5063   -2.6779    0.3688 C   0  0  0  0  0  0  0  0  0  0  0  0
   -3.1603   -2.0109    0.9268 H   0  0  0  0  0  0  0  0  0  0  0  0
   -2.8193   -2.7229   -0.6722 H   0  0  0  0  0  0  0  0  0  0  0  0
   -1.0873   -2.1629    0.4418 C   0  0  0  0  0  0  0  0  0  0  0  0
   -0.2073   -2.8549    0.9368 O   0  0  0  0  0  0  0  0  0  0  0  0
   -0.8713   -0.9449   -0.0482 N   0  0  0  0  0  0  0  0  0  0  0  0
   -1.6543   -0.4189   -0.4062 H   0  0  0  0  0  0  0  0  0  0  0  0
    0.4237   -0.2649   -0.0462 C   0  0  1  0  0  0  0  0  0  0  0  0
    1.2034   -0.9919    0.1869 H   0  0  0  0  0  0  0  0  0  0  0  0
    0.6903    0.3040   -1.4483 C   0  0  0  0  0  0  0  0  0  0  0  0
   -0.0804    1.0322   -1.7064 H   0  0  0  0  0  0  0  0  0  0  0  0
    1.6652    0.7897   -1.4749 H   0  0  0  0  0  0  0  0  0  0  0  0
    0.6810   -0.5040   -2.1818 H   0  0  0  0  0  0  0  0  0  0  0  0
    0.4674    0.8381    1.0293 C   0  0  0  0  0  0  0  0  0  0  0  0
   -0.3222    1.7814    0.9877 O   0  0  0  0  0  0  0  0  0  0  0  0
    1.4018    0.7226    1.9814 N   0  0  0  0  0  0  0  0  0  0  0  0
    2.0159   -0.0753    1.9457 H   0  0  0  0  0  0  0  0  0  0  0  0
    1.5846    1.6845    3.0673 C   0  0  0  0  0  0  0  0  0  0  0  0
    0.6461    1.8085    3.6113 H   0  0  0  0  0  0  0  0  0  0  0  0
    2.3556    1.3372    3.7566 H   0  0  0  0  0  0  0  0  0  0  0  0
    1.8771    2.6522    2.6562 H   0  0  0  0  0  0  0  0  0  0  0  0
  5  6  2  0  0  0  0
  5  7  1  0  0  0  0
  2  3  1  0  0  0  0
  2  4  1  0  0  0  0
  2  5  1  0  0  0  0
  1  2  1  0  0  0  0
 15 16  2  0  0  0  0
 15 17  1  0  0  0  0
 11 12  1  0  0  0  0
 11 13  1  0  0  0  0
 11 14  1  0  0  0  0
  9 10  1  0  0  0  0
  9 11  1  0  0  0  0
  9 15  1  0  0  0  0
  7  8  1  0  0  0  0
  7  9  1  0  0  0  0
 19 20  1  0  0  0  0
 19 21  1  0  0  0  0
 19 22  1  0  0  0  0
 17 18  1  0  0  0  0
 17 19  1  0  0  0  0
M  END
$$$$
default_name
  -OEChem-01062215323D

 22 21  0     1  0  0  0  0  0999 V2000
   -2.5423   -3.6749    0.8058 H   0  0  0  0  0  0  0  0  0  0  0  0
   -2.5063   -2.6779    0.3688 C   0  0  0  0  0  0  0  0  0  0  0  0
   -3.1603   -2.0109    0.9268 H   0  0  0  0  0  0  0  0  0  0  0  0
   -2.8193   -2.7229   -0.6722 H   0  0  0  0  0  0  0  0  0  0  0  0
   -1.0873   -2.1629    0.4418 C   0  0  0  0  0  0  0  0  0  0  0  0
   -0.2073   -2.8549    0.9368 O   0  0  0  0  0  0  0  0  0  0  0  0
   -0.8713   -0.9449   -0.0482 N   0  0  0  0  0  0  0  0  0  0  0  0
   -1.6543   -0.4189   -0.4062 H   0  0  0  0  0  0  0  0  0  0  0  0
    0.4237   -0.2649   -0.0462 C   0  0  1  0  0  0  0  0  0  0  0  0
    1.2034   -0.9919    0.1869 H   0  0  0  0  0  0  0  0  0  0  0  0
    0.6903    0.3040   -1.4483 C   0  0  0  0  0  0  0  0  0  0  0  0
   -0.0804    1.0322   -1.7064 H   0  0  0  0  0  0  0  0  0  0  0  0
    1.6652    0.7897   -1.4749 H   0  0  0  0  0  0  0  0  0  0  0  0
    0.6810   -0.5040   -2.1818 H   0  0  0  0  0  0  0  0  0  0  0  0
    0.4674    0.8381    1.0293 C   0  0  0  0  0  0  0  0  0  0  0  0
   -0.4728    1.6221    1.1571 O   0  0  0  0  0  0  0  0  0  0  0  0
    1.5678    0.9032    1.7894 N   0  0  0  0  0  0  0  0  0  0  0  0
    2.2979    0.2296    1.6216 H   0  0  0  0  0  0  0  0  0  0  0  0
    1.7732    1.8927    2.8461 C   0  0  0  0  0  0  0  0  0  0  0  0
    0.9454    1.8498    3.5568 H   0  0  0  0  0  0  0  0  0  0  0  0
    2.7085    1.6977    3.3726 H   0  0  0  0  0  0  0  0  0  0  0  0
    1.8052    2.8934    2.4117 H   0  0  0  0  0  0  0  0  0  0  0  0
  5  6  2  0  0  0  0
  5  7  1  0  0  0  0
  2  3  1  0  0  0  0
  2  4  1  0  0  0  0
  2  5  1  0  0  0  0
  1  2  1  0  0  0  0
 15 16  2  0  0  0  0
 15 17  1  0  0  0  0
 11 12  1  0  0  0  0
 11 13  1  0  0  0  0
 11 14  1  0  0  0  0
  9 10  1  0  0  0  0
  9 11  1  0  0  0  0
  9 15  1  0  0  0  0
  7  8  1  0  0  0  0
  7  9  1  0  0  0  0
 19 20  1  0  0  0  0
 19 21  1  0  0  0  0
 19 22  1  0  0  0  0
 17 18  1  0  0  0  0
 17 19  1  0  0  0  0
M  END
$$$$
default_name
  -OEChem-01062215323D

 22 21  0     1  0  0  0  0  0999 V2000
   -2.5423   -3.6749    0.8058 H   0  0  0  0  0  0  0  0  0  0  0  0
   -2.5063   -2.6779    0.3688 C   0  0  0  0  0  0  0  0  0  0  0  0
   -3.1603   -2.0109    0.9268 H   0  0  0  0  0  0  0  0  0  0  0  0
   -2.8193   -2.7229   -0.6722 H   0  0  0  0  0  0  0  0  0  0  0  0
   -1.0873   -2.1629    0.4418 C   0  0  0  0  0  0  0  0  0  0  0  0
   -0.2073   -2.8549    0.9368 O   0  0  0  0  0  0  0  0  0  0  0  0
   -0.8713   -0.9449   -0.0482 N   0  0  0  0  0  0  0  0  0  0  0  0
   -1.6543   -0.4189   -0.4062 H   0  0  0  0  0  0  0  0  0  0  0  0
    0.4237   -0.2649   -0.0462 C   0  0  1  0  0  0  0  0  0  0  0  0
    1.2034   -0.9919    0.1869 H   0  0  0  0  0  0  0  0  0  0  0  0
    0.6903    0.3040   -1.4483 C   0  0  0  0  0  0  0  0  0  0  0  0
   -0.0804    1.0322   -1.7064 H   0  0  0  0  0  0  0  0  0  0  0  0
    1.6652    0.7897   -1.4749 H   0  0  0  0  0  0  0  0  0  0  0  0
    0.6810   -0.5040   -2.1818 H   0  0  0  0  0  0  0  0  0  0  0  0
    0.4674    0.8381    1.0293 C   0  0  0  0  0  0  0  0  0  0  0  0
   -0.5580    1.4399    1.3475 O   0  0  0  0  0  0  0  0  0  0  0  0
    1.6599    1.1090    1.5746 N   0  0  0  0  0  0  0  0  0  0  0  0
    2.4552    0.5773    1.2586 H   0  0  0  0  0  0  0  0  0  0  0  0
    1.8767    2.1295    2.5990 C   0  0  0  0  0  0  0  0  0  0  0  0
    1.2170    1.9442    3.4490 H   0  0  0  0  0  0  0  0  0  0  0  0
    2.9132    2.1125    2.9389 H   0  0  0  0  0  0  0  0  0  0  0  0
    1.6468    3.1152    2.1907 H   0  0  0  0  0  0  0  0  0  0  0  0
  5  6  2  0  0  0  0
  5  7  1  0  0  0  0
  2  3  1  0  0  0  0
  2  4  1  0  0  0  0
  2  5  1  0  0  0  0
  1  2  1  0  0  0  0
 15 16  2  0  0  0  0
 15 17  1  0  0  0  0
 11 12  1  0  0  0  0
 11 13  1  0  0  0  0
 11 14  1  0  0  0  0
  9 10  1  0  0  0  0
  9 11  1  0  0  0  0
  9 15  1  0  0  0  0
  7  8  1  0  0  0  0
  7  9  1  0  0  0  0
 19 20  1  0  0  0  0
 19 21  1  0  0  0  0
 19 22  1  0  0  0  0
 17 18  1  0  0  0  0
 17 19  1  0  0  0  0
M  END
$$$$
default_name
  -OEChem-01062215323D

 22 21  0     1  0  0  0  0  0999 V2000
   -2.5423   -3.6749    0.8058 H   0  0  0  0  0  0  0  0  0  0  0  0
   -2.5063   -2.6779    0.3688 C   0  0  0  0  0  0  0  0  0  0  0  0
   -3.1603   -2.0109    0.9268 H   0  0  0  0  0  0  0  0  0  0  0  0
   -2.8193   -2.7229   -0.6722 H   0  0  0  0  0  0  0  0  0  0  0  0
   -1.0873   -2.1629    0.4418 C   0  0  0  0  0  0  0  0  0  0  0  0
   -0.2073   -2.8549    0.9368 O   0  0  0  0  0  0  0  0  0  0  0  0
   -0.8713   -0.9449   -0.0482 N   0  0  0  0  0  0  0  0  0  0  0  0
   -1.6543   -0.4189   -0.4062 H   0  0  0  0  0  0  0  0  0  0  0  0
    0.4237   -0.2649   -0.0462 C   0  0  1  0  0  0  0  0  0  0  0  0
    1.2034   -0.9919    0.1869 H   0  0  0  0  0  0  0  0  0  0  0  0
    0.6903    0.3040   -1.4483 C   0  0  0  0  0  0  0  0  0  0  0  0
   -0.0804    1.0322   -1.7064 H   0  0  0  0  0  0  0  0  0  0  0  0
    1.6652    0.7897   -1.4749 H   0  0  0  0  0  0  0  0  0  0  0  0
    0.6810   -0.5040   -2.1818 H   0  0  0  0  0  0  0  0  0  0  0  0
    0.4674    0.8381    1.0293 C   0  0  0  0  0  0  0  0  0  0  0  0
   -0.5723    1.2471    1.5458 O   0  0  0  0  0  0  0  0  0  0  0  0
    1.6720    1.3260    1.3516 N   0  0  0  0  0  0  0  0  0  0  0  0
    2.4771    0.9443    0.8814 H   0  0  0  0  0  0  0  0  0  0  0  0
    1.8882    2.3788    2.3429 C   0  0  0  0  0  0  0  0  0  0  0  0
    1.4423    2.0852    3.2953 H   0  0  0  0  0  0  0  0  0  0  0  0
    2.9556    2.5532    2.4852 H   0  0  0  0  0  0  0  0  0  0  0  0
    1.4129    3.3024    2.0082 H   0  0  0  0  0  0  0  0  0  0  0  0
  5  6  2  0  0  0  0
  5  7  1  0  0  0  0
  2  3  1  0  0  0  0
  2  4  1  0  0  0  0
  2  5  1  0  0  0  0
  1  2  1  0  0  0  0
 15 16  2  0  0  0  0
 15 17  1  0  0  0  0
 11 12  1  0  0  0  0
 11 13  1  0  0  0  0
 11 14  1  0  0  0  0
  9 10  1  0  0  0  0
  9 11  1  0  0  0  0
  9 15  1  0  0  0  0
  7  8  1  0  0  0  0
  7  9  1  0  0  0  0
 19 20  1  0  0  0  0
 19 21  1  0  0  0  0
 19 22  1  0  0  0  0
 17 18  1  0  0  0  0
 17 19  1  0  0  0  0
M  END
$$$$
default_name
  -OEChem-01062215323D

 22 21  0     1  0  0  0  0  0999 V2000
   -2.5423   -3.6749    0.8058 H   0  0  0  0  0  0  0  0  0  0  0  0
   -2.5063   -2.6779    0.3688 C   0  0  0  0  0  0  0  0  0  0  0  0
   -3.1603   -2.0109    0.9268 H   0  0  0  0  0  0  0  0  0  0  0  0
   -2.8193   -2.7229   -0.6722 H   0  0  0  0  0  0  0  0  0  0  0  0
   -1.0873   -2.1629    0.4418 C   0  0  0  0  0  0  0  0  0  0  0  0
   -0.2073   -2.8549    0.9368 O   0  0  0  0  0  0  0  0  0  0  0  0
   -0.8713   -0.9449   -0.0482 N   0  0  0  0  0  0  0  0  0  0  0  0
   -1.6543   -0.4189   -0.4062 H   0  0  0  0  0  0  0  0  0  0  0  0
    0.4237   -0.2649   -0.0462 C   0  0  1  0  0  0  0  0  0  0  0  0
    1.2158   -1.0147   -0.0815 H   0  0  0  0  0  0  0  0  0  0  0  0
    0.5273    0.6139   -1.3022 C   0  0  0  0  0  0  0  0  0  0  0  0
   -0.2588    1.3708   -1.2920 H   0  0  0  0  0  0  0  0  0  0  0  0
    1.4985    1.1067   -1.3339 H   0  0  0  0  0  0  0  0  0  0  0  0
    0.4188   -0.0046   -2.1947 H   0  0  0  0  0  0  0  0  0  0  0  0
    0.6116    0.5628    1.2402 C   0  0  0  0  0  0  0  0  0  0  0  0
   -0.2746    0.5990    2.0936 O   0  0  0  0  0  0  0  0  0  0  0  0
    1.7613    1.2374    1.3669 N   0  0  0  0  0  0  0  0  0  0  0  0
    2.4369    1.1627    0.6232 H   0  0  0  0  0  0  0  0  0  0  0  0
    2.0939    2.0756    2.5179 C   0  0  0  0  0  0  0  0  0  0  0  0
    2.0113    1.4903    3.4359 H   0  0  0  0  0  0  0  0  0  0  0  0
    3.1111    2.4591    2.4272 H   0  0  0  0  0  0  0  0  0  0  0  0
    1.3963    2.9128    2.5770 H   0  0  0  0  0  0  0  0  0  0  0  0
  5  6  2  0  0  0  0
  5  7  1  0  0  0  0
  2  3  1  0  0  0  0
  2  4  1  0  0  0  0
  2  5  1  0  0  0  0
  1  2  1  0  0  0  0
 15 16  2  0  0  0  0
 15 17  1  0  0  0  0
 11 12  1  0  0  0  0
 11 13  1  0  0  0  0
 11 14  1  0  0  0  0
  9 10  1  0  0  0  0
  9 11  1  0  0  0  0
  9 15  1  0  0  0  0
  7  8  1  0  0  0  0
  7  9  1  0  0  0  0
 19 20  1  0  0  0  0
 19 21  1  0  0  0  0
 19 22  1  0  0  0  0
 17 18  1  0  0  0  0
 17 19  1  0  0  0  0
M  END
$$$$
default_name
  -OEChem-01062215323D

 22 21  0     1  0  0  0  0  0999 V2000
   -2.5423   -3.6749    0.8058 H   0  0  0  0  0  0  0  0  0  0  0  0
   -2.5063   -2.6779    0.3688 C   0  0  0  0  0  0  0  0  0  0  0  0
   -3.1603   -2.0109    0.9268 H   0  0  0  0  0  0  0  0  0  0  0  0
   -2.8193   -2.7229   -0.6722 H   0  0  0  0  0  0  0  0  0  0  0  0
   -1.0873   -2.1629    0.4418 C   0  0  0  0  0  0  0  0  0  0  0  0
   -0.2073   -2.8549    0.9368 O   0  0  0  0  0  0  0  0  0  0  0  0
   -0.8713   -0.9449   -0.0482 N   0  0  0  0  0  0  0  0  0  0  0  0
   -1.6543   -0.4189   -0.4062 H   0  0  0  0  0  0  0  0  0  0  0  0
    0.4237   -0.2649   -0.0462 C   0  0  1  0  0  0  0  0  0  0  0  0
    1.2158   -1.0147   -0.0815 H   0  0  0  0  0  0  0  0  0  0  0  0
    0.5273    0.6139   -1.3022 C   0  0  0  0  0  0  0  0  0  0  0  0
   -0.2588    1.3708   -1.2920 H   0  0  0  0  0  0  0  0  0  0  0  0
    1.4985    1.1067   -1.3339 H   0  0  0  0  0  0  0  0  0  0  0  0
    0.4188   -0.0046   -2.1947 H   0  0  0  0  0  0  0  0  0  0  0  0
    0.6116    0.5628    1.2402 C   0  0  0  0  0  0  0  0  0  0  0  0
   -0.1310    0.3909    2.2065 O   0  0  0  0  0  0  0  0  0  0  0  0
    1.5966    1.4699    1.2413 N   0  0  0  0  0  0  0  0  0  0  0  0
    2.1595    1.5565    0.4103 H   0  0  0  0  0  0  0  0  0  0  0  0
    1.9027    2.3417    2.3746 C   0  0  0  0  0  0  0  0  0  0  0  0
    2.0788    1.7376    3.2669 H   0  0  0  0  0  0  0  0  0  0  0  0
    2.7909    2.9394    2.1649 H   0  0  0  0  0  0  0  0  0  0  0  0
    1.0580    3.0054    2.5668 H   0  0  0  0  0  0  0  0  0  0  0  0
  5  6  2  0  0  0  0
  5  7  1  0  0  0  0
  2  3  1  0  0  0  0
  2  4  1  0  0  0  0
  2  5  1  0  0  0  0
  1  2  1  0  0  0  0
 15 16  2  0  0  0  0
 15 17  1  0  0  0  0
 11 12  1  0  0  0  0
 11 13  1  0  0  0  0
 11 14  1  0  0  0  0
  9 10  1  0  0  0  0
  9 11  1  0  0  0  0
  9 15  1  0  0  0  0
  7  8  1  0  0  0  0
  7  9  1  0  0  0  0
 19 20  1  0  0  0  0
 19 21  1  0  0  0  0
 19 22  1  0  0  0  0
 17 18  1  0  0  0  0
 17 19  1  0  0  0  0
M  END
$$$$
default_name
  -OEChem-01062215323D

 22 21  0     1  0  0  0  0  0999 V2000
   -2.5423   -3.6749    0.8058 H   0  0  0  0  0  0  0  0  0  0  0  0
   -2.5063   -2.6779    0.3688 C   0  0  0  0  0  0  0  0  0  0  0  0
   -3.1603   -2.0109    0.9268 H   0  0  0  0  0  0  0  0  0  0  0  0
   -2.8193   -2.7229   -0.6722 H   0  0  0  0  0  0  0  0  0  0  0  0
   -1.0873   -2.1629    0.4418 C   0  0  0  0  0  0  0  0  0  0  0  0
   -0.2073   -2.8549    0.9368 O   0  0  0  0  0  0  0  0  0  0  0  0
   -0.8713   -0.9449   -0.0482 N   0  0  0  0  0  0  0  0  0  0  0  0
   -1.6543   -0.4189   -0.4062 H   0  0  0  0  0  0  0  0  0  0  0  0
    0.4237   -0.2649   -0.0462 C   0  0  1  0  0  0  0  0  0  0  0  0
    1.2158   -1.0147   -0.0815 H   0  0  0  0  0  0  0  0  0  0  0  0
    0.5273    0.6139   -1.3022 C   0  0  0  0  0  0  0  0  0  0  0  0
   -0.2588    1.3708   -1.2920 H   0  0  0  0  0  0  0  0  0  0  0  0
    1.4985    1.1067   -1.3339 H   0  0  0  0  0  0  0  0  0  0  0  0
    0.4188   -0.0046   -2.1947 H   0  0  0  0  0  0  0  0  0  0  0  0
    0.6116    0.5628    1.2402 C   0  0  0  0  0  0  0  0  0  0  0  0
    0.0684    0.2172    2.2891 O   0  0  0  0  0  0  0  0  0  0  0  0
    1.3697    1.6629    1.1503 N   0  0  0  0  0  0  0  0  0  0  0  0
    1.7768    1.8838    0.2556 H   0  0  0  0  0  0  0  0  0  0  0  0
    1.6407    2.5619    2.2711 C   0  0  0  0  0  0  0  0  0  0  0  0
    2.0671    1.9964    3.1021 H   0  0  0  0  0  0  0  0  0  0  0  0
    2.3414    3.3424    1.9713 H   0  0  0  0  0  0  0  0  0  0  0  0
    0.7098    3.0220    2.6069 H   0  0  0  0  0  0  0  0  0  0  0  0
  5  6  2  0  0  0  0
  5  7  1  0  0  0  0
  2  3  1  0  0  0  0
  2  4  1  0  0  0  0
  2  5  1  0  0  0  0
  1  2  1  0  0  0  0
 15 16  2  0  0  0  0
 15 17  1  0  0  0  0
 11 12  1  0  0  0  0
 11 13  1  0  0  0  0
 11 14  1  0  0  0  0
  9 10  1  0  0  0  0
  9 11  1  0  0  0  0
  9 15  1  0  0  0  0
  7  8  1  0  0  0  0
  7  9  1  0  0  0  0
 19 20  1  0  0  0  0
 19 21  1  0  0  0  0
 19 22  1  0  0  0  0
 17 18  1  0  0  0  0
 17 19  1  0  0  0  0
M  END
$$$$
default_name
  -OEChem-01062215323D

 22 21  0     1  0  0  0  0  0999 V2000
   -2.5423   -3.6749    0.8058 H   0  0  0  0  0  0  0  0  0  0  0  0
   -2.5063   -2.6779    0.3688 C   0  0  0  0  0  0  0  0  0  0  0  0
   -3.1603   -2.0109    0.9268 H   0  0  0  0  0  0  0  0  0  0  0  0
   -2.8193   -2.7229   -0.6722 H   0  0  0  0  0  0  0  0  0  0  0  0
   -1.0873   -2.1629    0.4418 C   0  0  0  0  0  0  0  0  0  0  0  0
   -0.2073   -2.8549    0.9368 O   0  0  0  0  0  0  0  0  0  0  0  0
   -0.8713   -0.9449   -0.0482 N   0  0  0  0  0  0  0  0  0  0  0  0
   -1.6543   -0.4189   -0.4062 H   0  0  0  0  0  0  0  0  0  0  0  0
    0.4237   -0.2649   -0.0462 C   0  0  1  0  0  0  0  0  0  0  0  0
    1.2158   -1.0147   -0.0815 H   0  0  0  0  0  0  0  0  0  0  0  0
    0.5273    0.6139   -1.3022 C   0  0  0  0  0  0  0  0  0  0  0  0
   -0.2588    1.3708   -1.2920 H   0  0  0  0  0  0  0  0  0  0  0  0
    1.4985    1.1067   -1.3339 H   0  0  0  0  0  0  0  0  0  0  0  0
    0.4188   -0.0046   -2.1947 H   0  0  0  0  0  0  0  0  0  0  0  0
    0.6116    0.5628    1.2402 C   0  0  0  0  0  0  0  0  0  0  0  0
    0.3100    0.0900    2.3357 O   0  0  0  0  0  0  0  0  0  0  0  0
    1.0963    1.8032    1.0999 N   0  0  0  0  0  0  0  0  0  0  0  0
    1.3150    2.1221    0.1697 H   0  0  0  0  0  0  0  0  0  0  0  0
    1.3256    2.7213    2.2146 C   0  0  0  0  0  0  0  0  0  0  0  0
    1.9770    2.2490    2.9527 H   0  0  0  0  0  0  0  0  0  0  0  0
    1.7932    3.6407    1.8594 H   0  0  0  0  0  0  0  0  0  0  0  0
    0.3754    2.9616    2.6946 H   0  0  0  0  0  0  0  0  0  0  0  0
  5  6  2  0  0  0  0
  5  7  1  0  0  0  0
  2  3  1  0  0  0  0
  2  4  1  0  0  0  0
  2  5  1  0  0  0  0
  1  2  1  0  0  0  0
 15 16  2  0  0  0  0
 15 17  1  0  0  0  0
 11 12  1  0  0  0  0
 11 13  1  0  0  0  0
 11 14  1  0  0  0  0
  9 10  1  0  0  0  0
  9 11  1  0  0  0  0
  9 15  1  0  0  0  0
  7  8  1  0  0  0  0
  7  9  1  0  0  0  0
 19 20  1  0  0  0  0
 19 21  1  0  0  0  0
 19 22  1  0  0  0  0
 17 18  1  0  0  0  0
 17 19  1  0  0  0  0
M  END
$$$$
default_name
  -OEChem-01062215323D

 22 21  0     1  0  0  0  0  0999 V2000
   -2.5423   -3.6749    0.8058 H   0  0  0  0  0  0  0  0  0  0  0  0
   -2.5063   -2.6779    0.3688 C   0  0  0  0  0  0  0  0  0  0  0  0
   -3.1603   -2.0109    0.9268 H   0  0  0  0  0  0  0  0  0  0  0  0
   -2.8193   -2.7229   -0.6722 H   0  0  0  0  0  0  0  0  0  0  0  0
   -1.0873   -2.1629    0.4418 C   0  0  0  0  0  0  0  0  0  0  0  0
   -0.2073   -2.8549    0.9368 O   0  0  0  0  0  0  0  0  0  0  0  0
   -0.8713   -0.9449   -0.0482 N   0  0  0  0  0  0  0  0  0  0  0  0
   -1.6543   -0.4189   -0.4062 H   0  0  0  0  0  0  0  0  0  0  0  0
    0.4237   -0.2649   -0.0462 C   0  0  1  0  0  0  0  0  0  0  0  0
    1.2158   -1.0147   -0.0815 H   0  0  0  0  0  0  0  0  0  0  0  0
    0.5273    0.6139   -1.3022 C   0  0  0  0  0  0  0  0  0  0  0  0
   -0.2588    1.3708   -1.2920 H   0  0  0  0  0  0  0  0  0  0  0  0
    1.4985    1.1067   -1.3339 H   0  0  0  0  0  0  0  0  0  0  0  0
    0.4188   -0.0046   -2.1947 H   0  0  0  0  0  0  0  0  0  0  0  0
    0.6116    0.5628    1.2402 C   0  0  0  0  0  0  0  0  0  0  0  0
    0.5773    0.0178    2.3432 O   0  0  0  0  0  0  0  0  0  0  0  0
    0.7948    1.8812    1.0938 N   0  0  0  0  0  0  0  0  0  0  0  0
    0.8055    2.2553    0.1584 H   0  0  0  0  0  0  0  0  0  0  0  0
    0.9790    2.8089    2.2088 C   0  0  0  0  0  0  0  0  0  0  0  0
    1.8147    2.4783    2.8288 H   0  0  0  0  0  0  0  0  0  0  0  0
    1.1837    3.8139    1.8369 H   0  0  0  0  0  0  0  0  0  0  0  0
    0.0778    2.8282    2.8239 H   0  0  0  0  0  0  0  0  0  0  0  0
  5  6  2  0  0  0  0
  5  7  1  0  0  0  0
  2  3  1  0  0  0  0
  2  4  1  0  0  0  0
  2  5  1  0  0  0  0
  1  2  1  0  0  0  0
 15 16  2  0  0  0  0
 15 17  1  0  0  0  0
 11 12  1  0  0  0  0
 11 13  1  0  0  0  0
 11 14  1  0  0  0  0
  9 10  1  0  0  0  0
  9 11  1  0  0  0  0
  9 15  1  0  0  0  0
  7  8  1  0  0  0  0
  7  9  1  0  0  0  0
 19 20  1  0  0  0  0
 19 21  1  0  0  0  0
 19 22  1  0  0  0  0
 17 18  1  0  0  0  0
 17 19  1  0  0  0  0
M  END
$$$$
default_name
  -OEChem-01062215323D

 22 21  0     1  0  0  0  0  0999 V2000
   -2.5423   -3.6749    0.8058 H   0  0  0  0  0  0  0  0  0  0  0  0
   -2.5063   -2.6779    0.3688 C   0  0  0  0  0  0  0  0  0  0  0  0
   -3.1603   -2.0109    0.9268 H   0  0  0  0  0  0  0  0  0  0  0  0
   -2.8193   -2.7229   -0.6722 H   0  0  0  0  0  0  0  0  0  0  0  0
   -1.0873   -2.1629    0.4418 C   0  0  0  0  0  0  0  0  0  0  0  0
   -0.2073   -2.8549    0.9368 O   0  0  0  0  0  0  0  0  0  0  0  0
   -0.8713   -0.9449   -0.0482 N   0  0  0  0  0  0  0  0  0  0  0  0
   -1.6543   -0.4189   -0.4062 H   0  0  0  0  0  0  0  0  0  0  0  0
    0.4237   -0.2649   -0.0462 C   0  0  1  0  0  0  0  0  0  0  0  0
    1.2158   -1.0147   -0.0815 H   0  0  0  0  0  0  0  0  0  0  0  0
    0.5273    0.6139   -1.3022 C   0  0  0  0  0  0  0  0  0  0  0  0
   -0.2588    1.3708   -1.2920 H   0  0  0  0  0  0  0  0  0  0  0  0
    1.4985    1.1067   -1.3339 H   0  0  0  0  0  0  0  0  0  0  0  0
    0.4188   -0.0046   -2.1947 H   0  0  0  0  0  0  0  0  0  0  0  0
    0.6116    0.5628    1.2402 C   0  0  0  0  0  0  0  0  0  0  0  0
    0.8521    0.0056    2.3109 O   0  0  0  0  0  0  0  0  0  0  0  0
    0.4860    1.8916    1.1322 N   0  0  0  0  0  0  0  0  0  0  0  0
    0.2830    2.2742    0.2225 H   0  0  0  0  0  0  0  0  0  0  0  0
    0.6245    2.8189    2.2541 C   0  0  0  0  0  0  0  0  0  0  0  0
    1.5911    2.6686    2.7390 H   0  0  0  0  0  0  0  0  0  0  0  0
    0.5545    3.8502    1.9054 H   0  0  0  0  0  0  0  0  0  0  0  0
   -0.1630    2.6310    2.9860 H   0  0  0  0  0  0  0  0  0  0  0  0
  5  6  2  0  0  0  0
  5  7  1  0  0  0  0
  2  3  1  0  0  0  0
  2  4  1  0  0  0  0
  2  5  1  0  0  0  0
  1  2  1  0  0  0  0
 15 16  2  0  0  0  0
 15 17  1  0  0  0  0
 11 12  1  0  0  0  0
 11 13  1  0  0  0  0
 11 14  1  0  0  0  0
  9 10  1  0  0  0  0
  9 11  1  0  0  0  0
  9 15  1  0  0  0  0
  7  8  1  0  0  0  0
  7  9  1  0  0  0  0
 19 20  1  0  0  0  0
 19 21  1  0  0  0  0
 19 22  1  0  0  0  0
 17 18  1  0  0  0  0
 17 19  1  0  0  0  0
M  END
$$$$
default_name
  -OEChem-01062215323D

 22 21  0     1  0  0  0  0  0999 V2000
   -2.5423   -3.6749    0.8058 H   0  0  0  0  0  0  0  0  0  0  0  0
   -2.5063   -2.6779    0.3688 C   0  0  0  0  0  0  0  0  0  0  0  0
   -3.1603   -2.0109    0.9268 H   0  0  0  0  0  0  0  0  0  0  0  0
   -2.8193   -2.7229   -0.6722 H   0  0  0  0  0  0  0  0  0  0  0  0
   -1.0873   -2.1629    0.4418 C   0  0  0  0  0  0  0  0  0  0  0  0
   -0.2073   -2.8549    0.9368 O   0  0  0  0  0  0  0  0  0  0  0  0
   -0.8713   -0.9449   -0.0482 N   0  0  0  0  0  0  0  0  0  0  0  0
   -1.6543   -0.4189   -0.4062 H   0  0  0  0  0  0  0  0  0  0  0  0
    0.4237   -0.2649   -0.0462 C   0  0  1  0  0  0  0  0  0  0  0  0
    1.2158   -1.0147   -0.0815 H   0  0  0  0  0  0  0  0  0  0  0  0
    0.5273    0.6139   -1.3022 C   0  0  0  0  0  0  0  0  0  0  0  0
   -0.2588    1.3708   -1.2920 H   0  0  0  0  0  0  0  0  0  0  0  0
    1.4985    1.1067   -1.3339 H   0  0  0  0  0  0  0  0  0  0  0  0
    0.4188   -0.0046   -2.1947 H   0  0  0  0  0  0  0  0  0  0  0  0
    0.6116    0.5628    1.2402 C   0  0  0  0  0  0  0  0  0  0  0  0
    1.1157    0.0542    2.2411 O   0  0  0  0  0  0  0  0  0  0  0  0
    0.1907    1.8337    1.2125 N   0  0  0  0  0  0  0  0  0  0  0  0
   -0.2168    2.1775    0.3577 H   0  0  0  0  0  0  0  0  0  0  0  0
    0.2861    2.7505    2.3475 C   0  0  0  0  0  0  0  0  0  0  0  0
    1.3215    2.8070    2.6894 H   0  0  0  0  0  0  0  0  0  0  0  0
   -0.0517    3.7472    2.0602 H   0  0  0  0  0  0  0  0  0  0  0  0
   -0.3305    2.3834    3.1698 H   0  0  0  0  0  0  0  0  0  0  0  0
  5  6  2  0  0  0  0
  5  7  1  0  0  0  0
  2  3  1  0  0  0  0
  2  4  1  0  0  0  0
  2  5  1  0  0  0  0
  1  2  1  0  0  0  0
 15 16  2  0  0  0  0
 15 17  1  0  0  0  0
 11 12  1  0  0  0  0
 11 13  1  0  0  0  0
 11 14  1  0  0  0  0
  9 10  1  0  0  0  0
  9 11  1  0  0  0  0
  9 15  1  0  0  0  0
  7  8  1  0  0  0  0
  7  9  1  0  0  0  0
 19 20  1  0  0  0  0
 19 21  1  0  0  0  0
 19 22  1  0  0  0  0
 17 18  1  0  0  0  0
 17 19  1  0  0  0  0
M  END
$$$$
default_name
  -OEChem-01062215323D

 22 21  0     1  0  0  0  0  0999 V2000
   -2.5423   -3.6749    0.8058 H   0  0  0  0  0  0  0  0  0  0  0  0
   -2.5063   -2.6779    0.3688 C   0  0  0  0  0  0  0  0  0  0  0  0
   -3.1603   -2.0109    0.9268 H   0  0  0  0  0  0  0  0  0  0  0  0
   -2.8193   -2.7229   -0.6722 H   0  0  0  0  0  0  0  0  0  0  0  0
   -1.0873   -2.1629    0.4418 C   0  0  0  0  0  0  0  0  0  0  0  0
   -0.2073   -2.8549    0.9368 O   0  0  0  0  0  0  0  0  0  0  0  0
   -0.8713   -0.9449   -0.0482 N   0  0  0  0  0  0  0  0  0  0  0  0
   -1.6543   -0.4189   -0.4062 H   0  0  0  0  0  0  0  0  0  0  0  0
    0.4237   -0.2649   -0.0462 C   0  0  1  0  0  0  0  0  0  0  0  0
    1.2158   -1.0147   -0.0815 H   0  0  0  0  0  0  0  0  0  0  0  0
    0.5273    0.6139   -1.3022 C   0  0  0  0  0  0  0  0  0  0  0  0
   -0.2588    1.3708   -1.2920 H   0  0  0  0  0  0  0  0  0  0  0  0
    1.4985    1.1067   -1.3339 H   0  0  0  0  0  0  0  0  0  0  0  0
    0.4188   -0.0046   -2.1947 H   0  0  0  0  0  0  0  0  0  0  0  0
    0.6116    0.5628    1.2402 C   0  0  0  0  0  0  0  0  0  0  0  0
    1.3502    0.1602    2.1386 O   0  0  0  0  0  0  0  0  0  0  0  0
   -0.0708    1.7115    1.3294 N   0  0  0  0  0  0  0  0  0  0  0  0
   -0.6600    1.9719    0.5547 H   0  0  0  0  0  0  0  0  0  0  0  0
   -0.0129    2.6084    2.4826 C   0  0  0  0  0  0  0  0  0  0  0  0
    1.0244    2.8840    2.6832 H   0  0  0  0  0  0  0  0  0  0  0  0
   -0.5934    3.5119    2.2907 H   0  0  0  0  0  0  0  0  0  0  0  0
   -0.4132    2.1022    3.3627 H   0  0  0  0  0  0  0  0  0  0  0  0
  5  6  2  0  0  0  0
  5  7  1  0  0  0  0
  2  3  1  0  0  0  0
  2  4  1  0  0  0  0
  2  5  1  0  0  0  0
  1  2  1  0  0  0  0
 15 16  2  0  0  0  0
 15 17  1  0  0  0  0
 11 12  1  0  0  0  0
 11 13  1  0  0  0  0
 11 14  1  0  0  0  0
  9 10  1  0  0  0  0
  9 11  1  0  0  0  0
  9 15  1  0  0  0  0
  7  8  1  0  0  0  0
  7  9  1  0  0  0  0
 19 20  1  0  0  0  0
 19 21  1  0  0  0  0
 19 22  1  0  0  0  0
 17 18  1  0  0  0  0
 17 19  1  0  0  0  0
M  END
$$$$
default_name
  -OEChem-01062215323D

 22 21  0     1  0  0  0  0  0999 V2000
   -2.5423   -3.6749    0.8058 H   0  0  0  0  0  0  0  0  0  0  0  0
   -2.5063   -2.6779    0.3688 C   0  0  0  0  0  0  0  0  0  0  0  0
   -3.1603   -2.0109    0.9268 H   0  0  0  0  0  0  0  0  0  0  0  0
   -2.8193   -2.7229   -0.6722 H   0  0  0  0  0  0  0  0  0  0  0  0
   -1.0873   -2.1629    0.4418 C   0  0  0  0  0  0  0  0  0  0  0  0
   -0.2073   -2.8549    0.9368 O   0  0  0  0  0  0  0  0  0  0  0  0
   -0.8713   -0.9449   -0.0482 N   0  0  0  0  0  0  0  0  0  0  0  0
   -1.6543   -0.4189   -0.4062 H   0  0  0  0  0  0  0  0  0  0  0  0
    0.4237   -0.2649   -0.0462 C   0  0  1  0  0  0  0  0  0  0  0  0
    1.2158   -1.0147   -0.0815 H   0  0  0  0  0  0  0  0  0  0  0  0
    0.5273    0.6139   -1.3022 C   0  0  0  0  0  0  0  0  0  0  0  0
   -0.2588    1.3708   -1.2920 H   0  0  0  0  0  0  0  0  0  0  0  0
    1.4985    1.1067   -1.3339 H   0  0  0  0  0  0  0  0  0  0  0  0
    0.4188   -0.0046   -2.1947 H   0  0  0  0  0  0  0  0  0  0  0  0
    0.6116    0.5628    1.2402 C   0  0  0  0  0  0  0  0  0  0  0  0
    1.5395    0.3166    2.0104 O   0  0  0  0  0  0  0  0  0  0  0  0
   -0.2808    1.5333    1.4747 N   0  0  0  0  0  0  0  0  0  0  0  0
   -1.0162    1.6714    0.8001 H   0  0  0  0  0  0  0  0  0  0  0  0
   -0.2523    2.4023    2.6502 C   0  0  0  0  0  0  0  0  0  0  0  0
    0.7199    2.8943    2.7210 H   0  0  0  0  0  0  0  0  0  0  0  0
   -1.0338    3.1603    2.5813 H   0  0  0  0  0  0  0  0  0  0  0  0
   -0.4055    1.8067    3.5518 H   0  0  0  0  0  0  0  0  0  0  0  0
  5  6  2  0  0  0  0
  5  7  1  0  0  0  0
  2  3  1  0  0  0  0
  2  4  1  0  0  0  0
  2  5  1  0  0  0  0
  1  2  1  0  0  0  0
 15 16  2  0  0  0  0
 15 17  1  0  0  0  0
 11 12  1  0  0  0  0
 11 13  1  0  0  0  0
 11 14  1  0  0  0  0
  9 10  1  0  0  0  0
  9 11  1  0  0  0  0
  9 15  1  0  0  0  0
  7  8  1  0  0  0  0
  7  9  1  0  0  0  0
 19 20  1  0  0  0  0
 19 21  1  0  0  0  0
 19 22  1  0  0  0  0
 17 18  1  0  0  0  0
 17 19  1  0  0  0  0
M  END
$$$$
default_name
  -OEChem-01062215323D

 22 21  0     1  0  0  0  0  0999 V2000
   -2.5423   -3.6749    0.8058 H   0  0  0  0  0  0  0  0  0  0  0  0
   -2.5063   -2.6779    0.3688 C   0  0  0  0  0  0  0  0  0  0  0  0
   -3.1603   -2.0109    0.9268 H   0  0  0  0  0  0  0  0  0  0  0  0
   -2.8193   -2.7229   -0.6722 H   0  0  0  0  0  0  0  0  0  0  0  0
   -1.0873   -2.1629    0.4418 C   0  0  0  0  0  0  0  0  0  0  0  0
   -0.2073   -2.8549    0.9368 O   0  0  0  0  0  0  0  0  0  0  0  0
   -0.8713   -0.9449   -0.0482 N   0  0  0  0  0  0  0  0  0  0  0  0
   -1.6543   -0.4189   -0.4062 H   0  0  0  0  0  0  0  0  0  0  0  0
    0.4237   -0.2649   -0.0462 C   0  0  1  0  0  0  0  0  0  0  0  0
    1.2158   -1.0147   -0.0815 H   0  0  0  0  0  0  0  0  0  0  0  0
    0.5273    0.6139   -1.3022 C   0  0  0  0  0  0  0  0  0  0  0  0
   -0.2588    1.3708   -1.2920 H   0  0  0  0  0  0  0  0  0  0  0  0
    1.4985    1.1067   -1.3339 H   0  0  0  0  0  0  0  0  0  0  0  0
    0.4188   -0.0046   -2.1947 H   0  0  0  0  0  0  0  0  0  0  0  0
    0.6116    0.5628    1.2402 C   0  0  0  0  0  0  0  0  0  0  0  0
    1.6707    0.5125    1.8651 O   0  0  0  0  0  0  0  0  0  0  0  0
   -0.4249    1.3112    1.6387 N   0  0  0  0  0  0  0  0  0  0  0  0
   -1.2613    1.2964    1.0772 H   0  0  0  0  0  0  0  0  0  0  0  0
   -0.4157    2.1463    2.8388 C   0  0  0  0  0  0  0  0  0  0  0  0
    0.4288    2.8373    2.8002 H   0  0  0  0  0  0  0  0  0  0  0  0
   -1.3428    2.7164    2.9120 H   0  0  0  0  0  0  0  0  0  0  0  0
   -0.3079    1.5170    3.7240 H   0  0  0  0  0  0  0  0  0  0  0  0
  5  6  2  0  0  0  0
  5  7  1  0  0  0  0
  2  3  1  0  0  0  0
  2  4  1  0  0  0  0
  2  5  1  0  0  0  0
  1  2  1  0  0  0  0
 15 16  2  0  0  0  0
 15 17  1  0  0  0  0
 11 12  1  0  0  0  0
 11 13  1  0  0  0  0
 11 14  1  0  0  0  0
  9 10  1  0  0  0  0
  9 11  1  0  0  0  0
  9 15  1  0  0  0  0
  7  8  1  0  0  0  0
  7  9  1  0  0  0  0
 19 20  1  0  0  0  0
 19 21  1  0  0  0  0
 19 22  1  0  0  0  0
 17 18  1  0  0  0  0
 17 19  1  0  0  0  0
M  END
$$$$
default_name
  -OEChem-01062215323D

 22 21  0     1  0  0  0  0  0999 V2000
   -2.5423   -3.6749    0.8058 H   0  0  0  0  0  0  0  0  0  0  0  0
   -2.5063   -2.6779    0.3688 C   0  0  0  0  0  0  0  0  0  0  0  0
   -3.1603   -2.0109    0.9268 H   0  0  0  0  0  0  0  0  0  0  0  0
   -2.8193   -2.7229   -0.6722 H   0  0  0  0  0  0  0  0  0  0  0  0
   -1.0873   -2.1629    0.4418 C   0  0  0  0  0  0  0  0  0  0  0  0
   -0.2073   -2.8549    0.9368 O   0  0  0  0  0  0  0  0  0  0  0  0
   -0.8713   -0.9449   -0.0482 N   0  0  0  0  0  0  0  0  0  0  0  0
   -1.6543   -0.4189   -0.4062 H   0  0  0  0  0  0  0  0  0  0  0  0
    0.4237   -0.2649   -0.0462 C   0  0  1  0  0  0  0  0  0  0  0  0
    1.2158   -1.0147   -0.0815 H   0  0  0  0  0  0  0  0  0  0  0  0
    0.5273    0.6139   -1.3022 C   0  0  0  0  0  0  0  0  0  0  0  0
   -0.2588    1.3708   -1.2920 H   0  0  0  0  0  0  0  0  0  0  0  0
    1.4985    1.1067   -1.3339 H   0  0  0  0  0  0  0  0  0  0  0  0
    0.4188   -0.0046   -2.1947 H   0  0  0  0  0  0  0  0  0  0  0  0
    0.6116    0.5628    1.2402 C   0  0  0  0  0  0  0  0  0  0  0  0
    1.7349    0.7348    1.7128 O   0  0  0  0  0  0  0  0  0  0  0  0
   -0.4933    1.0603    1.8101 N   0  0  0  0  0  0  0  0  0  0  0  0
   -1.3784    0.8725    1.3671 H   0  0  0  0  0  0  0  0  0  0  0  0
   -0.4919    1.8576    3.0357 C   0  0  0  0  0  0  0  0  0  0  0  0
    0.1709    2.7169    2.9154 H   0  0  0  0  0  0  0  0  0  0  0  0
   -1.4995    2.2104    3.2605 H   0  0  0  0  0  0  0  0  0  0  0  0
   -0.1272    1.2527    3.8676 H   0  0  0  0  0  0  0  0  0  0  0  0
  5  6  2  0  0  0  0
  5  7  1  0  0  0  0
  2  3  1  0  0  0  0
  2  4  1  0  0  0  0
  2  5  1  0  0  0  0
  1  2  1  0  0  0  0
 15 16  2  0  0  0  0
 15 17  1  0  0  0  0
 11 12  1  0  0  0  0
 11 13  1  0  0  0  0
 11 14  1  0  0  0  0
  9 10  1  0  0  0  0
  9 11  1  0  0  0  0
  9 15  1  0  0  0  0
  7  8  1  0  0  0  0
  7  9  1  0  0  0  0
 19 20  1  0  0  0  0
 19 21  1  0  0  0  0
 19 22  1  0  0  0  0
 17 18  1  0  0  0  0
 17 19  1  0  0  0  0
M  END
$$$$
default_name
  -OEChem-01062215323D

 22 21  0     1  0  0  0  0  0999 V2000
   -2.5423   -3.6749    0.8058 H   0  0  0  0  0  0  0  0  0  0  0  0
   -2.5063   -2.6779    0.3688 C   0  0  0  0  0  0  0  0  0  0  0  0
   -3.1603   -2.0109    0.9268 H   0  0  0  0  0  0  0  0  0  0  0  0
   -2.8193   -2.7229   -0.6722 H   0  0  0  0  0  0  0  0  0  0  0  0
   -1.0873   -2.1629    0.4418 C   0  0  0  0  0  0  0  0  0  0  0  0
   -0.2073   -2.8549    0.9368 O   0  0  0  0  0  0  0  0  0  0  0  0
   -0.8713   -0.9449   -0.0482 N   0  0  0  0  0  0  0  0  0  0  0  0
   -1.6543   -0.4189   -0.4062 H   0  0  0  0  0  0  0  0  0  0  0  0
    0.4237   -0.2649   -0.0462 C   0  0  1  0  0  0  0  0  0  0  0  0
    1.2158   -1.0147   -0.0815 H   0  0  0  0  0  0  0  0  0  0  0  0
    0.5273    0.6139   -1.3022 C   0  0  0  0  0  0  0  0  0  0  0  0
   -0.2588    1.3708   -1.2920 H   0  0  0  0  0  0  0  0  0  0  0  0
    1.4985    1.1067   -1.3339 H   0  0  0  0  0  0  0  0  0  0  0  0
    0.4188   -0.0046   -2.1947 H   0  0  0  0  0  0  0  0  0  0  0  0
    0.6116    0.5628    1.2402 C   0  0  0  0  0  0  0  0  0  0  0  0
    1.7278    0.9681    1.5637 O   0  0  0  0  0  0  0  0  0  0  0  0
   -0.4814    0.7978    1.9772 N   0  0  0  0  0  0  0  0  0  0  0  0
   -1.3598    0.4286    1.6500 H   0  0  0  0  0  0  0  0  0  0  0  0
   -0.4759    1.5562    3.2273 C   0  0  0  0  0  0  0  0  0  0  0  0
   -0.0362    2.5412    3.0586 H   0  0  0  0  0  0  0  0  0  0  0  0
   -1.4930    1.6769    3.6029 H   0  0  0  0  0  0  0  0  0  0  0  0
    0.1244    1.0320    3.9729 H   0  0  0  0  0  0  0  0  0  0  0  0
  5  6  2  0  0  0  0
  5  7  1  0  0  0  0
  2  3  1  0  0  0  0
  2  4  1  0  0  0  0
  2  5  1  0  0  0  0
  1  2  1  0  0  0  0
 15 16  2  0  0  0  0
 15 17  1  0  0  0  0
 11 12  1  0  0  0  0
 11 13  1  0  0  0  0
 11 14  1  0  0  0  0
  9 10  1  0  0  0  0
  9 11  1  0  0  0  0
  9 15  1  0  0  0  0
  7  8  1  0  0  0  0
  7  9  1  0  0  0  0
 19 20  1  0  0  0  0
 19 21  1  0  0  0  0
 19 22  1  0  0  0  0
 17 18  1  0  0  0  0
 17 19  1  0  0  0  0
M  END
$$$$
default_name
  -OEChem-01062215323D

 22 21  0     1  0  0  0  0  0999 V2000
   -2.5423   -3.6749    0.8058 H   0  0  0  0  0  0  0  0  0  0  0  0
   -2.5063   -2.6779    0.3688 C   0  0  0  0  0  0  0  0  0  0  0  0
   -3.1603   -2.0109    0.9268 H   0  0  0  0  0  0  0  0  0  0  0  0
   -2.8193   -2.7229   -0.6722 H   0  0  0  0  0  0  0  0  0  0  0  0
   -1.0873   -2.1629    0.4418 C   0  0  0  0  0  0  0  0  0  0  0  0
   -0.2073   -2.8549    0.9368 O   0  0  0  0  0  0  0  0  0  0  0  0
   -0.8713   -0.9449   -0.0482 N   0  0  0  0  0  0  0  0  0  0  0  0
   -1.6543   -0.4189   -0.4062 H   0  0  0  0  0  0  0  0  0  0  0  0
    0.4237   -0.2649   -0.0462 C   0  0  1  0  0  0  0  0  0  0  0  0
    1.2158   -1.0147   -0.0815 H   0  0  0  0  0  0  0  0  0  0  0  0
    0.5273    0.6139   -1.3022 C   0  0  0  0  0  0  0  0  0  0  0  0
   -0.2588    1.3708   -1.2920 H   0  0  0  0  0  0  0  0  0  0  0  0
    1.4985    1.1067   -1.3339 H   0  0  0  0  0  0  0  0  0  0  0  0
    0.4188   -0.0046   -2.1947 H   0  0  0  0  0  0  0  0  0  0  0  0
    0.6116    0.5628    1.2402 C   0  0  0  0  0  0  0  0  0  0  0  0
    1.6498    1.1966    1.4280 O   0  0  0  0  0  0  0  0  0  0  0  0
   -0.3899    0.5416    2.1288 N   0  0  0  0  0  0  0  0  0  0  0  0
   -1.2065   -0.0051    1.9066 H   0  0  0  0  0  0  0  0  0  0  0  0
   -0.3687    1.2624    3.4007 C   0  0  0  0  0  0  0  0  0  0  0  0
   -0.1784    2.3223    3.2203 H   0  0  0  0  0  0  0  0  0  0  0  0
   -1.3239    1.1520    3.9159 H   0  0  0  0  0  0  0  0  0  0  0  0
    0.4298    0.8699    4.0326 H   0  0  0  0  0  0  0  0  0  0  0  0
  5  6  2  0  0  0  0
  5  7  1  0  0  0  0
  2  3  1  0  0  0  0
  2  4  1  0  0  0  0
  2  5  1  0  0  0  0
  1  2  1  0  0  0  0
 15 16  2  0  0  0  0
 15 17  1  0  0  0  0
 11 12  1  0  0  0  0
 11 13  1  0  0  0  0
 11 14  1  0  0  0  0
  9 10  1  0  0  0  0
  9 11  1  0  0  0  0
  9 15  1  0  0  0  0
  7  8  1  0  0  0  0
  7  9  1  0  0  0  0
 19 20  1  0  0  0  0
 19 21  1  0  0  0  0
 19 22  1  0  0  0  0
 17 18  1  0  0  0  0
 17 19  1  0  0  0  0
M  END
$$$$
default_name
  -OEChem-01062215323D

 22 21  0     1  0  0  0  0  0999 V2000
   -2.5423   -3.6749    0.8058 H   0  0  0  0  0  0  0  0  0  0  0  0
   -2.5063   -2.6779    0.3688 C   0  0  0  0  0  0  0  0  0  0  0  0
   -3.1603   -2.0109    0.9268 H   0  0  0  0  0  0  0  0  0  0  0  0
   -2.8193   -2.7229   -0.6722 H   0  0  0  0  0  0  0  0  0  0  0  0
   -1.0873   -2.1629    0.4418 C   0  0  0  0  0  0  0  0  0  0  0  0
   -0.2073   -2.8549    0.9368 O   0  0  0  0  0  0  0  0  0  0  0  0
   -0.8713   -0.9449   -0.0482 N   0  0  0  0  0  0  0  0  0  0  0  0
   -1.6543   -0.4189   -0.4062 H   0  0  0  0  0  0  0  0  0  0  0  0
    0.4237   -0.2649   -0.0462 C   0  0  1  0  0  0  0  0  0  0  0  0
    1.2158   -1.0147   -0.0815 H   0  0  0  0  0  0  0  0  0  0  0  0
    0.5273    0.6139   -1.3022 C   0  0  0  0  0  0  0  0  0  0  0  0
   -0.2588    1.3708   -1.2920 H   0  0  0  0  0  0  0  0  0  0  0  0
    1.4985    1.1067   -1.3339 H   0  0  0  0  0  0  0  0  0  0  0  0
    0.4188   -0.0046   -2.1947 H   0  0  0  0  0  0  0  0  0  0  0  0
    0.6116    0.5628    1.2402 C   0  0  0  0  0  0  0  0  0  0  0  0
    1.5062    1.4048    1.3150 O   0  0  0  0  0  0  0  0  0  0  0  0
   -0.2252    0.3090    2.2543 N   0  0  0  0  0  0  0  0  0  0  0  0
   -0.9291   -0.3990    2.1196 H   0  0  0  0  0  0  0  0  0  0  0  0
   -0.1775    0.9964    3.5440 C   0  0  0  0  0  0  0  0  0  0  0  0
   -0.2459    2.0750    3.3892 H   0  0  0  0  0  0  0  0  0  0  0  0
   -1.0037    0.6718    4.1782 H   0  0  0  0  0  0  0  0  0  0  0  0
    0.7681    0.7773    4.0428 H   0  0  0  0  0  0  0  0  0  0  0  0
  5  6  2  0  0  0  0
  5  7  1  0  0  0  0
  2  3  1  0  0  0  0
  2  4  1  0  0  0  0
  2  5  1  0  0  0  0
  1  2  1  0  0  0  0
 15 16  2  0  0  0  0
 15 17  1  0  0  0  0
 11 12  1  0  0  0  0
 11 13  1  0  0  0  0
 11 14  1  0  0  0  0
  9 10  1  0  0  0  0
  9 11  1  0  0  0  0
  9 15  1  0  0  0  0
  7  8  1  0  0  0  0
  7  9  1  0  0  0  0
 19 20  1  0  0  0  0
 19 21  1  0  0  0  0
 19 22  1  0  0  0  0
 17 18  1  0  0  0  0
 17 19  1  0  0  0  0
M  END
$$$$
default_name
  -OEChem-01062215323D

 22 21  0     1  0  0  0  0  0999 V2000
   -2.5423   -3.6749    0.8058 H   0  0  0  0  0  0  0  0  0  0  0  0
   -2.5063   -2.6779    0.3688 C   0  0  0  0  0  0  0  0  0  0  0  0
   -3.1603   -2.0109    0.9268 H   0  0  0  0  0  0  0  0  0  0  0  0
   -2.8193   -2.7229   -0.6722 H   0  0  0  0  0  0  0  0  0  0  0  0
   -1.0873   -2.1629    0.4418 C   0  0  0  0  0  0  0  0  0  0  0  0
   -0.2073   -2.8549    0.9368 O   0  0  0  0  0  0  0  0  0  0  0  0
   -0.8713   -0.9449   -0.0482 N   0  0  0  0  0  0  0  0  0  0  0  0
   -1.6543   -0.4189   -0.4062 H   0  0  0  0  0  0  0  0  0  0  0  0
    0.4237   -0.2649   -0.0462 C   0  0  1  0  0  0  0  0  0  0  0  0
    1.2158   -1.0147   -0.0815 H   0  0  0  0  0  0  0  0  0  0  0  0
    0.5273    0.6139   -1.3022 C   0  0  0  0  0  0  0  0  0  0  0  0
   -0.2588    1.3708   -1.2920 H   0  0  0  0  0  0  0  0  0  0  0  0
    1.4985    1.1067   -1.3339 H   0  0  0  0  0  0  0  0  0  0  0  0
    0.4188   -0.0046   -2.1947 H   0  0  0  0  0  0  0  0  0  0  0  0
    0.6116    0.5628    1.2402 C   0  0  0  0  0  0  0  0  0  0  0  0
    1.3068    1.5784    1.2324 O   0  0  0  0  0  0  0  0  0  0  0  0
    0.0017    0.1161    2.3454 N   0  0  0  0  0  0  0  0  0  0  0  0
   -0.5464   -0.7263    2.2743 H   0  0  0  0  0  0  0  0  0  0  0  0
    0.0845    0.7761    3.6474 C   0  0  0  0  0  0  0  0  0  0  0  0
   -0.2342    1.8162    3.5541 H   0  0  0  0  0  0  0  0  0  0  0  0
   -0.5542    0.2688    4.3718 H   0  0  0  0  0  0  0  0  0  0  0  0
    1.1163    0.7607    4.0026 H   0  0  0  0  0  0  0  0  0  0  0  0
  5  6  2  0  0  0  0
  5  7  1  0  0  0  0
  2  3  1  0  0  0  0
  2  4  1  0  0  0  0
  2  5  1  0  0  0  0
  1  2  1  0  0  0  0
 15 16  2  0  0  0  0
 15 17  1  0  0  0  0
 11 12  1  0  0  0  0
 11 13  1  0  0  0  0
 11 14  1  0  0  0  0
  9 10  1  0  0  0  0
  9 11  1  0  0  0  0
  9 15  1  0  0  0  0
  7  8  1  0  0  0  0
  7  9  1  0  0  0  0
 19 20  1  0  0  0  0
 19 21  1  0  0  0  0
 19 22  1  0  0  0  0
 17 18  1  0  0  0  0
 17 19  1  0  0  0  0
M  END
$$$$
default_name
  -OEChem-01062215323D

 22 21  0     1  0  0  0  0  0999 V2000
   -2.5423   -3.6749    0.8058 H   0  0  0  0  0  0  0  0  0  0  0  0
   -2.5063   -2.6779    0.3688 C   0  0  0  0  0  0  0  0  0  0  0  0
   -3.1603   -2.0109    0.9268 H   0  0  0  0  0  0  0  0  0  0  0  0
   -2.8193   -2.7229   -0.6722 H   0  0  0  0  0  0  0  0  0  0  0  0
   -1.0873   -2.1629    0.4418 C   0  0  0  0  0  0  0  0  0  0  0  0
   -0.2073   -2.8549    0.9368 O   0  0  0  0  0  0  0  0  0  0  0  0
   -0.8713   -0.9449   -0.0482 N   0  0  0  0  0  0  0  0  0  0  0  0
   -1.6543   -0.4189   -0.4062 H   0  0  0  0  0  0  0  0  0  0  0  0
    0.4237   -0.2649   -0.0462 C   0  0  1  0  0  0  0  0  0  0  0  0
    1.2158   -1.0147   -0.0815 H   0  0  0  0  0  0  0  0  0  0  0  0
    0.5273    0.6139   -1.3022 C   0  0  0  0  0  0  0  0  0  0  0  0
   -0.2588    1.3708   -1.2920 H   0  0  0  0  0  0  0  0  0  0  0  0
    1.4985    1.1067   -1.3339 H   0  0  0  0  0  0  0  0  0  0  0  0
    0.4188   -0.0046   -2.1947 H   0  0  0  0  0  0  0  0  0  0  0  0
    0.6116    0.5628    1.2402 C   0  0  0  0  0  0  0  0  0  0  0  0
    1.0652    1.7057    1.1858 O   0  0  0  0  0  0  0  0  0  0  0  0
    0.2751   -0.0242    2.3957 N   0  0  0  0  0  0  0  0  0  0  0  0
   -0.0846   -0.9646    2.3602 H   0  0  0  0  0  0  0  0  0  0  0  0
    0.3996    0.6168    3.7040 C   0  0  0  0  0  0  0  0  0  0  0  0
   -0.1441    1.5636    3.7035 H   0  0  0  0  0  0  0  0  0  0  0  0
   -0.0060   -0.0295    4.4837 H   0  0  0  0  0  0  0  0  0  0  0  0
    1.4506    0.8211    3.9149 H   0  0  0  0  0  0  0  0  0  0  0  0
  5  6  2  0  0  0  0
  5  7  1  0  0  0  0
  2  3  1  0  0  0  0
  2  4  1  0  0  0  0
  2  5  1  0  0  0  0
  1  2  1  0  0  0  0
 15 16  2  0  0  0  0
 15 17  1  0  0  0  0
 11 12  1  0  0  0  0
 11 13  1  0  0  0  0
 11 14  1  0  0  0  0
  9 10  1  0  0  0  0
  9 11  1  0  0  0  0
  9 15  1  0  0  0  0
  7  8  1  0  0  0  0
  7  9  1  0  0  0  0
 19 20  1  0  0  0  0
 19 21  1  0  0  0  0
 19 22  1  0  0  0  0
 17 18  1  0  0  0  0
 17 19  1  0  0  0  0
M  END
$$$$
default_name
  -OEChem-01062215323D

 22 21  0     1  0  0  0  0  0999 V2000
   -2.5423   -3.6749    0.8058 H   0  0  0  0  0  0  0  0  0  0  0  0
   -2.5063   -2.6779    0.3688 C   0  0  0  0  0  0  0  0  0  0  0  0
   -3.1603   -2.0109    0.9268 H   0  0  0  0  0  0  0  0  0  0  0  0
   -2.8193   -2.7229   -0.6722 H   0  0  0  0  0  0  0  0  0  0  0  0
   -1.0873   -2.1629    0.4418 C   0  0  0  0  0  0  0  0  0  0  0  0
   -0.2073   -2.8549    0.9368 O   0  0  0  0  0  0  0  0  0  0  0  0
   -0.8713   -0.9449   -0.0482 N   0  0  0  0  0  0  0  0  0  0  0  0
   -1.6543   -0.4189   -0.4062 H   0  0  0  0  0  0  0  0  0  0  0  0
    0.4237   -0.2649   -0.0462 C   0  0  1  0  0  0  0  0  0  0  0  0
    1.2158   -1.0147   -0.0815 H   0  0  0  0  0  0  0  0  0  0  0  0
    0.5273    0.6139   -1.3022 C   0  0  0  0  0  0  0  0  0  0  0  0
   -0.2588    1.3708   -1.2920 H   0  0  0  0  0  0  0  0  0  0  0  0
    1.4985    1.1067   -1.3339 H   0  0  0  0  0  0  0  0  0  0  0  0
    0.4188   -0.0046   -2.1947 H   0  0  0  0  0  0  0  0  0  0  0  0
    0.6116    0.5628    1.2402 C   0  0  0  0  0  0  0  0  0  0  0  0
    0.7979    1.7779    1.1784 O   0  0  0  0  0  0  0  0  0  0  0  0
    0.5766   -0.1022    2.4019 N   0  0  0  0  0  0  0  0  0  0  0  0
    0.4249   -1.0977    2.3715 H   0  0  0  0  0  0  0  0  0  0  0  0
    0.7462    0.5291    3.7098 C   0  0  0  0  0  0  0  0  0  0  0  0
    0.0182    1.3343    3.8273 H   0  0  0  0  0  0  0  0  0  0  0  0
    0.6035   -0.2027    4.5062 H   0  0  0  0  0  0  0  0  0  0  0  0
    1.7483    0.9545    3.7857 H   0  0  0  0  0  0  0  0  0  0  0  0
  5  6  2  0  0  0  0
  5  7  1  0  0  0  0
  2  3  1  0  0  0  0
  2  4  1  0  0  0  0
  2  5  1  0  0  0  0
  1  2  1  0  0  0  0
 15 16  2  0  0  0  0
 15 17  1  0  0  0  0
 11 12  1  0  0  0  0
 11 13  1  0  0  0  0
 11 14  1  0  0  0  0
  9 10  1  0  0  0  0
  9 11  1  0  0  0  0
  9 15  1  0  0  0  0
  7  8  1  0  0  0  0
  7  9  1  0  0  0  0
 19 20  1  0  0  0  0
 19 21  1  0  0  0  0
 19 22  1  0  0  0  0
 17 18  1  0  0  0  0
 17 19  1  0  0  0  0
M  END
$$$$
default_name
  -OEChem-01062215323D

 22 21  0     1  0  0  0  0  0999 V2000
   -2.5423   -3.6749    0.8058 H   0  0  0  0  0  0  0  0  0  0  0  0
   -2.5063   -2.6779    0.3688 C   0  0  0  0  0  0  0  0  0  0  0  0
   -3.1603   -2.0109    0.9268 H   0  0  0  0  0  0  0  0  0  0  0  0
   -2.8193   -2.7229   -0.6722 H   0  0  0  0  0  0  0  0  0  0  0  0
   -1.0873   -2.1629    0.4418 C   0  0  0  0  0  0  0  0  0  0  0  0
   -0.2073   -2.8549    0.9368 O   0  0  0  0  0  0  0  0  0  0  0  0
   -0.8713   -0.9449   -0.0482 N   0  0  0  0  0  0  0  0  0  0  0  0
   -1.6543   -0.4189   -0.4062 H   0  0  0  0  0  0  0  0  0  0  0  0
    0.4237   -0.2649   -0.0462 C   0  0  1  0  0  0  0  0  0  0  0  0
    1.2158   -1.0147   -0.0815 H   0  0  0  0  0  0  0  0  0  0  0  0
    0.5273    0.6139   -1.3022 C   0  0  0  0  0  0  0  0  0  0  0  0
   -0.2588    1.3708   -1.2920 H   0  0  0  0  0  0  0  0  0  0  0  0
    1.4985    1.1067   -1.3339 H   0  0  0  0  0  0  0  0  0  0  0  0
    0.4188   -0.0046   -2.1947 H   0  0  0  0  0  0  0  0  0  0  0  0
    0.6116    0.5628    1.2402 C   0  0  0  0  0  0  0  0  0  0  0  0
    0.5231    1.7901    1.2107 O   0  0  0  0  0  0  0  0  0  0  0  0
    0.8854   -0.1126    2.3635 N   0  0  0  0  0  0  0  0  0  0  0  0
    0.9474   -1.1166    2.3073 H   0  0  0  0  0  0  0  0  0  0  0  0
    1.1007    0.5191    3.6644 C   0  0  0  0  0  0  0  0  0  0  0  0
    0.2418    1.1440    3.9171 H   0  0  0  0  0  0  0  0  0  0  0  0
    1.2327   -0.2390    4.4377 H   0  0  0  0  0  0  0  0  0  0  0  0
    1.9891    1.1517    3.6236 H   0  0  0  0  0  0  0  0  0  0  0  0
  5  6  2  0  0  0  0
  5  7  1  0  0  0  0
  2  3  1  0  0  0  0
  2  4  1  0  0  0  0
  2  5  1  0  0  0  0
  1  2  1  0  0  0  0
 15 16  2  0  0  0  0
 15 17  1  0  0  0  0
 11 12  1  0  0  0  0
 11 13  1  0  0  0  0
 11 14  1  0  0  0  0
  9 10  1  0  0  0  0
  9 11  1  0  0  0  0
  9 15  1  0  0  0  0
  7  8  1  0  0  0  0
  7  9  1  0  0  0  0
 19 20  1  0  0  0  0
 19 21  1  0  0  0  0
 19 22  1  0  0  0  0
 17 18  1  0  0  0  0
 17 19  1  0  0  0  0
M  END
$$$$
default_name
  -OEChem-01062215323D

 22 21  0     1  0  0  0  0  0999 V2000
   -2.5423   -3.6749    0.8058 H   0  0  0  0  0  0  0  0  0  0  0  0
   -2.5063   -2.6779    0.3688 C   0  0  0  0  0  0  0  0  0  0  0  0
   -3.1603   -2.0109    0.9268 H   0  0  0  0  0  0  0  0  0  0  0  0
   -2.8193   -2.7229   -0.6722 H   0  0  0  0  0  0  0  0  0  0  0  0
   -1.0873   -2.1629    0.4418 C   0  0  0  0  0  0  0  0  0  0  0  0
   -0.2073   -2.8549    0.9368 O   0  0  0  0  0  0  0  0  0  0  0  0
   -0.8713   -0.9449   -0.0482 N   0  0  0  0  0  0  0  0  0  0  0  0
   -1.6543   -0.4189   -0.4062 H   0  0  0  0  0  0  0  0  0  0  0  0
    0.4237   -0.2649   -0.0462 C   0  0  1  0  0  0  0  0  0  0  0  0
    1.2158   -1.0147   -0.0815 H   0  0  0  0  0  0  0  0  0  0  0  0
    0.5273    0.6139   -1.3022 C   0  0  0  0  0  0  0  0  0  0  0  0
   -0.2588    1.3708   -1.2920 H   0  0  0  0  0  0  0  0  0  0  0  0
    1.4985    1.1067   -1.3339 H   0  0  0  0  0  0  0  0  0  0  0  0
    0.4188   -0.0046   -2.1947 H   0  0  0  0  0  0  0  0  0  0  0  0
    0.6116    0.5628    1.2402 C   0  0  0  0  0  0  0  0  0  0  0  0
    0.2595    1.7415    1.2804 O   0  0  0  0  0  0  0  0  0  0  0  0
    1.1807   -0.0547    2.2831 N   0  0  0  0  0  0  0  0  0  0  0  0
    1.4472   -1.0200    2.1722 H   0  0  0  0  0  0  0  0  0  0  0  0
    1.4391    0.5875    3.5710 C   0  0  0  0  0  0  0  0  0  0  0  0
    0.5113    1.0056    3.9668 H   0  0  0  0  0  0  0  0  0  0  0  0
    1.8389   -0.1360    4.2829 H   0  0  0  0  0  0  0  0  0  0  0  0
    2.1566    1.3993    3.4398 H   0  0  0  0  0  0  0  0  0  0  0  0
  5  6  2  0  0  0  0
  5  7  1  0  0  0  0
  2  3  1  0  0  0  0
  2  4  1  0  0  0  0
  2  5  1  0  0  0  0
  1  2  1  0  0  0  0
 15 16  2  0  0  0  0
 15 17  1  0  0  0  0
 11 12  1  0  0  0  0
 11 13  1  0  0  0  0
 11 14  1  0  0  0  0
  9 10  1  0  0  0  0
  9 11  1  0  0  0  0
  9 15  1  0  0  0  0
  7  8  1  0  0  0  0
  7  9  1  0  0  0  0
 19 20  1  0  0  0  0
 19 21  1  0  0  0  0
 19 22  1  0  0  0  0
 17 18  1  0  0  0  0
 17 19  1  0  0  0  0
M  END
$$$$
default_name
  -OEChem-01062215323D

 22 21  0     1  0  0  0  0  0999 V2000
   -2.5423   -3.6749    0.8058 H   0  0  0  0  0  0  0  0  0  0  0  0
   -2.5063   -2.6779    0.3688 C   0  0  0  0  0  0  0  0  0  0  0  0
   -3.1603   -2.0109    0.9268 H   0  0  0  0  0  0  0  0  0  0  0  0
   -2.8193   -2.7229   -0.6722 H   0  0  0  0  0  0  0  0  0  0  0  0
   -1.0873   -2.1629    0.4418 C   0  0  0  0  0  0  0  0  0  0  0  0
   -0.2073   -2.8549    0.9368 O   0  0  0  0  0  0  0  0  0  0  0  0
   -0.8713   -0.9449   -0.0482 N   0  0  0  0  0  0  0  0  0  0  0  0
   -1.6543   -0.4189   -0.4062 H   0  0  0  0  0  0  0  0  0  0  0  0
    0.4237   -0.2649   -0.0462 C   0  0  1  0  0  0  0  0  0  0  0  0
    1.2158   -1.0147   -0.0815 H   0  0  0  0  0  0  0  0  0  0  0  0
    0.5273    0.6139   -1.3022 C   0  0  0  0  0  0  0  0  0  0  0  0
   -0.2588    1.3708   -1.2920 H   0  0  0  0  0  0  0  0  0  0  0  0
    1.4985    1.1067   -1.3339 H   0  0  0  0  0  0  0  0  0  0  0  0
    0.4188   -0.0046   -2.1947 H   0  0  0  0  0  0  0  0  0  0  0  0
    0.6116    0.5628    1.2402 C   0  0  0  0  0  0  0  0  0  0  0  0
    0.0250    1.6354    1.3829 O   0  0  0  0  0  0  0  0  0  0  0  0
    1.4422    0.0675    2.1663 N   0  0  0  0  0  0  0  0  0  0  0  0
    1.8903   -0.8144    1.9752 H   0  0  0  0  0  0  0  0  0  0  0  0
    1.7381    0.7296    3.4359 C   0  0  0  0  0  0  0  0  0  0  0  0
    0.8085    0.9287    3.9729 H   0  0  0  0  0  0  0  0  0  0  0  0
    2.3806    0.0993    4.0524 H   0  0  0  0  0  0  0  0  0  0  0  0
    2.2393    1.6804    3.2468 H   0  0  0  0  0  0  0  0  0  0  0  0
  5  6  2  0  0  0  0
  5  7  1  0  0  0  0
  2  3  1  0  0  0  0
  2  4  1  0  0  0  0
  2  5  1  0  0  0  0
  1  2  1  0  0  0  0
 15 16  2  0  0  0  0
 15 17  1  0  0  0  0
 11 12  1  0  0  0  0
 11 13  1  0  0  0  0
 11 14  1  0  0  0  0
  9 10  1  0  0  0  0
  9 11  1  0  0  0  0
  9 15  1  0  0  0  0
  7  8  1  0  0  0  0
  7  9  1  0  0  0  0
 19 20  1  0  0  0  0
 19 21  1  0  0  0  0
 19 22  1  0  0  0  0
 17 18  1  0  0  0  0
 17 19  1  0  0  0  0
M  END
$$$$
default_name
  -OEChem-01062215323D

 22 21  0     1  0  0  0  0  0999 V2000
   -2.5423   -3.6749    0.8058 H   0  0  0  0  0  0  0  0  0  0  0  0
   -2.5063   -2.6779    0.3688 C   0  0  0  0  0  0  0  0  0  0  0  0
   -3.1603   -2.0109    0.9268 H   0  0  0  0  0  0  0  0  0  0  0  0
   -2.8193   -2.7229   -0.6722 H   0  0  0  0  0  0  0  0  0  0  0  0
   -1.0873   -2.1629    0.4418 C   0  0  0  0  0  0  0  0  0  0  0  0
   -0.2073   -2.8549    0.9368 O   0  0  0  0  0  0  0  0  0  0  0  0
   -0.8713   -0.9449   -0.0482 N   0  0  0  0  0  0  0  0  0  0  0  0
   -1.6543   -0.4189   -0.4062 H   0  0  0  0  0  0  0  0  0  0  0  0
    0.4237   -0.2649   -0.0462 C   0  0  1  0  0  0  0  0  0  0  0  0
    1.2158   -1.0147   -0.0815 H   0  0  0  0  0  0  0  0  0  0  0  0
    0.5273    0.6139   -1.3022 C   0  0  0  0  0  0  0  0  0  0  0  0
   -0.2588    1.3708   -1.2920 H   0  0  0  0  0  0  0  0  0  0  0  0
    1.4985    1.1067   -1.3339 H   0  0  0  0  0  0  0  0  0  0  0  0
    0.4188   -0.0046   -2.1947 H   0  0  0  0  0  0  0  0  0  0  0  0
    0.6116    0.5628    1.2402 C   0  0  0  0  0  0  0  0  0  0  0  0
   -0.1643    1.4791    1.5112 O   0  0  0  0  0  0  0  0  0  0  0  0
    1.6522    0.2457    2.0209 N   0  0  0  0  0  0  0  0  0  0  0  0
    2.2466   -0.5138    1.7298 H   0  0  0  0  0  0  0  0  0  0  0  0
    1.9775    0.9357    3.2683 C   0  0  0  0  0  0  0  0  0  0  0  0
    1.1130    0.9183    3.9351 H   0  0  0  0  0  0  0  0  0  0  0  0
    2.8210    0.4509    3.7618 H   0  0  0  0  0  0  0  0  0  0  0  0
    2.2316    1.9759    3.0578 H   0  0  0  0  0  0  0  0  0  0  0  0
  5  6  2  0  0  0  0
  5  7  1  0  0  0  0
  2  3  1  0  0  0  0
  2  4  1  0  0  0  0
  2  5  1  0  0  0  0
  1  2  1  0  0  0  0
 15 16  2  0  0  0  0
 15 17  1  0  0  0  0
 11 12  1  0  0  0  0
 11 13  1  0  0  0  0
 11 14  1  0  0  0  0
  9 10  1  0  0  0  0
  9 11  1  0  0  0  0
  9 15  1  0  0  0  0
  7  8  1  0  0  0  0
  7  9  1  0  0  0  0
 19 20  1  0  0  0  0
 19 21  1  0  0  0  0
 19 22  1  0  0  0  0
 17 18  1  0  0  0  0
 17 19  1  0  0  0  0
M  END
$$$$
default_name
  -OEChem-01062215323D

 22 21  0     1  0  0  0  0  0999 V2000
   -2.5423   -3.6749    0.8058 H   0  0  0  0  0  0  0  0  0  0  0  0
   -2.5063   -2.6779    0.3688 C   0  0  0  0  0  0  0  0  0  0  0  0
   -3.1603   -2.0109    0.9268 H   0  0  0  0  0  0  0  0  0  0  0  0
   -2.8193   -2.7229   -0.6722 H   0  0  0  0  0  0  0  0  0  0  0  0
   -1.0873   -2.1629    0.4418 C   0  0  0  0  0  0  0  0  0  0  0  0
   -0.2073   -2.8549    0.9368 O   0  0  0  0  0  0  0  0  0  0  0  0
   -0.8713   -0.9449   -0.0482 N   0  0  0  0  0  0  0  0  0  0  0  0
   -1.6543   -0.4189   -0.4062 H   0  0  0  0  0  0  0  0  0  0  0  0
    0.4237   -0.2649   -0.0462 C   0  0  1  0  0  0  0  0  0  0  0  0
    1.2158   -1.0147   -0.0815 H   0  0  0  0  0  0  0  0  0  0  0  0
    0.5273    0.6139   -1.3022 C   0  0  0  0  0  0  0  0  0  0  0  0
   -0.2588    1.3708   -1.2920 H   0  0  0  0  0  0  0  0  0  0  0  0
    1.4985    1.1067   -1.3339 H   0  0  0  0  0  0  0  0  0  0  0  0
    0.4188   -0.0046   -2.1947 H   0  0  0  0  0  0  0  0  0  0  0  0
    0.6116    0.5628    1.2402 C   0  0  0  0  0  0  0  0  0  0  0  0
   -0.2955    1.2831    1.6564 O   0  0  0  0  0  0  0  0  0  0  0  0
    1.7963    0.4678    1.8570 N   0  0  0  0  0  0  0  0  0  0  0  0
    2.4916   -0.1388    1.4527 H   0  0  0  0  0  0  0  0  0  0  0  0
    2.1409    1.1918    3.0797 C   0  0  0  0  0  0  0  0  0  0  0  0
    1.4041    0.9753    3.8559 H   0  0  0  0  0  0  0  0  0  0  0  0
    3.1300    0.8948    3.4310 H   0  0  0  0  0  0  0  0  0  0  0  0
    2.1340    2.2657    2.8856 H   0  0  0  0  0  0  0  0  0  0  0  0
  5  6  2  0  0  0  0
  5  7  1  0  0  0  0
  2  3  1  0  0  0  0
  2  4  1  0  0  0  0
  2  5  1  0  0  0  0
  1  2  1  0  0  0  0
 15 16  2  0  0  0  0
 15 17  1  0  0  0  0
 11 12  1  0  0  0  0
 11 13  1  0  0  0  0
 11 14  1  0  0  0  0
  9 10  1  0  0  0  0
  9 11  1  0  0  0  0
  9 15  1  0  0  0  0
  7  8  1  0  0  0  0
  7  9  1  0  0  0  0
 19 20  1  0  0  0  0
 19 21  1  0  0  0  0
 19 22  1  0  0  0  0
 17 18  1  0  0  0  0
 17 19  1  0  0  0  0
M  END
$$$$
default_name
  -OEChem-01062215323D

 22 21  0     1  0  0  0  0  0999 V2000
   -2.5423   -3.6749    0.8058 H   0  0  0  0  0  0  0  0  0  0  0  0
   -2.5063   -2.6779    0.3688 C   0  0  0  0  0  0  0  0  0  0  0  0
   -3.1603   -2.0109    0.9268 H   0  0  0  0  0  0  0  0  0  0  0  0
   -2.8193   -2.7229   -0.6722 H   0  0  0  0  0  0  0  0  0  0  0  0
   -1.0873   -2.1629    0.4418 C   0  0  0  0  0  0  0  0  0  0  0  0
   -0.2073   -2.8549    0.9368 O   0  0  0  0  0  0  0  0  0  0  0  0
   -0.8713   -0.9449   -0.0482 N   0  0  0  0  0  0  0  0  0  0  0  0
   -1.6543   -0.4189   -0.4062 H   0  0  0  0  0  0  0  0  0  0  0  0
    0.4237   -0.2649   -0.0462 C   0  0  1  0  0  0  0  0  0  0  0  0
    1.2158   -1.0147   -0.0815 H   0  0  0  0  0  0  0  0  0  0  0  0
    0.5273    0.6139   -1.3022 C   0  0  0  0  0  0  0  0  0  0  0  0
   -0.2588    1.3708   -1.2920 H   0  0  0  0  0  0  0  0  0  0  0  0
    1.4985    1.1067   -1.3339 H   0  0  0  0  0  0  0  0  0  0  0  0
    0.4188   -0.0046   -2.1947 H   0  0  0  0  0  0  0  0  0  0  0  0
    0.6116    0.5628    1.2402 C   0  0  0  0  0  0  0  0  0  0  0  0
   -0.3597    1.0609    1.8088 O   0  0  0  0  0  0  0  0  0  0  0  0
    1.8647    0.7187    1.6856 N   0  0  0  0  0  0  0  0  0  0  0  0
    2.6088    0.2851    1.1628 H   0  0  0  0  0  0  0  0  0  0  0  0
    2.2171    1.4804    2.8829 C   0  0  0  0  0  0  0  0  0  0  0  0
    1.6620    1.0957    3.7408 H   0  0  0  0  0  0  0  0  0  0  0  0
    3.2867    1.4008    3.0826 H   0  0  0  0  0  0  0  0  0  0  0  0
    1.9533    2.5299    2.7420 H   0  0  0  0  0  0  0  0  0  0  0  0
  5  6  2  0  0  0  0
  5  7  1  0  0  0  0
  2  3  1  0  0  0  0
  2  4  1  0  0  0  0
  2  5  1  0  0  0  0
  1  2  1  0  0  0  0
 15 16  2  0  0  0  0
 15 17  1  0  0  0  0
 11 12  1  0  0  0  0
 11 13  1  0  0  0  0
 11 14  1  0  0  0  0
  9 10  1  0  0  0  0
  9 11  1  0  0  0  0
  9 15  1  0  0  0  0
  7  8  1  0  0  0  0
  7  9  1  0  0  0  0
 19 20  1  0  0  0  0
 19 21  1  0  0  0  0
 19 22  1  0  0  0  0
 17 18  1  0  0  0  0
 17 19  1  0  0  0  0
M  END
$$$$
default_name
  -OEChem-01062215323D

 22 21  0     1  0  0  0  0  0999 V2000
   -2.5423   -3.6749    0.8058 H   0  0  0  0  0  0  0  0  0  0  0  0
   -2.5063   -2.6779    0.3688 C   0  0  0  0  0  0  0  0  0  0  0  0
   -3.1603   -2.0109    0.9268 H   0  0  0  0  0  0  0  0  0  0  0  0
   -2.8193   -2.7229   -0.6722 H   0  0  0  0  0  0  0  0  0  0  0  0
   -1.0873   -2.1629    0.4418 C   0  0  0  0  0  0  0  0  0  0  0  0
   -0.2073   -2.8549    0.9368 O   0  0  0  0  0  0  0  0  0  0  0  0
   -0.8713   -0.9449   -0.0482 N   0  0  0  0  0  0  0  0  0  0  0  0
   -1.6543   -0.4189   -0.4062 H   0  0  0  0  0  0  0  0  0  0  0  0
    0.4237   -0.2649   -0.0462 C   0  0  1  0  0  0  0  0  0  0  0  0
    1.2158   -1.0147   -0.0815 H   0  0  0  0  0  0  0  0  0  0  0  0
    0.5273    0.6139   -1.3022 C   0  0  0  0  0  0  0  0  0  0  0  0
   -0.2588    1.3708   -1.2920 H   0  0  0  0  0  0  0  0  0  0  0  0
    1.4985    1.1067   -1.3339 H   0  0  0  0  0  0  0  0  0  0  0  0
    0.4188   -0.0046   -2.1947 H   0  0  0  0  0  0  0  0  0  0  0  0
    0.6116    0.5628    1.2402 C   0  0  0  0  0  0  0  0  0  0  0  0
   -0.3526    0.8276    1.9579 O   0  0  0  0  0  0  0  0  0  0  0  0
    1.8528    0.9812    1.5184 N   0  0  0  0  0  0  0  0  0  0  0  0
    2.5901    0.7290    0.8799 H   0  0  0  0  0  0  0  0  0  0  0  0
    2.2011    1.7818    2.6912 C   0  0  0  0  0  0  0  0  0  0  0  0
    1.8691    1.2714    3.5975 H   0  0  0  0  0  0  0  0  0  0  0  0
    3.2802    1.9343    2.7402 H   0  0  0  0  0  0  0  0  0  0  0  0
    1.7017    2.7507    2.6367 H   0  0  0  0  0  0  0  0  0  0  0  0
  5  6  2  0  0  0  0
  5  7  1  0  0  0  0
  2  3  1  0  0  0  0
  2  4  1  0  0  0  0
  2  5  1  0  0  0  0
  1  2  1  0  0  0  0
 15 16  2  0  0  0  0
 15 17  1  0  0  0  0
 11 12  1  0  0  0  0
 11 13  1  0  0  0  0
 11 14  1  0  0  0  0
  9 10  1  0  0  0  0
  9 11  1  0  0  0  0
  9 15  1  0  0  0  0
  7  8  1  0  0  0  0
  7  9  1  0  0  0  0
 19 20  1  0  0  0  0
 19 21  1  0  0  0  0
 19 22  1  0  0  0  0
 17 18  1  0  0  0  0
 17 19  1  0  0  0  0
M  END
$$$$
default_name
  -OEChem-01062215323D

 22 21  0     1  0  0  0  0  0999 V2000
   -2.5423   -3.6749    0.8058 H   0  0  0  0  0  0  0  0  0  0  0  0
   -2.5063   -2.6779    0.3688 C   0  0  0  0  0  0  0  0  0  0  0  0
   -3.1603   -2.0109    0.9268 H   0  0  0  0  0  0  0  0  0  0  0  0
   -2.8193   -2.7229   -0.6722 H   0  0  0  0  0  0  0  0  0  0  0  0
   -1.0873   -2.1629    0.4418 C   0  0  0  0  0  0  0  0  0  0  0  0
   -0.2073   -2.8549    0.9368 O   0  0  0  0  0  0  0  0  0  0  0  0
   -0.8713   -0.9449   -0.0482 N   0  0  0  0  0  0  0  0  0  0  0  0
   -1.6543   -0.4189   -0.4062 H   0  0  0  0  0  0  0  0  0  0  0  0
    0.4237   -0.2649   -0.0462 C   0  0  1  0  0  0  0  0  0  0  0  0
    1.1955   -0.9752   -0.3474 H   0  0  0  0  0  0  0  0  0  0  0  0
    0.3874    0.8797   -1.0705 C   0  0  0  0  0  0  0  0  0  0  0  0
   -0.3813    1.6027   -0.7926 H   0  0  0  0  0  0  0  0  0  0  0  0
    1.3544    1.3806   -1.1050 H   0  0  0  0  0  0  0  0  0  0  0  0
    0.1638    0.4807   -2.0613 H   0  0  0  0  0  0  0  0  0  0  0  0
    0.7763    0.2487    1.3634 C   0  0  0  0  0  0  0  0  0  0  0  0
   -0.0001    0.0756    2.3026 O   0  0  0  0  0  0  0  0  0  0  0  0
    1.9421    0.8927    1.5021 N   0  0  0  0  0  0  0  0  0  0  0  0
    2.5221    1.0001    0.6854 H   0  0  0  0  0  0  0  0  0  0  0  0
    2.4222    1.4496    2.7660 C   0  0  0  0  0  0  0  0  0  0  0  0
    2.4427    0.6684    3.5285 H   0  0  0  0  0  0  0  0  0  0  0  0
    3.4263    1.8583    2.6440 H   0  0  0  0  0  0  0  0  0  0  0  0
    1.7483    2.2409    3.0988 H   0  0  0  0  0  0  0  0  0  0  0  0
  5  6  2  0  0  0  0
  5  7  1  0  0  0  0
  2  3  1  0  0  0  0
  2  4  1  0  0  0  0
  2  5  1  0  0  0  0
  1  2  1  0  0  0  0
 15 16  2  0  0  0  0
 15 17  1  0  0  0  0
 11 12  1  0  0  0  0
 11 13  1  0  0  0  0
 11 14  1  0  0  0  0
  9 10  1  0  0  0  0
  9 11  1  0  0  0  0
  9 15  1  0  0  0  0
  7  8  1  0  0  0  0
  7  9  1  0  0  0  0
 19 20  1  0  0  0  0
 19 21  1  0  0  0  0
 19 22  1  0  0  0  0
 17 18  1  0  0  0  0
 17 19  1  0  0  0  0
M  END
$$$$
default_name
  -OEChem-01062215323D

 22 21  0     1  0  0  0  0  0999 V2000
   -2.5423   -3.6749    0.8058 H   0  0  0  0  0  0  0  0  0  0  0  0
   -2.5063   -2.6779    0.3688 C   0  0  0  0  0  0  0  0  0  0  0  0
   -3.1603   -2.0109    0.9268 H   0  0  0  0  0  0  0  0  0  0  0  0
   -2.8193   -2.7229   -0.6722 H   0  0  0  0  0  0  0  0  0  0  0  0
   -1.0873   -2.1629    0.4418 C   0  0  0  0  0  0  0  0  0  0  0  0
   -0.2073   -2.8549    0.9368 O   0  0  0  0  0  0  0  0  0  0  0  0
   -0.8713   -0.9449   -0.0482 N   0  0  0  0  0  0  0  0  0  0  0  0
   -1.6543   -0.4189   -0.4062 H   0  0  0  0  0  0  0  0  0  0  0  0
    0.4237   -0.2649   -0.0462 C   0  0  1  0  0  0  0  0  0  0  0  0
    1.1955   -0.9752   -0.3474 H   0  0  0  0  0  0  0  0  0  0  0  0
    0.3874    0.8797   -1.0705 C   0  0  0  0  0  0  0  0  0  0  0  0
   -0.3813    1.6027   -0.7926 H   0  0  0  0  0  0  0  0  0  0  0  0
    1.3544    1.3806   -1.1050 H   0  0  0  0  0  0  0  0  0  0  0  0
    0.1638    0.4807   -2.0613 H   0  0  0  0  0  0  0  0  0  0  0  0
    0.7763    0.2487    1.3634 C   0  0  0  0  0  0  0  0  0  0  0  0
    0.1532   -0.1508    2.3468 O   0  0  0  0  0  0  0  0  0  0  0  0
    1.7666    1.1454    1.4539 N   0  0  0  0  0  0  0  0  0  0  0  0
    2.2265    1.4283    0.6034 H   0  0  0  0  0  0  0  0  0  0  0  0
    2.2188    1.7386    2.7115 C   0  0  0  0  0  0  0  0  0  0  0  0
    2.4928    0.9488    3.4138 H   0  0  0  0  0  0  0  0  0  0  0  0
    3.0834    2.3812    2.5392 H   0  0  0  0  0  0  0  0  0  0  0  0
    1.4125    2.3284    3.1509 H   0  0  0  0  0  0  0  0  0  0  0  0
  5  6  2  0  0  0  0
  5  7  1  0  0  0  0
  2  3  1  0  0  0  0
  2  4  1  0  0  0  0
  2  5  1  0  0  0  0
  1  2  1  0  0  0  0
 15 16  2  0  0  0  0
 15 17  1  0  0  0  0
 11 12  1  0  0  0  0
 11 13  1  0  0  0  0
 11 14  1  0  0  0  0
  9 10  1  0  0  0  0
  9 11  1  0  0  0  0
  9 15  1  0  0  0  0
  7  8  1  0  0  0  0
  7  9  1  0  0  0  0
 19 20  1  0  0  0  0
 19 21  1  0  0  0  0
 19 22  1  0  0  0  0
 17 18  1  0  0  0  0
 17 19  1  0  0  0  0
M  END
$$$$
default_name
  -OEChem-01062215323D

 22 21  0     1  0  0  0  0  0999 V2000
   -2.5423   -3.6749    0.8058 H   0  0  0  0  0  0  0  0  0  0  0  0
   -2.5063   -2.6779    0.3688 C   0  0  0  0  0  0  0  0  0  0  0  0
   -3.1603   -2.0109    0.9268 H   0  0  0  0  0  0  0  0  0  0  0  0
   -2.8193   -2.7229   -0.6722 H   0  0  0  0  0  0  0  0  0  0  0  0
   -1.0873   -2.1629    0.4418 C   0  0  0  0  0  0  0  0  0  0  0  0
   -0.2073   -2.8549    0.9368 O   0  0  0  0  0  0  0  0  0  0  0  0
   -0.8713   -0.9449   -0.0482 N   0  0  0  0  0  0  0  0  0  0  0  0
   -1.6543   -0.4189   -0.4062 H   0  0  0  0  0  0  0  0  0  0  0  0
    0.4237   -0.2649   -0.0462 C   0  0  1  0  0  0  0  0  0  0  0  0
    1.1955   -0.9752   -0.3474 H   0  0  0  0  0  0  0  0  0  0  0  0
    0.3874    0.8797   -1.0705 C   0  0  0  0  0  0  0  0  0  0  0  0
   -0.3813    1.6027   -0.7926 H   0  0  0  0  0  0  0  0  0  0  0  0
    1.3544    1.3806   -1.1050 H   0  0  0  0  0  0  0  0  0  0  0  0
    0.1638    0.4807   -2.0613 H   0  0  0  0  0  0  0  0  0  0  0  0
    0.7763    0.2487    1.3634 C   0  0  0  0  0  0  0  0  0  0  0  0
    0.3587   -0.3359    2.3628 O   0  0  0  0  0  0  0  0  0  0  0  0
    1.5331    1.3509    1.4375 N   0  0  0  0  0  0  0  0  0  0  0  0
    1.8325    1.7767    0.5750 H   0  0  0  0  0  0  0  0  0  0  0  0
    1.9493    1.9729    2.6936 C   0  0  0  0  0  0  0  0  0  0  0  0
    2.4649    1.2383    3.3153 H   0  0  0  0  0  0  0  0  0  0  0  0
    2.6194    2.8114    2.4985 H   0  0  0  0  0  0  0  0  0  0  0  0
    1.0720    2.3304    3.2354 H   0  0  0  0  0  0  0  0  0  0  0  0
  5  6  2  0  0  0  0
  5  7  1  0  0  0  0
  2  3  1  0  0  0  0
  2  4  1  0  0  0  0
  2  5  1  0  0  0  0
  1  2  1  0  0  0  0
 15 16  2  0  0  0  0
 15 17  1  0  0  0  0
 11 12  1  0  0  0  0
 11 13  1  0  0  0  0
 11 14  1  0  0  0  0
  9 10  1  0  0  0  0
  9 11  1  0  0  0  0
  9 15  1  0  0  0  0
  7  8  1  0  0  0  0
  7  9  1  0  0  0  0
 19 20  1  0  0  0  0
 19 21  1  0  0  0  0
 19 22  1  0  0  0  0
 17 18  1  0  0  0  0
 17 19  1  0  0  0  0
M  END
$$$$
default_name
  -OEChem-01062215323D

 22 21  0     1  0  0  0  0  0999 V2000
   -2.5423   -3.6749    0.8058 H   0  0  0  0  0  0  0  0  0  0  0  0
   -2.5063   -2.6779    0.3688 C   0  0  0  0  0  0  0  0  0  0  0  0
   -3.1603   -2.0109    0.9268 H   0  0  0  0  0  0  0  0  0  0  0  0
   -2.8193   -2.7229   -0.6722 H   0  0  0  0  0  0  0  0  0  0  0  0
   -1.0873   -2.1629    0.4418 C   0  0  0  0  0  0  0  0  0  0  0  0
   -0.2073   -2.8549    0.9368 O   0  0  0  0  0  0  0  0  0  0  0  0
   -0.8713   -0.9449   -0.0482 N   0  0  0  0  0  0  0  0  0  0  0  0
   -1.6543   -0.4189   -0.4062 H   0  0  0  0  0  0  0  0  0  0  0  0
    0.4237   -0.2649   -0.0462 C   0  0  1  0  0  0  0  0  0  0  0  0
    1.1955   -0.9752   -0.3474 H   0  0  0  0  0  0  0  0  0  0  0  0
    0.3874    0.8797   -1.0705 C   0  0  0  0  0  0  0  0  0  0  0  0
   -0.3813    1.6027   -0.7926 H   0  0  0  0  0  0  0  0  0  0  0  0
    1.3544    1.3806   -1.1050 H   0  0  0  0  0  0  0  0  0  0  0  0
    0.1638    0.4807   -2.0613 H   0  0  0  0  0  0  0  0  0  0  0  0
    0.7763    0.2487    1.3634 C   0  0  0  0  0  0  0  0  0  0  0  0
    0.6024   -0.4669    2.3496 O   0  0  0  0  0  0  0  0  0  0  0  0
    1.2576    1.4950    1.4539 N   0  0  0  0  0  0  0  0  0  0  0  0
    1.3670    2.0217    0.6021 H   0  0  0  0  0  0  0  0  0  0  0  0
    1.6319    2.1365    2.7134 C   0  0  0  0  0  0  0  0  0  0  0  0
    2.3609    1.5171    3.2398 H   0  0  0  0  0  0  0  0  0  0  0  0
    2.0659    3.1194    2.5248 H   0  0  0  0  0  0  0  0  0  0  0  0
    0.7498    2.2467    3.3465 H   0  0  0  0  0  0  0  0  0  0  0  0
  5  6  2  0  0  0  0
  5  7  1  0  0  0  0
  2  3  1  0  0  0  0
  2  4  1  0  0  0  0
  2  5  1  0  0  0  0
  1  2  1  0  0  0  0
 15 16  2  0  0  0  0
 15 17  1  0  0  0  0
 11 12  1  0  0  0  0
 11 13  1  0  0  0  0
 11 14  1  0  0  0  0
  9 10  1  0  0  0  0
  9 11  1  0  0  0  0
  9 15  1  0  0  0  0
  7  8  1  0  0  0  0
  7  9  1  0  0  0  0
 19 20  1  0  0  0  0
 19 21  1  0  0  0  0
 19 22  1  0  0  0  0
 17 18  1  0  0  0  0
 17 19  1  0  0  0  0
M  END
$$$$
default_name
  -OEChem-01062215323D

 22 21  0     1  0  0  0  0  0999 V2000
   -2.5423   -3.6749    0.8058 H   0  0  0  0  0  0  0  0  0  0  0  0
   -2.5063   -2.6779    0.3688 C   0  0  0  0  0  0  0  0  0  0  0  0
   -3.1603   -2.0109    0.9268 H   0  0  0  0  0  0  0  0  0  0  0  0
   -2.8193   -2.7229   -0.6722 H   0  0  0  0  0  0  0  0  0  0  0  0
   -1.0873   -2.1629    0.4418 C   0  0  0  0  0  0  0  0  0  0  0  0
   -0.2073   -2.8549    0.9368 O   0  0  0  0  0  0  0  0  0  0  0  0
   -0.8713   -0.9449   -0.0482 N   0  0  0  0  0  0  0  0  0  0  0  0
   -1.6543   -0.4189   -0.4062 H   0  0  0  0  0  0  0  0  0  0  0  0
    0.4237   -0.2649   -0.0462 C   0  0  1  0  0  0  0  0  0  0  0  0
    1.1955   -0.9752   -0.3474 H   0  0  0  0  0  0  0  0  0  0  0  0
    0.3874    0.8797   -1.0705 C   0  0  0  0  0  0  0  0  0  0  0  0
   -0.3813    1.6027   -0.7926 H   0  0  0  0  0  0  0  0  0  0  0  0
    1.3544    1.3806   -1.1050 H   0  0  0  0  0  0  0  0  0  0  0  0
    0.1638    0.4807   -2.0613 H   0  0  0  0  0  0  0  0  0  0  0  0
    0.7763    0.2487    1.3634 C   0  0  0  0  0  0  0  0  0  0  0  0
    0.8676   -0.5350    2.3081 O   0  0  0  0  0  0  0  0  0  0  0  0
    0.9587    1.5680    1.5021 N   0  0  0  0  0  0  0  0  0  0  0  0
    0.8618    2.1466    0.6830 H   0  0  0  0  0  0  0  0  0  0  0  0
    1.2884    2.2181    2.7696 C   0  0  0  0  0  0  0  0  0  0  0  0
    2.1880    1.7663    3.1922 H   0  0  0  0  0  0  0  0  0  0  0  0
    1.4606    3.2844    2.6161 H   0  0  0  0  0  0  0  0  0  0  0  0
    0.4681    2.0830    3.4766 H   0  0  0  0  0  0  0  0  0  0  0  0
  5  6  2  0  0  0  0
  5  7  1  0  0  0  0
  2  3  1  0  0  0  0
  2  4  1  0  0  0  0
  2  5  1  0  0  0  0
  1  2  1  0  0  0  0
 15 16  2  0  0  0  0
 15 17  1  0  0  0  0
 11 12  1  0  0  0  0
 11 13  1  0  0  0  0
 11 14  1  0  0  0  0
  9 10  1  0  0  0  0
  9 11  1  0  0  0  0
  9 15  1  0  0  0  0
  7  8  1  0  0  0  0
  7  9  1  0  0  0  0
 19 20  1  0  0  0  0
 19 21  1  0  0  0  0
 19 22  1  0  0  0  0
 17 18  1  0  0  0  0
 17 19  1  0  0  0  0
M  END
$$$$
default_name
  -OEChem-01062215323D

 22 21  0     1  0  0  0  0  0999 V2000
   -2.5423   -3.6749    0.8058 H   0  0  0  0  0  0  0  0  0  0  0  0
   -2.5063   -2.6779    0.3688 C   0  0  0  0  0  0  0  0  0  0  0  0
   -3.1603   -2.0109    0.9268 H   0  0  0  0  0  0  0  0  0  0  0  0
   -2.8193   -2.7229   -0.6722 H   0  0  0  0  0  0  0  0  0  0  0  0
   -1.0873   -2.1629    0.4418 C   0  0  0  0  0  0  0  0  0  0  0  0
   -0.2073   -2.8549    0.9368 O   0  0  0  0  0  0  0  0  0  0  0  0
   -0.8713   -0.9449   -0.0482 N   0  0  0  0  0  0  0  0  0  0  0  0
   -1.6543   -0.4189   -0.4062 H   0  0  0  0  0  0  0  0  0  0  0  0
    0.4237   -0.2649   -0.0462 C   0  0  1  0  0  0  0  0  0  0  0  0
    1.1955   -0.9752   -0.3474 H   0  0  0  0  0  0  0  0  0  0  0  0
    0.3874    0.8797   -1.0705 C   0  0  0  0  0  0  0  0  0  0  0  0
   -0.3813    1.6027   -0.7926 H   0  0  0  0  0  0  0  0  0  0  0  0
    1.3544    1.3806   -1.1050 H   0  0  0  0  0  0  0  0  0  0  0  0
    0.1638    0.4807   -2.0613 H   0  0  0  0  0  0  0  0  0  0  0  0
    0.7763    0.2487    1.3634 C   0  0  0  0  0  0  0  0  0  0  0  0
    1.1364   -0.5356    2.2410 O   0  0  0  0  0  0  0  0  0  0  0  0
    0.6568    1.5649    1.5787 N   0  0  0  0  0  0  0  0  0  0  0  0
    0.3511    2.1427    0.8122 H   0  0  0  0  0  0  0  0  0  0  0  0
    0.9420    2.2124    2.8583 C   0  0  0  0  0  0  0  0  0  0  0  0
    1.9579    1.9689    3.1760 H   0  0  0  0  0  0  0  0  0  0  0  0
    0.8447    3.2950    2.7663 H   0  0  0  0  0  0  0  0  0  0  0  0
    0.2459    1.8505    3.6169 H   0  0  0  0  0  0  0  0  0  0  0  0
  5  6  2  0  0  0  0
  5  7  1  0  0  0  0
  2  3  1  0  0  0  0
  2  4  1  0  0  0  0
  2  5  1  0  0  0  0
  1  2  1  0  0  0  0
 15 16  2  0  0  0  0
 15 17  1  0  0  0  0
 11 12  1  0  0  0  0
 11 13  1  0  0  0  0
 11 14  1  0  0  0  0
  9 10  1  0  0  0  0
  9 11  1  0  0  0  0
  9 15  1  0  0  0  0
  7  8  1  0  0  0  0
  7  9  1  0  0  0  0
 19 20  1  0  0  0  0
 19 21  1  0  0  0  0
 19 22  1  0  0  0  0
 17 18  1  0  0  0  0
 17 19  1  0  0  0  0
M  END
$$$$
default_name
  -OEChem-01062215323D

 22 21  0     1  0  0  0  0  0999 V2000
   -2.5423   -3.6749    0.8058 H   0  0  0  0  0  0  0  0  0  0  0  0
   -2.5063   -2.6779    0.3688 C   0  0  0  0  0  0  0  0  0  0  0  0
   -3.1603   -2.0109    0.9268 H   0  0  0  0  0  0  0  0  0  0  0  0
   -2.8193   -2.7229   -0.6722 H   0  0  0  0  0  0  0  0  0  0  0  0
   -1.0873   -2.1629    0.4418 C   0  0  0  0  0  0  0  0  0  0  0  0
   -0.2073   -2.8549    0.9368 O   0  0  0  0  0  0  0  0  0  0  0  0
   -0.8713   -0.9449   -0.0482 N   0  0  0  0  0  0  0  0  0  0  0  0
   -1.6543   -0.4189   -0.4062 H   0  0  0  0  0  0  0  0  0  0  0  0
    0.4237   -0.2649   -0.0462 C   0  0  1  0  0  0  0  0  0  0  0  0
    1.1955   -0.9752   -0.3474 H   0  0  0  0  0  0  0  0  0  0  0  0
    0.3874    0.8797   -1.0705 C   0  0  0  0  0  0  0  0  0  0  0  0
   -0.3813    1.6027   -0.7926 H   0  0  0  0  0  0  0  0  0  0  0  0
    1.3544    1.3806   -1.1050 H   0  0  0  0  0  0  0  0  0  0  0  0
    0.1638    0.4807   -2.0613 H   0  0  0  0  0  0  0  0  0  0  0  0
    0.7763    0.2487    1.3634 C   0  0  0  0  0  0  0  0  0  0  0  0
    1.3903   -0.4685    2.1531 O   0  0  0  0  0  0  0  0  0  0  0  0
    0.3726    1.4859    1.6786 N   0  0  0  0  0  0  0  0  0  0  0  0
   -0.1301    2.0105    0.9807 H   0  0  0  0  0  0  0  0  0  0  0  0
    0.6165    2.1195    2.9736 C   0  0  0  0  0  0  0  0  0  0  0  0
    1.6862    2.1110    3.1921 H   0  0  0  0  0  0  0  0  0  0  0  0
    0.2602    3.1506    2.9651 H   0  0  0  0  0  0  0  0  0  0  0  0
    0.0984    1.5649    3.7578 H   0  0  0  0  0  0  0  0  0  0  0  0
  5  6  2  0  0  0  0
  5  7  1  0  0  0  0
  2  3  1  0  0  0  0
  2  4  1  0  0  0  0
  2  5  1  0  0  0  0
  1  2  1  0  0  0  0
 15 16  2  0  0  0  0
 15 17  1  0  0  0  0
 11 12  1  0  0  0  0
 11 13  1  0  0  0  0
 11 14  1  0  0  0  0
  9 10  1  0  0  0  0
  9 11  1  0  0  0  0
  9 15  1  0  0  0  0
  7  8  1  0  0  0  0
  7  9  1  0  0  0  0
 19 20  1  0  0  0  0
 19 21  1  0  0  0  0
 19 22  1  0  0  0  0
 17 18  1  0  0  0  0
 17 19  1  0  0  0  0
M  END
$$$$
default_name
  -OEChem-01062215323D

 22 21  0     1  0  0  0  0  0999 V2000
   -2.5423   -3.6749    0.8058 H   0  0  0  0  0  0  0  0  0  0  0  0
   -2.5063   -2.6779    0.3688 C   0  0  0  0  0  0  0  0  0  0  0  0
   -3.1603   -2.0109    0.9268 H   0  0  0  0  0  0  0  0  0  0  0  0
   -2.8193   -2.7229   -0.6722 H   0  0  0  0  0  0  0  0  0  0  0  0
   -1.0873   -2.1629    0.4418 C   0  0  0  0  0  0  0  0  0  0  0  0
   -0.2073   -2.8549    0.9368 O   0  0  0  0  0  0  0  0  0  0  0  0
   -0.8713   -0.9449   -0.0482 N   0  0  0  0  0  0  0  0  0  0  0  0
   -1.6543   -0.4189   -0.4062 H   0  0  0  0  0  0  0  0  0  0  0  0
    0.4237   -0.2649   -0.0462 C   0  0  1  0  0  0  0  0  0  0  0  0
    1.1955   -0.9752   -0.3474 H   0  0  0  0  0  0  0  0  0  0  0  0
    0.3874    0.8797   -1.0705 C   0  0  0  0  0  0  0  0  0  0  0  0
   -0.3813    1.6027   -0.7926 H   0  0  0  0  0  0  0  0  0  0  0  0
    1.3544    1.3806   -1.1050 H   0  0  0  0  0  0  0  0  0  0  0  0
    0.1638    0.4807   -2.0613 H   0  0  0  0  0  0  0  0  0  0  0  0
    0.7763    0.2487    1.3634 C   0  0  0  0  0  0  0  0  0  0  0  0
    1.6121   -0.3384    2.0502 O   0  0  0  0  0  0  0  0  0  0  0  0
    0.1254    1.3364    1.7949 N   0  0  0  0  0  0  0  0  0  0  0  0
   -0.5491    1.7589    1.1772 H   0  0  0  0  0  0  0  0  0  0  0  0
    0.3340    1.9460    3.1075 C   0  0  0  0  0  0  0  0  0  0  0  0
    1.3915    2.1831    3.2396 H   0  0  0  0  0  0  0  0  0  0  0  0
   -0.2530    2.8610    3.1990 H   0  0  0  0  0  0  0  0  0  0  0  0
    0.0357    1.2459    3.8897 H   0  0  0  0  0  0  0  0  0  0  0  0
  5  6  2  0  0  0  0
  5  7  1  0  0  0  0
  2  3  1  0  0  0  0
  2  4  1  0  0  0  0
  2  5  1  0  0  0  0
  1  2  1  0  0  0  0
 15 16  2  0  0  0  0
 15 17  1  0  0  0  0
 11 12  1  0  0  0  0
 11 13  1  0  0  0  0
 11 14  1  0  0  0  0
  9 10  1  0  0  0  0
  9 11  1  0  0  0  0
  9 15  1  0  0  0  0
  7  8  1  0  0  0  0
  7  9  1  0  0  0  0
 19 20  1  0  0  0  0
 19 21  1  0  0  0  0
 19 22  1  0  0  0  0
 17 18  1  0  0  0  0
 17 19  1  0  0  0  0
M  END
$$$$
default_name
  -OEChem-01062215323D

 22 21  0     1  0  0  0  0  0999 V2000
   -2.5423   -3.6749    0.8058 H   0  0  0  0  0  0  0  0  0  0  0  0
   -2.5063   -2.6779    0.3688 C   0  0  0  0  0  0  0  0  0  0  0  0
   -3.1603   -2.0109    0.9268 H   0  0  0  0  0  0  0  0  0  0  0  0
   -2.8193   -2.7229   -0.6722 H   0  0  0  0  0  0  0  0  0  0  0  0
   -1.0873   -2.1629    0.4418 C   0  0  0  0  0  0  0  0  0  0  0  0
   -0.2073   -2.8549    0.9368 O   0  0  0  0  0  0  0  0  0  0  0  0
   -0.8713   -0.9449   -0.0482 N   0  0  0  0  0  0  0  0  0  0  0  0
   -1.6543   -0.4189   -0.4062 H   0  0  0  0  0  0  0  0  0  0  0  0
    0.4237   -0.2649   -0.0462 C   0  0  1  0  0  0  0  0  0  0  0  0
    1.1955   -0.9752   -0.3474 H   0  0  0  0  0  0  0  0  0  0  0  0
    0.3874    0.8797   -1.0705 C   0  0  0  0  0  0  0  0  0  0  0  0
   -0.3813    1.6027   -0.7926 H   0  0  0  0  0  0  0  0  0  0  0  0
    1.3544    1.3806   -1.1050 H   0  0  0  0  0  0  0  0  0  0  0  0
    0.1638    0.4807   -2.0613 H   0  0  0  0  0  0  0  0  0  0  0  0
    0.7763    0.2487    1.3634 C   0  0  0  0  0  0  0  0  0  0  0  0
    1.7867   -0.1541    1.9394 O   0  0  0  0  0  0  0  0  0  0  0  0
   -0.0680    1.1266    1.9197 N   0  0  0  0  0  0  0  0  0  0  0  0
   -0.8773    1.4050    1.3882 H   0  0  0  0  0  0  0  0  0  0  0  0
    0.1137    1.7035    3.2509 C   0  0  0  0  0  0  0  0  0  0  0  0
    1.0940    2.1801    3.3151 H   0  0  0  0  0  0  0  0  0  0  0  0
   -0.6600    2.4459    3.4520 H   0  0  0  0  0  0  0  0  0  0  0  0
    0.0620    0.9151    4.0037 H   0  0  0  0  0  0  0  0  0  0  0  0
  5  6  2  0  0  0  0
  5  7  1  0  0  0  0
  2  3  1  0  0  0  0
  2  4  1  0  0  0  0
  2  5  1  0  0  0  0
  1  2  1  0  0  0  0
 15 16  2  0  0  0  0
 15 17  1  0  0  0  0
 11 12  1  0  0  0  0
 11 13  1  0  0  0  0
 11 14  1  0  0  0  0
  9 10  1  0  0  0  0
  9 11  1  0  0  0  0
  9 15  1  0  0  0  0
  7  8  1  0  0  0  0
  7  9  1  0  0  0  0
 19 20  1  0  0  0  0
 19 21  1  0  0  0  0
 19 22  1  0  0  0  0
 17 18  1  0  0  0  0
 17 19  1  0  0  0  0
M  END
$$$$
default_name
  -OEChem-01062215323D

 22 21  0     1  0  0  0  0  0999 V2000
   -2.5423   -3.6749    0.8058 H   0  0  0  0  0  0  0  0  0  0  0  0
   -2.5063   -2.6779    0.3688 C   0  0  0  0  0  0  0  0  0  0  0  0
   -3.1603   -2.0109    0.9268 H   0  0  0  0  0  0  0  0  0  0  0  0
   -2.8193   -2.7229   -0.6722 H   0  0  0  0  0  0  0  0  0  0  0  0
   -1.0873   -2.1629    0.4418 C   0  0  0  0  0  0  0  0  0  0  0  0
   -0.2073   -2.8549    0.9368 O   0  0  0  0  0  0  0  0  0  0  0  0
   -0.8713   -0.9449   -0.0482 N   0  0  0  0  0  0  0  0  0  0  0  0
   -1.6543   -0.4189   -0.4062 H   0  0  0  0  0  0  0  0  0  0  0  0
    0.4237   -0.2649   -0.0462 C   0  0  1  0  0  0  0  0  0  0  0  0
    1.1955   -0.9752   -0.3474 H   0  0  0  0  0  0  0  0  0  0  0  0
    0.3874    0.8797   -1.0705 C   0  0  0  0  0  0  0  0  0  0  0  0
   -0.3813    1.6027   -0.7926 H   0  0  0  0  0  0  0  0  0  0  0  0
    1.3544    1.3806   -1.1050 H   0  0  0  0  0  0  0  0  0  0  0  0
    0.1638    0.4807   -2.0613 H   0  0  0  0  0  0  0  0  0  0  0  0
    0.7763    0.2487    1.3634 C   0  0  0  0  0  0  0  0  0  0  0  0
    1.9022    0.0718    1.8282 O   0  0  0  0  0  0  0  0  0  0  0  0
   -0.1943    0.8708    2.0445 N   0  0  0  0  0  0  0  0  0  0  0  0
   -1.0923    0.9730    1.5994 H   0  0  0  0  0  0  0  0  0  0  0  0
   -0.0293    1.4087    3.3941 C   0  0  0  0  0  0  0  0  0  0  0  0
    0.8137    2.1023    3.4136 H   0  0  0  0  0  0  0  0  0  0  0  0
   -0.9330    1.9336    3.7070 H   0  0  0  0  0  0  0  0  0  0  0  0
    0.1756    0.5950    4.0919 H   0  0  0  0  0  0  0  0  0  0  0  0
  5  6  2  0  0  0  0
  5  7  1  0  0  0  0
  2  3  1  0  0  0  0
  2  4  1  0  0  0  0
  2  5  1  0  0  0  0
  1  2  1  0  0  0  0
 15 16  2  0  0  0  0
 15 17  1  0  0  0  0
 11 12  1  0  0  0  0
 11 13  1  0  0  0  0
 11 14  1  0  0  0  0
  9 10  1  0  0  0  0
  9 11  1  0  0  0  0
  9 15  1  0  0  0  0
  7  8  1  0  0  0  0
  7  9  1  0  0  0  0
 19 20  1  0  0  0  0
 19 21  1  0  0  0  0
 19 22  1  0  0  0  0
 17 18  1  0  0  0  0
 17 19  1  0  0  0  0
M  END
$$$$
default_name
  -OEChem-01062215323D

 22 21  0     1  0  0  0  0  0999 V2000
   -2.5423   -3.6749    0.8058 H   0  0  0  0  0  0  0  0  0  0  0  0
   -2.5063   -2.6779    0.3688 C   0  0  0  0  0  0  0  0  0  0  0  0
   -3.1603   -2.0109    0.9268 H   0  0  0  0  0  0  0  0  0  0  0  0
   -2.8193   -2.7229   -0.6722 H   0  0  0  0  0  0  0  0  0  0  0  0
   -1.0873   -2.1629    0.4418 C   0  0  0  0  0  0  0  0  0  0  0  0
   -0.2073   -2.8549    0.9368 O   0  0  0  0  0  0  0  0  0  0  0  0
   -0.8713   -0.9449   -0.0482 N   0  0  0  0  0  0  0  0  0  0  0  0
   -1.6543   -0.4189   -0.4062 H   0  0  0  0  0  0  0  0  0  0  0  0
    0.4237   -0.2649   -0.0462 C   0  0  1  0  0  0  0  0  0  0  0  0
    1.1955   -0.9752   -0.3474 H   0  0  0  0  0  0  0  0  0  0  0  0
    0.3874    0.8797   -1.0705 C   0  0  0  0  0  0  0  0  0  0  0  0
   -0.3813    1.6027   -0.7926 H   0  0  0  0  0  0  0  0  0  0  0  0
    1.3544    1.3806   -1.1050 H   0  0  0  0  0  0  0  0  0  0  0  0
    0.1638    0.4807   -2.0613 H   0  0  0  0  0  0  0  0  0  0  0  0
    0.7763    0.2487    1.3634 C   0  0  0  0  0  0  0  0  0  0  0  0
    1.9507    0.3239    1.7242 O   0  0  0  0  0  0  0  0  0  0  0  0
   -0.2450    0.5864    2.1608 N   0  0  0  0  0  0  0  0  0  0  0  0
   -1.1795    0.4924    1.7963 H   0  0  0  0  0  0  0  0  0  0  0  0
   -0.0852    1.0816    3.5272 C   0  0  0  0  0  0  0  0  0  0  0  0
    0.5700    1.9550    3.5282 H   0  0  0  0  0  0  0  0  0  0  0  0
   -1.0534    1.3590    3.9464 H   0  0  0  0  0  0  0  0  0  0  0  0
    0.3687    0.3075    4.1483 H   0  0  0  0  0  0  0  0  0  0  0  0
  5  6  2  0  0  0  0
  5  7  1  0  0  0  0
  2  3  1  0  0  0  0
  2  4  1  0  0  0  0
  2  5  1  0  0  0  0
  1  2  1  0  0  0  0
 15 16  2  0  0  0  0
 15 17  1  0  0  0  0
 11 12  1  0  0  0  0
 11 13  1  0  0  0  0
 11 14  1  0  0  0  0
  9 10  1  0  0  0  0
  9 11  1  0  0  0  0
  9 15  1  0  0  0  0
  7  8  1  0  0  0  0
  7  9  1  0  0  0  0
 19 20  1  0  0  0  0
 19 21  1  0  0  0  0
 19 22  1  0  0  0  0
 17 18  1  0  0  0  0
 17 19  1  0  0  0  0
M  END
$$$$
default_name
  -OEChem-01062215323D

 22 21  0     1  0  0  0  0  0999 V2000
   -2.5423   -3.6749    0.8058 H   0  0  0  0  0  0  0  0  0  0  0  0
   -2.5063   -2.6779    0.3688 C   0  0  0  0  0  0  0  0  0  0  0  0
   -3.1603   -2.0109    0.9268 H   0  0  0  0  0  0  0  0  0  0  0  0
   -2.8193   -2.7229   -0.6722 H   0  0  0  0  0  0  0  0  0  0  0  0
   -1.0873   -2.1629    0.4418 C   0  0  0  0  0  0  0  0  0  0  0  0
   -0.2073   -2.8549    0.9368 O   0  0  0  0  0  0  0  0  0  0  0  0
   -0.8713   -0.9449   -0.0482 N   0  0  0  0  0  0  0  0  0  0  0  0
   -1.6543   -0.4189   -0.4062 H   0  0  0  0  0  0  0  0  0  0  0  0
    0.4237   -0.2649   -0.0462 C   0  0  1  0  0  0  0  0  0  0  0  0
    1.1955   -0.9752   -0.3474 H   0  0  0  0  0  0  0  0  0  0  0  0
    0.3874    0.8797   -1.0705 C   0  0  0  0  0  0  0  0  0  0  0  0
   -0.3813    1.6027   -0.7926 H   0  0  0  0  0  0  0  0  0  0  0  0
    1.3544    1.3806   -1.1050 H   0  0  0  0  0  0  0  0  0  0  0  0
    0.1638    0.4807   -2.0613 H   0  0  0  0  0  0  0  0  0  0  0  0
    0.7763    0.2487    1.3634 C   0  0  0  0  0  0  0  0  0  0  0  0
    1.9288    0.5850    1.6345 O   0  0  0  0  0  0  0  0  0  0  0  0
   -0.2166    0.2928    2.2607 N   0  0  0  0  0  0  0  0  0  0  0  0
   -1.1330   -0.0042    1.9656 H   0  0  0  0  0  0  0  0  0  0  0  0
   -0.0504    0.7446    3.6413 C   0  0  0  0  0  0  0  0  0  0  0  0
    0.3793    1.7483    3.6512 H   0  0  0  0  0  0  0  0  0  0  0  0
   -1.0131    0.7613    4.1541 H   0  0  0  0  0  0  0  0  0  0  0  0
    0.6281    0.0722    4.1691 H   0  0  0  0  0  0  0  0  0  0  0  0
  5  6  2  0  0  0  0
  5  7  1  0  0  0  0
  2  3  1  0  0  0  0
  2  4  1  0  0  0  0
  2  5  1  0  0  0  0
  1  2  1  0  0  0  0
 15 16  2  0  0  0  0
 15 17  1  0  0  0  0
 11 12  1  0  0  0  0
 11 13  1  0  0  0  0
 11 14  1  0  0  0  0
  9 10  1  0  0  0  0
  9 11  1  0  0  0  0
  9 15  1  0  0  0  0
  7  8  1  0  0  0  0
  7  9  1  0  0  0  0
 19 20  1  0  0  0  0
 19 21  1  0  0  0  0
 19 22  1  0  0  0  0
 17 18  1  0  0  0  0
 17 19  1  0  0  0  0
M  END
$$$$
default_name
  -OEChem-01062215323D

 22 21  0     1  0  0  0  0  0999 V2000
   -2.5423   -3.6749    0.8058 H   0  0  0  0  0  0  0  0  0  0  0  0
   -2.5063   -2.6779    0.3688 C   0  0  0  0  0  0  0  0  0  0  0  0
   -3.1603   -2.0109    0.9268 H   0  0  0  0  0  0  0  0  0  0  0  0
   -2.8193   -2.7229   -0.6722 H   0  0  0  0  0  0  0  0  0  0  0  0
   -1.0873   -2.1629    0.4418 C   0  0  0  0  0  0  0  0  0  0  0  0
   -0.2073   -2.8549    0.9368 O   0  0  0  0  0  0  0  0  0  0  0  0
   -0.8713   -0.9449   -0.0482 N   0  0  0  0  0  0  0  0  0  0  0  0
   -1.6543   -0.4189   -0.4062 H   0  0  0  0  0  0  0  0  0  0  0  0
    0.4237   -0.2649   -0.0462 C   0  0  1  0  0  0  0  0  0  0  0  0
    1.1955   -0.9752   -0.3474 H   0  0  0  0  0  0  0  0  0  0  0  0
    0.3874    0.8797   -1.0705 C   0  0  0  0  0  0  0  0  0  0  0  0
   -0.3813    1.6027   -0.7926 H   0  0  0  0  0  0  0  0  0  0  0  0
    1.3544    1.3806   -1.1050 H   0  0  0  0  0  0  0  0  0  0  0  0
    0.1638    0.4807   -2.0613 H   0  0  0  0  0  0  0  0  0  0  0  0
    0.7763    0.2487    1.3634 C   0  0  0  0  0  0  0  0  0  0  0  0
    1.8382    0.8374    1.5653 O   0  0  0  0  0  0  0  0  0  0  0  0
   -0.1111    0.0100    2.3373 N   0  0  0  0  0  0  0  0  0  0  0  0
   -0.9559   -0.4830    2.0957 H   0  0  0  0  0  0  0  0  0  0  0  0
    0.0729    0.4204    3.7286 C   0  0  0  0  0  0  0  0  0  0  0  0
    0.2546    1.4961    3.7743 H   0  0  0  0  0  0  0  0  0  0  0  0
   -0.8148    0.1812    4.3158 H   0  0  0  0  0  0  0  0  0  0  0  0
    0.9362   -0.0949    4.1530 H   0  0  0  0  0  0  0  0  0  0  0  0
  5  6  2  0  0  0  0
  5  7  1  0  0  0  0
  2  3  1  0  0  0  0
  2  4  1  0  0  0  0
  2  5  1  0  0  0  0
  1  2  1  0  0  0  0
 15 16  2  0  0  0  0
 15 17  1  0  0  0  0
 11 12  1  0  0  0  0
 11 13  1  0  0  0  0
 11 14  1  0  0  0  0
  9 10  1  0  0  0  0
  9 11  1  0  0  0  0
  9 15  1  0  0  0  0
  7  8  1  0  0  0  0
  7  9  1  0  0  0  0
 19 20  1  0  0  0  0
 19 21  1  0  0  0  0
 19 22  1  0  0  0  0
 17 18  1  0  0  0  0
 17 19  1  0  0  0  0
M  END
$$$$
default_name
  -OEChem-01062215323D

 22 21  0     1  0  0  0  0  0999 V2000
   -2.5423   -3.6749    0.8058 H   0  0  0  0  0  0  0  0  0  0  0  0
   -2.5063   -2.6779    0.3688 C   0  0  0  0  0  0  0  0  0  0  0  0
   -3.1603   -2.0109    0.9268 H   0  0  0  0  0  0  0  0  0  0  0  0
   -2.8193   -2.7229   -0.6722 H   0  0  0  0  0  0  0  0  0  0  0  0
   -1.0873   -2.1629    0.4418 C   0  0  0  0  0  0  0  0  0  0  0  0
   -0.2073   -2.8549    0.9368 O   0  0  0  0  0  0  0  0  0  0  0  0
   -0.8713   -0.9449   -0.0482 N   0  0  0  0  0  0  0  0  0  0  0  0
   -1.6543   -0.4189   -0.4062 H   0  0  0  0  0  0  0  0  0  0  0  0
    0.4237   -0.2649   -0.0462 C   0  0  1  0  0  0  0  0  0  0  0  0
    1.1955   -0.9752   -0.3474 H   0  0  0  0  0  0  0  0  0  0  0  0
    0.3874    0.8797   -1.0705 C   0  0  0  0  0  0  0  0  0  0  0  0
   -0.3813    1.6027   -0.7926 H   0  0  0  0  0  0  0  0  0  0  0  0
    1.3544    1.3806   -1.1050 H   0  0  0  0  0  0  0  0  0  0  0  0
    0.1638    0.4807   -2.0613 H   0  0  0  0  0  0  0  0  0  0  0  0
    0.7763    0.2487    1.3634 C   0  0  0  0  0  0  0  0  0  0  0  0
    1.6849    1.0639    1.5211 O   0  0  0  0  0  0  0  0  0  0  0  0
    0.0644   -0.2427    2.3855 N   0  0  0  0  0  0  0  0  0  0  0  0
   -0.6603   -0.9111    2.1778 H   0  0  0  0  0  0  0  0  0  0  0  0
    0.2763    0.1314    3.7830 C   0  0  0  0  0  0  0  0  0  0  0  0
    0.2045    1.2157    3.8890 H   0  0  0  0  0  0  0  0  0  0  0  0
   -0.4719   -0.3417    4.4206 H   0  0  0  0  0  0  0  0  0  0  0  0
    1.2720   -0.1825    4.1009 H   0  0  0  0  0  0  0  0  0  0  0  0
  5  6  2  0  0  0  0
  5  7  1  0  0  0  0
  2  3  1  0  0  0  0
  2  4  1  0  0  0  0
  2  5  1  0  0  0  0
  1  2  1  0  0  0  0
 15 16  2  0  0  0  0
 15 17  1  0  0  0  0
 11 12  1  0  0  0  0
 11 13  1  0  0  0  0
 11 14  1  0  0  0  0
  9 10  1  0  0  0  0
  9 11  1  0  0  0  0
  9 15  1  0  0  0  0
  7  8  1  0  0  0  0
  7  9  1  0  0  0  0
 19 20  1  0  0  0  0
 19 21  1  0  0  0  0
 19 22  1  0  0  0  0
 17 18  1  0  0  0  0
 17 19  1  0  0  0  0
M  END
$$$$
default_name
  -OEChem-01062215323D

 22 21  0     1  0  0  0  0  0999 V2000
   -2.5423   -3.6749    0.8058 H   0  0  0  0  0  0  0  0  0  0  0  0
   -2.5063   -2.6779    0.3688 C   0  0  0  0  0  0  0  0  0  0  0  0
   -3.1603   -2.0109    0.9268 H   0  0  0  0  0  0  0  0  0  0  0  0
   -2.8193   -2.7229   -0.6722 H   0  0  0  0  0  0  0  0  0  0  0  0
   -1.0873   -2.1629    0.4418 C   0  0  0  0  0  0  0  0  0  0  0  0
   -0.2073   -2.8549    0.9368 O   0  0  0  0  0  0  0  0  0  0  0  0
   -0.8713   -0.9449   -0.0482 N   0  0  0  0  0  0  0  0  0  0  0  0
   -1.6543   -0.4189   -0.4062 H   0  0  0  0  0  0  0  0  0  0  0  0
    0.4237   -0.2649   -0.0462 C   0  0  1  0  0  0  0  0  0  0  0  0
    1.1955   -0.9752   -0.3474 H   0  0  0  0  0  0  0  0  0  0  0  0
    0.3874    0.8797   -1.0705 C   0  0  0  0  0  0  0  0  0  0  0  0
   -0.3813    1.6027   -0.7926 H   0  0  0  0  0  0  0  0  0  0  0  0
    1.3544    1.3806   -1.1050 H   0  0  0  0  0  0  0  0  0  0  0  0
    0.1638    0.4807   -2.0613 H   0  0  0  0  0  0  0  0  0  0  0  0
    0.7763    0.2487    1.3634 C   0  0  0  0  0  0  0  0  0  0  0  0
    1.4794    1.2489    1.5051 O   0  0  0  0  0  0  0  0  0  0  0  0
    0.2979   -0.4482    2.4020 N   0  0  0  0  0  0  0  0  0  0  0  0
   -0.2663   -1.2596    2.2062 H   0  0  0  0  0  0  0  0  0  0  0  0
    0.5458   -0.1029    3.8009 C   0  0  0  0  0  0  0  0  0  0  0  0
    0.2324    0.9263    3.9875 H   0  0  0  0  0  0  0  0  0  0  0  0
   -0.0079   -0.7718    4.4612 H   0  0  0  0  0  0  0  0  0  0  0  0
    1.6126   -0.1844    4.0164 H   0  0  0  0  0  0  0  0  0  0  0  0
  5  6  2  0  0  0  0
  5  7  1  0  0  0  0
  2  3  1  0  0  0  0
  2  4  1  0  0  0  0
  2  5  1  0  0  0  0
  1  2  1  0  0  0  0
 15 16  2  0  0  0  0
 15 17  1  0  0  0  0
 11 12  1  0  0  0  0
 11 13  1  0  0  0  0
 11 14  1  0  0  0  0
  9 10  1  0  0  0  0
  9 11  1  0  0  0  0
  9 15  1  0  0  0  0
  7  8  1  0  0  0  0
  7  9  1  0  0  0  0
 19 20  1  0  0  0  0
 19 21  1  0  0  0  0
 19 22  1  0  0  0  0
 17 18  1  0  0  0  0
 17 19  1  0  0  0  0
M  END
$$$$
default_name
  -OEChem-01062215323D

 22 21  0     1  0  0  0  0  0999 V2000
   -2.5423   -3.6749    0.8058 H   0  0  0  0  0  0  0  0  0  0  0  0
   -2.5063   -2.6779    0.3688 C   0  0  0  0  0  0  0  0  0  0  0  0
   -3.1603   -2.0109    0.9268 H   0  0  0  0  0  0  0  0  0  0  0  0
   -2.8193   -2.7229   -0.6722 H   0  0  0  0  0  0  0  0  0  0  0  0
   -1.0873   -2.1629    0.4418 C   0  0  0  0  0  0  0  0  0  0  0  0
   -0.2073   -2.8549    0.9368 O   0  0  0  0  0  0  0  0  0  0  0  0
   -0.8713   -0.9449   -0.0482 N   0  0  0  0  0  0  0  0  0  0  0  0
   -1.6543   -0.4189   -0.4062 H   0  0  0  0  0  0  0  0  0  0  0  0
    0.4237   -0.2649   -0.0462 C   0  0  1  0  0  0  0  0  0  0  0  0
    1.1955   -0.9752   -0.3474 H   0  0  0  0  0  0  0  0  0  0  0  0
    0.3874    0.8797   -1.0705 C   0  0  0  0  0  0  0  0  0  0  0  0
   -0.3813    1.6027   -0.7926 H   0  0  0  0  0  0  0  0  0  0  0  0
    1.3544    1.3806   -1.1050 H   0  0  0  0  0  0  0  0  0  0  0  0
    0.1638    0.4807   -2.0613 H   0  0  0  0  0  0  0  0  0  0  0  0
    0.7763    0.2487    1.3634 C   0  0  0  0  0  0  0  0  0  0  0  0
    1.2357    1.3800    1.5183 O   0  0  0  0  0  0  0  0  0  0  0  0
    0.5734   -0.5923    2.3855 N   0  0  0  0  0  0  0  0  0  0  0  0
    0.1992   -1.5046    2.1790 H   0  0  0  0  0  0  0  0  0  0  0  0
    0.8632   -0.2664    3.7811 C   0  0  0  0  0  0  0  0  0  0  0  0
    0.3364    0.6474    4.0630 H   0  0  0  0  0  0  0  0  0  0  0  0
    0.5456   -1.0799    4.4350 H   0  0  0  0  0  0  0  0  0  0  0  0
    1.9347   -0.1007    3.9053 H   0  0  0  0  0  0  0  0  0  0  0  0
  5  6  2  0  0  0  0
  5  7  1  0  0  0  0
  2  3  1  0  0  0  0
  2  4  1  0  0  0  0
  2  5  1  0  0  0  0
  1  2  1  0  0  0  0
 15 16  2  0  0  0  0
 15 17  1  0  0  0  0
 11 12  1  0  0  0  0
 11 13  1  0  0  0  0
 11 14  1  0  0  0  0
  9 10  1  0  0  0  0
  9 11  1  0  0  0  0
  9 15  1  0  0  0  0
  7  8  1  0  0  0  0
  7  9  1  0  0  0  0
 19 20  1  0  0  0  0
 19 21  1  0  0  0  0
 19 22  1  0  0  0  0
 17 18  1  0  0  0  0
 17 19  1  0  0  0  0
M  END
$$$$
default_name
  -OEChem-01062215323D

 22 21  0     1  0  0  0  0  0999 V2000
   -2.5423   -3.6749    0.8058 H   0  0  0  0  0  0  0  0  0  0  0  0
   -2.5063   -2.6779    0.3688 C   0  0  0  0  0  0  0  0  0  0  0  0
   -3.1603   -2.0109    0.9268 H   0  0  0  0  0  0  0  0  0  0  0  0
   -2.8193   -2.7229   -0.6722 H   0  0  0  0  0  0  0  0  0  0  0  0
   -1.0873   -2.1629    0.4418 C   0  0  0  0  0  0  0  0  0  0  0  0
   -0.2073   -2.8549    0.9368 O   0  0  0  0  0  0  0  0  0  0  0  0
   -0.8713   -0.9449   -0.0482 N   0  0  0  0  0  0  0  0  0  0  0  0
   -1.6543   -0.4189   -0.4062 H   0  0  0  0  0  0  0  0  0  0  0  0
    0.4237   -0.2649   -0.0462 C   0  0  1  0  0  0  0  0  0  0  0  0
    1.1955   -0.9752   -0.3474 H   0  0  0  0  0  0  0  0  0  0  0  0
    0.3874    0.8797   -1.0705 C   0  0  0  0  0  0  0  0  0  0  0  0
   -0.3813    1.6027   -0.7926 H   0  0  0  0  0  0  0  0  0  0  0  0
    1.3544    1.3806   -1.1050 H   0  0  0  0  0  0  0  0  0  0  0  0
    0.1638    0.4807   -2.0613 H   0  0  0  0  0  0  0  0  0  0  0  0
    0.7763    0.2487    1.3634 C   0  0  0  0  0  0  0  0  0  0  0  0
    0.9705    1.4481    1.5598 O   0  0  0  0  0  0  0  0  0  0  0  0
    0.8723   -0.6653    2.3374 N   0  0  0  0  0  0  0  0  0  0  0  0
    0.7045   -1.6294    2.0981 H   0  0  0  0  0  0  0  0  0  0  0  0
    1.2068   -0.3481    3.7250 C   0  0  0  0  0  0  0  0  0  0  0  0
    0.5093    0.3982    4.1106 H   0  0  0  0  0  0  0  0  0  0  0  0
    1.1509   -1.2448    4.3437 H   0  0  0  0  0  0  0  0  0  0  0  0
    2.2165    0.0630    3.7752 H   0  0  0  0  0  0  0  0  0  0  0  0
  5  6  2  0  0  0  0
  5  7  1  0  0  0  0
  2  3  1  0  0  0  0
  2  4  1  0  0  0  0
  2  5  1  0  0  0  0
  1  2  1  0  0  0  0
 15 16  2  0  0  0  0
 15 17  1  0  0  0  0
 11 12  1  0  0  0  0
 11 13  1  0  0  0  0
 11 14  1  0  0  0  0
  9 10  1  0  0  0  0
  9 11  1  0  0  0  0
  9 15  1  0  0  0  0
  7  8  1  0  0  0  0
  7  9  1  0  0  0  0
 19 20  1  0  0  0  0
 19 21  1  0  0  0  0
 19 22  1  0  0  0  0
 17 18  1  0  0  0  0
 17 19  1  0  0  0  0
M  END
$$$$
default_name
  -OEChem-01062215323D

 22 21  0     1  0  0  0  0  0999 V2000
   -2.5423   -3.6749    0.8058 H   0  0  0  0  0  0  0  0  0  0  0  0
   -2.5063   -2.6779    0.3688 C   0  0  0  0  0  0  0  0  0  0  0  0
   -3.1603   -2.0109    0.9268 H   0  0  0  0  0  0  0  0  0  0  0  0
   -2.8193   -2.7229   -0.6722 H   0  0  0  0  0  0  0  0  0  0  0  0
   -1.0873   -2.1629    0.4418 C   0  0  0  0  0  0  0  0  0  0  0  0
   -0.2073   -2.8549    0.9368 O   0  0  0  0  0  0  0  0  0  0  0  0
   -0.8713   -0.9449   -0.0482 N   0  0  0  0  0  0  0  0  0  0  0  0
   -1.6543   -0.4189   -0.4062 H   0  0  0  0  0  0  0  0  0  0  0  0
    0.4237   -0.2649   -0.0462 C   0  0  1  0  0  0  0  0  0  0  0  0
    1.1955   -0.9752   -0.3474 H   0  0  0  0  0  0  0  0  0  0  0  0
    0.3874    0.8797   -1.0705 C   0  0  0  0  0  0  0  0  0  0  0  0
   -0.3813    1.6027   -0.7926 H   0  0  0  0  0  0  0  0  0  0  0  0
    1.3544    1.3806   -1.1050 H   0  0  0  0  0  0  0  0  0  0  0  0
    0.1638    0.4807   -2.0613 H   0  0  0  0  0  0  0  0  0  0  0  0
    0.7763    0.2487    1.3634 C   0  0  0  0  0  0  0  0  0  0  0  0
    0.7017    1.4486    1.6268 O   0  0  0  0  0  0  0  0  0  0  0  0
    1.1742   -0.6622    2.2607 N   0  0  0  0  0  0  0  0  0  0  0  0
    1.2151   -1.6256    1.9690 H   0  0  0  0  0  0  0  0  0  0  0  0
    1.5531   -0.3423    3.6362 C   0  0  0  0  0  0  0  0  0  0  0  0
    0.7394    0.1956    4.1268 H   0  0  0  0  0  0  0  0  0  0  0  0
    1.7668   -1.2555    4.1935 H   0  0  0  0  0  0  0  0  0  0  0  0
    2.4387    0.2955    3.6349 H   0  0  0  0  0  0  0  0  0  0  0  0
  5  6  2  0  0  0  0
  5  7  1  0  0  0  0
  2  3  1  0  0  0  0
  2  4  1  0  0  0  0
  2  5  1  0  0  0  0
  1  2  1  0  0  0  0
 15 16  2  0  0  0  0
 15 17  1  0  0  0  0
 11 12  1  0  0  0  0
 11 13  1  0  0  0  0
 11 14  1  0  0  0  0
  9 10  1  0  0  0  0
  9 11  1  0  0  0  0
  9 15  1  0  0  0  0
  7  8  1  0  0  0  0
  7  9  1  0  0  0  0
 19 20  1  0  0  0  0
 19 21  1  0  0  0  0
 19 22  1  0  0  0  0
 17 18  1  0  0  0  0
 17 19  1  0  0  0  0
M  END
$$$$
default_name
  -OEChem-01062215323D

 22 21  0     1  0  0  0  0  0999 V2000
   -2.5423   -3.6749    0.8058 H   0  0  0  0  0  0  0  0  0  0  0  0
   -2.5063   -2.6779    0.3688 C   0  0  0  0  0  0  0  0  0  0  0  0
   -3.1603   -2.0109    0.9268 H   0  0  0  0  0  0  0  0  0  0  0  0
   -2.8193   -2.7229   -0.6722 H   0  0  0  0  0  0  0  0  0  0  0  0
   -1.0873   -2.1629    0.4418 C   0  0  0  0  0  0  0  0  0  0  0  0
   -0.2073   -2.8549    0.9368 O   0  0  0  0  0  0  0  0  0  0  0  0
   -0.8713   -0.9449   -0.0482 N   0  0  0  0  0  0  0  0  0  0  0  0
   -1.6543   -0.4189   -0.4062 H   0  0  0  0  0  0  0  0  0  0  0  0
    0.4237   -0.2649   -0.0462 C   0  0  1  0  0  0  0  0  0  0  0  0
    1.1955   -0.9752   -0.3474 H   0  0  0  0  0  0  0  0  0  0  0  0
    0.3874    0.8797   -1.0705 C   0  0  0  0  0  0  0  0  0  0  0  0
   -0.3813    1.6027   -0.7926 H   0  0  0  0  0  0  0  0  0  0  0  0
    1.3544    1.3806   -1.1050 H   0  0  0  0  0  0  0  0  0  0  0  0
    0.1638    0.4807   -2.0613 H   0  0  0  0  0  0  0  0  0  0  0  0
    0.7763    0.2487    1.3634 C   0  0  0  0  0  0  0  0  0  0  0  0
    0.4478    1.3816    1.7148 O   0  0  0  0  0  0  0  0  0  0  0  0
    1.4584   -0.5832    2.1609 N   0  0  0  0  0  0  0  0  0  0  0  0
    1.6964   -1.4934    1.8004 H   0  0  0  0  0  0  0  0  0  0  0  0
    1.8786   -0.2495    3.5210 C   0  0  0  0  0  0  0  0  0  0  0  0
    1.0111    0.0535    4.1107 H   0  0  0  0  0  0  0  0  0  0  0  0
    2.3513   -1.1110    3.9947 H   0  0  0  0  0  0  0  0  0  0  0  0
    2.5862    0.5810    3.4940 H   0  0  0  0  0  0  0  0  0  0  0  0
  5  6  2  0  0  0  0
  5  7  1  0  0  0  0
  2  3  1  0  0  0  0
  2  4  1  0  0  0  0
  2  5  1  0  0  0  0
  1  2  1  0  0  0  0
 15 16  2  0  0  0  0
 15 17  1  0  0  0  0
 11 12  1  0  0  0  0
 11 13  1  0  0  0  0
 11 14  1  0  0  0  0
  9 10  1  0  0  0  0
  9 11  1  0  0  0  0
  9 15  1  0  0  0  0
  7  8  1  0  0  0  0
  7  9  1  0  0  0  0
 19 20  1  0  0  0  0
 19 21  1  0  0  0  0
 19 22  1  0  0  0  0
 17 18  1  0  0  0  0
 17 19  1  0  0  0  0
M  END
$$$$
default_name
  -OEChem-01062215323D

 22 21  0     1  0  0  0  0  0999 V2000
   -2.5423   -3.6749    0.8058 H   0  0  0  0  0  0  0  0  0  0  0  0
   -2.5063   -2.6779    0.3688 C   0  0  0  0  0  0  0  0  0  0  0  0
   -3.1603   -2.0109    0.9268 H   0  0  0  0  0  0  0  0  0  0  0  0
   -2.8193   -2.7229   -0.6722 H   0  0  0  0  0  0  0  0  0  0  0  0
   -1.0873   -2.1629    0.4418 C   0  0  0  0  0  0  0  0  0  0  0  0
   -0.2073   -2.8549    0.9368 O   0  0  0  0  0  0  0  0  0  0  0  0
   -0.8713   -0.9449   -0.0482 N   0  0  0  0  0  0  0  0  0  0  0  0
   -1.6543   -0.4189   -0.4062 H   0  0  0  0  0  0  0  0  0  0  0  0
    0.4237   -0.2649   -0.0462 C   0  0  1  0  0  0  0  0  0  0  0  0
    1.1955   -0.9752   -0.3474 H   0  0  0  0  0  0  0  0  0  0  0  0
    0.3874    0.8797   -1.0705 C   0  0  0  0  0  0  0  0  0  0  0  0
   -0.3813    1.6027   -0.7926 H   0  0  0  0  0  0  0  0  0  0  0  0
    1.3544    1.3806   -1.1050 H   0  0  0  0  0  0  0  0  0  0  0  0
    0.1638    0.4807   -2.0613 H   0  0  0  0  0  0  0  0  0  0  0  0
    0.7763    0.2487    1.3634 C   0  0  0  0  0  0  0  0  0  0  0  0
    0.2260    1.2515    1.8177 O   0  0  0  0  0  0  0  0  0  0  0  0
    1.7056   -0.4337    2.0446 N   0  0  0  0  0  0  0  0  0  0  0  0
    2.1153   -1.2418    1.6040 H   0  0  0  0  0  0  0  0  0  0  0  0
    2.1611   -0.0759    3.3871 C   0  0  0  0  0  0  0  0  0  0  0  0
    1.3058   -0.0186    4.0632 H   0  0  0  0  0  0  0  0  0  0  0  0
    2.8645   -0.8214    3.7608 H   0  0  0  0  0  0  0  0  0  0  0  0
    2.6489    0.9000    3.3621 H   0  0  0  0  0  0  0  0  0  0  0  0
  5  6  2  0  0  0  0
  5  7  1  0  0  0  0
  2  3  1  0  0  0  0
  2  4  1  0  0  0  0
  2  5  1  0  0  0  0
  1  2  1  0  0  0  0
 15 16  2  0  0  0  0
 15 17  1  0  0  0  0
 11 12  1  0  0  0  0
 11 13  1  0  0  0  0
 11 14  1  0  0  0  0
  9 10  1  0  0  0  0
  9 11  1  0  0  0  0
  9 15  1  0  0  0  0
  7  8  1  0  0  0  0
  7  9  1  0  0  0  0
 19 20  1  0  0  0  0
 19 21  1  0  0  0  0
 19 22  1  0  0  0  0
 17 18  1  0  0  0  0
 17 19  1  0  0  0  0
M  END
$$$$
default_name
  -OEChem-01062215323D

 22 21  0     1  0  0  0  0  0999 V2000
   -2.5423   -3.6749    0.8058 H   0  0  0  0  0  0  0  0  0  0  0  0
   -2.5063   -2.6779    0.3688 C   0  0  0  0  0  0  0  0  0  0  0  0
   -3.1603   -2.0109    0.9268 H   0  0  0  0  0  0  0  0  0  0  0  0
   -2.8193   -2.7229   -0.6722 H   0  0  0  0  0  0  0  0  0  0  0  0
   -1.0873   -2.1629    0.4418 C   0  0  0  0  0  0  0  0  0  0  0  0
   -0.2073   -2.8549    0.9368 O   0  0  0  0  0  0  0  0  0  0  0  0
   -0.8713   -0.9449   -0.0482 N   0  0  0  0  0  0  0  0  0  0  0  0
   -1.6543   -0.4189   -0.4062 H   0  0  0  0  0  0  0  0  0  0  0  0
    0.4237   -0.2649   -0.0462 C   0  0  1  0  0  0  0  0  0  0  0  0
    1.1955   -0.9752   -0.3474 H   0  0  0  0  0  0  0  0  0  0  0  0
    0.3874    0.8797   -1.0705 C   0  0  0  0  0  0  0  0  0  0  0  0
   -0.3813    1.6027   -0.7926 H   0  0  0  0  0  0  0  0  0  0  0  0
    1.3544    1.3806   -1.1050 H   0  0  0  0  0  0  0  0  0  0  0  0
    0.1638    0.4807   -2.0613 H   0  0  0  0  0  0  0  0  0  0  0  0
    0.7763    0.2487    1.3634 C   0  0  0  0  0  0  0  0  0  0  0  0
    0.0514    1.0672    1.9285 O   0  0  0  0  0  0  0  0  0  0  0  0
    1.8989   -0.2239    1.9198 N   0  0  0  0  0  0  0  0  0  0  0  0
    2.4435   -0.8879    1.3929 H   0  0  0  0  0  0  0  0  0  0  0  0
    2.3814    0.1665    3.2437 C   0  0  0  0  0  0  0  0  0  0  0  0
    1.6033   -0.0156    3.9877 H   0  0  0  0  0  0  0  0  0  0  0  0
    3.2715   -0.4063    3.5077 H   0  0  0  0  0  0  0  0  0  0  0  0
    2.6225    1.2309    3.2481 H   0  0  0  0  0  0  0  0  0  0  0  0
  5  6  2  0  0  0  0
  5  7  1  0  0  0  0
  2  3  1  0  0  0  0
  2  4  1  0  0  0  0
  2  5  1  0  0  0  0
  1  2  1  0  0  0  0
 15 16  2  0  0  0  0
 15 17  1  0  0  0  0
 11 12  1  0  0  0  0
 11 13  1  0  0  0  0
 11 14  1  0  0  0  0
  9 10  1  0  0  0  0
  9 11  1  0  0  0  0
  9 15  1  0  0  0  0
  7  8  1  0  0  0  0
  7  9  1  0  0  0  0
 19 20  1  0  0  0  0
 19 21  1  0  0  0  0
 19 22  1  0  0  0  0
 17 18  1  0  0  0  0
 17 19  1  0  0  0  0
M  END
$$$$
default_name
  -OEChem-01062215323D

 22 21  0     1  0  0  0  0  0999 V2000
   -2.5423   -3.6749    0.8058 H   0  0  0  0  0  0  0  0  0  0  0  0
   -2.5063   -2.6779    0.3688 C   0  0  0  0  0  0  0  0  0  0  0  0
   -3.1603   -2.0109    0.9268 H   0  0  0  0  0  0  0  0  0  0  0  0
   -2.8193   -2.7229   -0.6722 H   0  0  0  0  0  0  0  0  0  0  0  0
   -1.0873   -2.1629    0.4418 C   0  0  0  0  0  0  0  0  0  0  0  0
   -0.2073   -2.8549    0.9368 O   0  0  0  0  0  0  0  0  0  0  0  0
   -0.8713   -0.9449   -0.0482 N   0  0  0  0  0  0  0  0  0  0  0  0
   -1.6543   -0.4189   -0.4062 H   0  0  0  0  0  0  0  0  0  0  0  0
    0.4237   -0.2649   -0.0462 C   0  0  1  0  0  0  0  0  0  0  0  0
    1.1955   -0.9752   -0.3474 H   0  0  0  0  0  0  0  0  0  0  0  0
    0.3874    0.8797   -1.0705 C   0  0  0  0  0  0  0  0  0  0  0  0
   -0.3813    1.6027   -0.7926 H   0  0  0  0  0  0  0  0  0  0  0  0
    1.3544    1.3806   -1.1050 H   0  0  0  0  0  0  0  0  0  0  0  0
    0.1638    0.4807   -2.0613 H   0  0  0  0  0  0  0  0  0  0  0  0
    0.7763    0.2487    1.3634 C   0  0  0  0  0  0  0  0  0  0  0  0
   -0.0641    0.8413    2.0397 O   0  0  0  0  0  0  0  0  0  0  0  0
    2.0253    0.0319    1.7949 N   0  0  0  0  0  0  0  0  0  0  0  0
    2.6585   -0.4559    1.1818 H   0  0  0  0  0  0  0  0  0  0  0  0
    2.5244    0.4613    3.1005 C   0  0  0  0  0  0  0  0  0  0  0  0
    1.8836    0.0622    3.8892 H   0  0  0  0  0  0  0  0  0  0  0  0
    3.5445    0.1060    3.2528 H   0  0  0  0  0  0  0  0  0  0  0  0
    2.5089    1.5509    3.1599 H   0  0  0  0  0  0  0  0  0  0  0  0
  5  6  2  0  0  0  0
  5  7  1  0  0  0  0
  2  3  1  0  0  0  0
  2  4  1  0  0  0  0
  2  5  1  0  0  0  0
  1  2  1  0  0  0  0
 15 16  2  0  0  0  0
 15 17  1  0  0  0  0
 11 12  1  0  0  0  0
 11 13  1  0  0  0  0
 11 14  1  0  0  0  0
  9 10  1  0  0  0  0
  9 11  1  0  0  0  0
  9 15  1  0  0  0  0
  7  8  1  0  0  0  0
  7  9  1  0  0  0  0
 19 20  1  0  0  0  0
 19 21  1  0  0  0  0
 19 22  1  0  0  0  0
 17 18  1  0  0  0  0
 17 19  1  0  0  0  0
M  END
$$$$
default_name
  -OEChem-01062215323D

 22 21  0     1  0  0  0  0  0999 V2000
   -2.5423   -3.6749    0.8058 H   0  0  0  0  0  0  0  0  0  0  0  0
   -2.5063   -2.6779    0.3688 C   0  0  0  0  0  0  0  0  0  0  0  0
   -3.1603   -2.0109    0.9268 H   0  0  0  0  0  0  0  0  0  0  0  0
   -2.8193   -2.7229   -0.6722 H   0  0  0  0  0  0  0  0  0  0  0  0
   -1.0873   -2.1629    0.4418 C   0  0  0  0  0  0  0  0  0  0  0  0
   -0.2073   -2.8549    0.9368 O   0  0  0  0  0  0  0  0  0  0  0  0
   -0.8713   -0.9449   -0.0482 N   0  0  0  0  0  0  0  0  0  0  0  0
   -1.6543   -0.4189   -0.4062 H   0  0  0  0  0  0  0  0  0  0  0  0
    0.4237   -0.2649   -0.0462 C   0  0  1  0  0  0  0  0  0  0  0  0
    1.1955   -0.9752   -0.3474 H   0  0  0  0  0  0  0  0  0  0  0  0
    0.3874    0.8797   -1.0705 C   0  0  0  0  0  0  0  0  0  0  0  0
   -0.3813    1.6027   -0.7926 H   0  0  0  0  0  0  0  0  0  0  0  0
    1.3544    1.3806   -1.1050 H   0  0  0  0  0  0  0  0  0  0  0  0
    0.1638    0.4807   -2.0613 H   0  0  0  0  0  0  0  0  0  0  0  0
    0.7763    0.2487    1.3634 C   0  0  0  0  0  0  0  0  0  0  0  0
   -0.1126    0.5892    2.1437 O   0  0  0  0  0  0  0  0  0  0  0  0
    2.0760    0.3163    1.6786 N   0  0  0  0  0  0  0  0  0  0  0  0
    2.7458    0.0248    0.9848 H   0  0  0  0  0  0  0  0  0  0  0  0
    2.5804    0.7884    2.9673 C   0  0  0  0  0  0  0  0  0  0  0  0
    2.1273    0.2095    3.7746 H   0  0  0  0  0  0  0  0  0  0  0  0
    3.6649    0.6806    3.0133 H   0  0  0  0  0  0  0  0  0  0  0  0
    2.3158    1.8384    3.1035 H   0  0  0  0  0  0  0  0  0  0  0  0
  5  6  2  0  0  0  0
  5  7  1  0  0  0  0
  2  3  1  0  0  0  0
  2  4  1  0  0  0  0
  2  5  1  0  0  0  0
  1  2  1  0  0  0  0
 15 16  2  0  0  0  0
 15 17  1  0  0  0  0
 11 12  1  0  0  0  0
 11 13  1  0  0  0  0
 11 14  1  0  0  0  0
  9 10  1  0  0  0  0
  9 11  1  0  0  0  0
  9 15  1  0  0  0  0
  7  8  1  0  0  0  0
  7  9  1  0  0  0  0
 19 20  1  0  0  0  0
 19 21  1  0  0  0  0
 19 22  1  0  0  0  0
 17 18  1  0  0  0  0
 17 19  1  0  0  0  0
M  END
$$$$
default_name
  -OEChem-01062215323D

 22 21  0     1  0  0  0  0  0999 V2000
   -2.5423   -3.6749    0.8058 H   0  0  0  0  0  0  0  0  0  0  0  0
   -2.5063   -2.6779    0.3688 C   0  0  0  0  0  0  0  0  0  0  0  0
   -3.1603   -2.0109    0.9268 H   0  0  0  0  0  0  0  0  0  0  0  0
   -2.8193   -2.7229   -0.6722 H   0  0  0  0  0  0  0  0  0  0  0  0
   -1.0873   -2.1629    0.4418 C   0  0  0  0  0  0  0  0  0  0  0  0
   -0.2073   -2.8549    0.9368 O   0  0  0  0  0  0  0  0  0  0  0  0
   -0.8713   -0.9449   -0.0482 N   0  0  0  0  0  0  0  0  0  0  0  0
   -1.6543   -0.4189   -0.4062 H   0  0  0  0  0  0  0  0  0  0  0  0
    0.4237   -0.2649   -0.0462 C   0  0  1  0  0  0  0  0  0  0  0  0
    1.1955   -0.9752   -0.3474 H   0  0  0  0  0  0  0  0  0  0  0  0
    0.3874    0.8797   -1.0705 C   0  0  0  0  0  0  0  0  0  0  0  0
   -0.3813    1.6027   -0.7926 H   0  0  0  0  0  0  0  0  0  0  0  0
    1.3544    1.3806   -1.1050 H   0  0  0  0  0  0  0  0  0  0  0  0
    0.1638    0.4807   -2.0613 H   0  0  0  0  0  0  0  0  0  0  0  0
    0.7763    0.2487    1.3634 C   0  0  0  0  0  0  0  0  0  0  0  0
   -0.0907    0.3280    2.2333 O   0  0  0  0  0  0  0  0  0  0  0  0
    2.0476    0.6099    1.5788 N   0  0  0  0  0  0  0  0  0  0  0  0
    2.6992    0.5214    0.8155 H   0  0  0  0  0  0  0  0  0  0  0  0
    2.5455    1.1255    2.8532 C   0  0  0  0  0  0  0  0  0  0  0  0
    2.3180    0.4163    3.6516 H   0  0  0  0  0  0  0  0  0  0  0  0
    3.6246    1.2782    2.8057 H   0  0  0  0  0  0  0  0  0  0  0  0
    2.0564    2.0738    3.0826 H   0  0  0  0  0  0  0  0  0  0  0  0
  5  6  2  0  0  0  0
  5  7  1  0  0  0  0
  2  3  1  0  0  0  0
  2  4  1  0  0  0  0
  2  5  1  0  0  0  0
  1  2  1  0  0  0  0
 15 16  2  0  0  0  0
 15 17  1  0  0  0  0
 11 12  1  0  0  0  0
 11 13  1  0  0  0  0
 11 14  1  0  0  0  0
  9 10  1  0  0  0  0
  9 11  1  0  0  0  0
  9 15  1  0  0  0  0
  7  8  1  0  0  0  0
  7  9  1  0  0  0  0
 19 20  1  0  0  0  0
 19 21  1  0  0  0  0
 19 22  1  0  0  0  0
 17 18  1  0  0  0  0
 17 19  1  0  0  0  0
M  END
$$$$
default_name
  -OEChem-01062215323D

 22 21  0     1  0  0  0  0  0999 V2000
   -2.5423   -3.6749    0.8058 H   0  0  0  0  0  0  0  0  0  0  0  0
   -2.5063   -2.6779    0.3688 C   0  0  0  0  0  0  0  0  0  0  0  0
   -3.1603   -2.0109    0.9268 H   0  0  0  0  0  0  0  0  0  0  0  0
   -2.8193   -2.7229   -0.6722 H   0  0  0  0  0  0  0  0  0  0  0  0
   -1.0873   -2.1629    0.4418 C   0  0  0  0  0  0  0  0  0  0  0  0
   -0.2073   -2.8549    0.9368 O   0  0  0  0  0  0  0  0  0  0  0  0
   -0.8713   -0.9449   -0.0482 N   0  0  0  0  0  0  0  0  0  0  0  0
   -1.6543   -0.4189   -0.4062 H   0  0  0  0  0  0  0  0  0  0  0  0
    0.4237   -0.2649   -0.0462 C   0  0  1  0  0  0  0  0  0  0  0  0
    1.1438   -0.8761   -0.5927 H   0  0  0  0  0  0  0  0  0  0  0  0
    0.2800    1.0833   -0.7689 C   0  0  0  0  0  0  0  0  0  0  0  0
   -0.4397    1.7122   -0.2423 H   0  0  0  0  0  0  0  0  0  0  0  0
    1.2426    1.5926   -0.8037 H   0  0  0  0  0  0  0  0  0  0  0  0
   -0.0666    0.9187   -1.7905 H   0  0  0  0  0  0  0  0  0  0  0  0
    0.9504   -0.0830    1.3907 C   0  0  0  0  0  0  0  0  0  0  0  0
    0.2904   -0.4777    2.3516 O   0  0  0  0  0  0  0  0  0  0  0  0
    2.1331    0.5289    1.5320 N   0  0  0  0  0  0  0  0  0  0  0  0
    2.6121    0.8288    0.6980 H   0  0  0  0  0  0  0  0  0  0  0  0
    2.7694    0.7882    2.8227 C   0  0  0  0  0  0  0  0  0  0  0  0
    2.8709   -0.1465    3.3778 H   0  0  0  0  0  0  0  0  0  0  0  0
    3.7570    1.2284    2.6777 H   0  0  0  0  0  0  0  0  0  0  0  0
    2.1514    1.4724    3.4066 H   0  0  0  0  0  0  0  0  0  0  0  0
  5  6  2  0  0  0  0
  5  7  1  0  0  0  0
  2  3  1  0  0  0  0
  2  4  1  0  0  0  0
  2  5  1  0  0  0  0
  1  2  1  0  0  0  0
 15 16  2  0  0  0  0
 15 17  1  0  0  0  0
 11 12  1  0  0  0  0
 11 13  1  0  0  0  0
 11 14  1  0  0  0  0
  9 10  1  0  0  0  0
  9 11  1  0  0  0  0
  9 15  1  0  0  0  0
  7  8  1  0  0  0  0
  7  9  1  0  0  0  0
 19 20  1  0  0  0  0
 19 21  1  0  0  0  0
 19 22  1  0  0  0  0
 17 18  1  0  0  0  0
 17 19  1  0  0  0  0
M  END
$$$$
default_name
  -OEChem-01062215323D

 22 21  0     1  0  0  0  0  0999 V2000
   -2.5423   -3.6749    0.8058 H   0  0  0  0  0  0  0  0  0  0  0  0
   -2.5063   -2.6779    0.3688 C   0  0  0  0  0  0  0  0  0  0  0  0
   -3.1603   -2.0109    0.9268 H   0  0  0  0  0  0  0  0  0  0  0  0
   -2.8193   -2.7229   -0.6722 H   0  0  0  0  0  0  0  0  0  0  0  0
   -1.0873   -2.1629    0.4418 C   0  0  0  0  0  0  0  0  0  0  0  0
   -0.2073   -2.8549    0.9368 O   0  0  0  0  0  0  0  0  0  0  0  0
   -0.8713   -0.9449   -0.0482 N   0  0  0  0  0  0  0  0  0  0  0  0
   -1.6543   -0.4189   -0.4062 H   0  0  0  0  0  0  0  0  0  0  0  0
    0.4237   -0.2649   -0.0462 C   0  0  1  0  0  0  0  0  0  0  0  0
    1.1438   -0.8761   -0.5927 H   0  0  0  0  0  0  0  0  0  0  0  0
    0.2800    1.0833   -0.7689 C   0  0  0  0  0  0  0  0  0  0  0  0
   -0.4397    1.7122   -0.2423 H   0  0  0  0  0  0  0  0  0  0  0  0
    1.2426    1.5926   -0.8037 H   0  0  0  0  0  0  0  0  0  0  0  0
   -0.0666    0.9187   -1.7905 H   0  0  0  0  0  0  0  0  0  0  0  0
    0.9504   -0.0830    1.3907 C   0  0  0  0  0  0  0  0  0  0  0  0
    0.4448   -0.7060    2.3239 O   0  0  0  0  0  0  0  0  0  0  0  0
    1.9566    0.7834    1.5645 N   0  0  0  0  0  0  0  0  0  0  0  0
    2.3146    1.2601    0.7524 H   0  0  0  0  0  0  0  0  0  0  0  0
    2.5650    1.0791    2.8608 C   0  0  0  0  0  0  0  0  0  0  0  0
    2.9106    0.1534    3.3252 H   0  0  0  0  0  0  0  0  0  0  0  0
    3.4112    1.7564    2.7376 H   0  0  0  0  0  0  0  0  0  0  0  0
    1.8255    1.5408    3.5174 H   0  0  0  0  0  0  0  0  0  0  0  0
  5  6  2  0  0  0  0
  5  7  1  0  0  0  0
  2  3  1  0  0  0  0
  2  4  1  0  0  0  0
  2  5  1  0  0  0  0
  1  2  1  0  0  0  0
 15 16  2  0  0  0  0
 15 17  1  0  0  0  0
 11 12  1  0  0  0  0
 11 13  1  0  0  0  0
 11 14  1  0  0  0  0
  9 10  1  0  0  0  0
  9 11  1  0  0  0  0
  9 15  1  0  0  0  0
  7  8  1  0  0  0  0
  7  9  1  0  0  0  0
 19 20  1  0  0  0  0
 19 21  1  0  0  0  0
 19 22  1  0  0  0  0
 17 18  1  0  0  0  0
 17 19  1  0  0  0  0
M  END
$$$$
default_name
  -OEChem-01062215323D

 22 21  0     1  0  0  0  0  0999 V2000
   -2.5423   -3.6749    0.8058 H   0  0  0  0  0  0  0  0  0  0  0  0
   -2.5063   -2.6779    0.3688 C   0  0  0  0  0  0  0  0  0  0  0  0
   -3.1603   -2.0109    0.9268 H   0  0  0  0  0  0  0  0  0  0  0  0
   -2.8193   -2.7229   -0.6722 H   0  0  0  0  0  0  0  0  0  0  0  0
   -1.0873   -2.1629    0.4418 C   0  0  0  0  0  0  0  0  0  0  0  0
   -0.2073   -2.8549    0.9368 O   0  0  0  0  0  0  0  0  0  0  0  0
   -0.8713   -0.9449   -0.0482 N   0  0  0  0  0  0  0  0  0  0  0  0
   -1.6543   -0.4189   -0.4062 H   0  0  0  0  0  0  0  0  0  0  0  0
    0.4237   -0.2649   -0.0462 C   0  0  1  0  0  0  0  0  0  0  0  0
    1.1438   -0.8761   -0.5927 H   0  0  0  0  0  0  0  0  0  0  0  0
    0.2800    1.0833   -0.7689 C   0  0  0  0  0  0  0  0  0  0  0  0
   -0.4397    1.7122   -0.2423 H   0  0  0  0  0  0  0  0  0  0  0  0
    1.2426    1.5926   -0.8037 H   0  0  0  0  0  0  0  0  0  0  0  0
   -0.0666    0.9187   -1.7905 H   0  0  0  0  0  0  0  0  0  0  0  0
    0.9504   -0.0830    1.3907 C   0  0  0  0  0  0  0  0  0  0  0  0
    0.6482   -0.8869    2.2723 O   0  0  0  0  0  0  0  0  0  0  0  0
    1.7256    0.9837    1.6238 N   0  0  0  0  0  0  0  0  0  0  0  0
    1.9249    1.6001    0.8522 H   0  0  0  0  0  0  0  0  0  0  0  0
    2.2984    1.3073    2.9296 C   0  0  0  0  0  0  0  0  0  0  0  0
    2.8750    0.4573    3.2998 H   0  0  0  0  0  0  0  0  0  0  0  0
    2.9516    2.1777    2.8527 H   0  0  0  0  0  0  0  0  0  0  0  0
    1.4977    1.5185    3.6404 H   0  0  0  0  0  0  0  0  0  0  0  0
  5  6  2  0  0  0  0
  5  7  1  0  0  0  0
  2  3  1  0  0  0  0
  2  4  1  0  0  0  0
  2  5  1  0  0  0  0
  1  2  1  0  0  0  0
 15 16  2  0  0  0  0
 15 17  1  0  0  0  0
 11 12  1  0  0  0  0
 11 13  1  0  0  0  0
 11 14  1  0  0  0  0
  9 10  1  0  0  0  0
  9 11  1  0  0  0  0
  9 15  1  0  0  0  0
  7  8  1  0  0  0  0
  7  9  1  0  0  0  0
 19 20  1  0  0  0  0
 19 21  1  0  0  0  0
 19 22  1  0  0  0  0
 17 18  1  0  0  0  0
 17 19  1  0  0  0  0
M  END
$$$$
default_name
  -OEChem-01062215323D

 22 21  0     1  0  0  0  0  0999 V2000
   -2.5423   -3.6749    0.8058 H   0  0  0  0  0  0  0  0  0  0  0  0
   -2.5063   -2.6779    0.3688 C   0  0  0  0  0  0  0  0  0  0  0  0
   -3.1603   -2.0109    0.9268 H   0  0  0  0  0  0  0  0  0  0  0  0
   -2.8193   -2.7229   -0.6722 H   0  0  0  0  0  0  0  0  0  0  0  0
   -1.0873   -2.1629    0.4418 C   0  0  0  0  0  0  0  0  0  0  0  0
   -0.2073   -2.8549    0.9368 O   0  0  0  0  0  0  0  0  0  0  0  0
   -0.8713   -0.9449   -0.0482 N   0  0  0  0  0  0  0  0  0  0  0  0
   -1.6543   -0.4189   -0.4062 H   0  0  0  0  0  0  0  0  0  0  0  0
    0.4237   -0.2649   -0.0462 C   0  0  1  0  0  0  0  0  0  0  0  0
    1.1438   -0.8761   -0.5927 H   0  0  0  0  0  0  0  0  0  0  0  0
    0.2800    1.0833   -0.7689 C   0  0  0  0  0  0  0  0  0  0  0  0
   -0.4397    1.7122   -0.2423 H   0  0  0  0  0  0  0  0  0  0  0  0
    1.2426    1.5926   -0.8037 H   0  0  0  0  0  0  0  0  0  0  0  0
   -0.0666    0.9187   -1.7905 H   0  0  0  0  0  0  0  0  0  0  0  0
    0.9504   -0.0830    1.3907 C   0  0  0  0  0  0  0  0  0  0  0  0
    0.8867   -1.0079    2.2002 O   0  0  0  0  0  0  0  0  0  0  0  0
    1.4560    1.1162    1.7058 N   0  0  0  0  0  0  0  0  0  0  0  0
    1.4694    1.8256    0.9906 H   0  0  0  0  0  0  0  0  0  0  0  0
    1.9880    1.4574    3.0244 C   0  0  0  0  0  0  0  0  0  0  0  0
    2.7666    0.7445    3.3032 H   0  0  0  0  0  0  0  0  0  0  0  0
    2.4095    2.4635    3.0152 H   0  0  0  0  0  0  0  0  0  0  0  0
    1.1901    1.4069    3.7672 H   0  0  0  0  0  0  0  0  0  0  0  0
  5  6  2  0  0  0  0
  5  7  1  0  0  0  0
  2  3  1  0  0  0  0
  2  4  1  0  0  0  0
  2  5  1  0  0  0  0
  1  2  1  0  0  0  0
 15 16  2  0  0  0  0
 15 17  1  0  0  0  0
 11 12  1  0  0  0  0
 11 13  1  0  0  0  0
 11 14  1  0  0  0  0
  9 10  1  0  0  0  0
  9 11  1  0  0  0  0
  9 15  1  0  0  0  0
  7  8  1  0  0  0  0
  7  9  1  0  0  0  0
 19 20  1  0  0  0  0
 19 21  1  0  0  0  0
 19 22  1  0  0  0  0
 17 18  1  0  0  0  0
 17 19  1  0  0  0  0
M  END
$$$$
default_name
  -OEChem-01062215323D

 22 21  0     1  0  0  0  0  0999 V2000
   -2.5423   -3.6749    0.8058 H   0  0  0  0  0  0  0  0  0  0  0  0
   -2.5063   -2.6779    0.3688 C   0  0  0  0  0  0  0  0  0  0  0  0
   -3.1603   -2.0109    0.9268 H   0  0  0  0  0  0  0  0  0  0  0  0
   -2.8193   -2.7229   -0.6722 H   0  0  0  0  0  0  0  0  0  0  0  0
   -1.0873   -2.1629    0.4418 C   0  0  0  0  0  0  0  0  0  0  0  0
   -0.2073   -2.8549    0.9368 O   0  0  0  0  0  0  0  0  0  0  0  0
   -0.8713   -0.9449   -0.0482 N   0  0  0  0  0  0  0  0  0  0  0  0
   -1.6543   -0.4189   -0.4062 H   0  0  0  0  0  0  0  0  0  0  0  0
    0.4237   -0.2649   -0.0462 C   0  0  1  0  0  0  0  0  0  0  0  0
    1.1438   -0.8761   -0.5927 H   0  0  0  0  0  0  0  0  0  0  0  0
    0.2800    1.0833   -0.7689 C   0  0  0  0  0  0  0  0  0  0  0  0
   -0.4397    1.7122   -0.2423 H   0  0  0  0  0  0  0  0  0  0  0  0
    1.2426    1.5926   -0.8037 H   0  0  0  0  0  0  0  0  0  0  0  0
   -0.0666    0.9187   -1.7905 H   0  0  0  0  0  0  0  0  0  0  0  0
    0.9504   -0.0830    1.3907 C   0  0  0  0  0  0  0  0  0  0  0  0
    1.1440   -1.0609    2.1126 O   0  0  0  0  0  0  0  0  0  0  0  0
    1.1662    1.1720    1.8050 N   0  0  0  0  0  0  0  0  0  0  0  0
    0.9793    1.9213    1.1581 H   0  0  0  0  0  0  0  0  0  0  0  0
    1.6549    1.5191    3.1387 C   0  0  0  0  0  0  0  0  0  0  0  0
    2.5926    0.9954    3.3352 H   0  0  0  0  0  0  0  0  0  0  0  0
    1.8219    2.5945    3.2141 H   0  0  0  0  0  0  0  0  0  0  0  0
    0.9239    1.2137    3.8893 H   0  0  0  0  0  0  0  0  0  0  0  0
  5  6  2  0  0  0  0
  5  7  1  0  0  0  0
  2  3  1  0  0  0  0
  2  4  1  0  0  0  0
  2  5  1  0  0  0  0
  1  2  1  0  0  0  0
 15 16  2  0  0  0  0
 15 17  1  0  0  0  0
 11 12  1  0  0  0  0
 11 13  1  0  0  0  0
 11 14  1  0  0  0  0
  9 10  1  0  0  0  0
  9 11  1  0  0  0  0
  9 15  1  0  0  0  0
  7  8  1  0  0  0  0
  7  9  1  0  0  0  0
 19 20  1  0  0  0  0
 19 21  1  0  0  0  0
 19 22  1  0  0  0  0
 17 18  1  0  0  0  0
 17 19  1  0  0  0  0
M  END
$$$$
default_name
  -OEChem-01062215323D

 22 21  0     1  0  0  0  0  0999 V2000
   -2.5423   -3.6749    0.8058 H   0  0  0  0  0  0  0  0  0  0  0  0
   -2.5063   -2.6779    0.3688 C   0  0  0  0  0  0  0  0  0  0  0  0
   -3.1603   -2.0109    0.9268 H   0  0  0  0  0  0  0  0  0  0  0  0
   -2.8193   -2.7229   -0.6722 H   0  0  0  0  0  0  0  0  0  0  0  0
   -1.0873   -2.1629    0.4418 C   0  0  0  0  0  0  0  0  0  0  0  0
   -0.2073   -2.8549    0.9368 O   0  0  0  0  0  0  0  0  0  0  0  0
   -0.8713   -0.9449   -0.0482 N   0  0  0  0  0  0  0  0  0  0  0  0
   -1.6543   -0.4189   -0.4062 H   0  0  0  0  0  0  0  0  0  0  0  0
    0.4237   -0.2649   -0.0462 C   0  0  1  0  0  0  0  0  0  0  0  0
    1.1438   -0.8761   -0.5927 H   0  0  0  0  0  0  0  0  0  0  0  0
    0.2800    1.0833   -0.7689 C   0  0  0  0  0  0  0  0  0  0  0  0
   -0.4397    1.7122   -0.2423 H   0  0  0  0  0  0  0  0  0  0  0  0
    1.2426    1.5926   -0.8037 H   0  0  0  0  0  0  0  0  0  0  0  0
   -0.0666    0.9187   -1.7905 H   0  0  0  0  0  0  0  0  0  0  0  0
    0.9504   -0.0830    1.3907 C   0  0  0  0  0  0  0  0  0  0  0  0
    1.4027   -1.0422    2.0154 O   0  0  0  0  0  0  0  0  0  0  0  0
    0.8757    1.1470    1.9147 N   0  0  0  0  0  0  0  0  0  0  0  0
    0.4879    1.8807    1.3434 H   0  0  0  0  0  0  0  0  0  0  0  0
    1.3217    1.4881    3.2647 C   0  0  0  0  0  0  0  0  0  0  0  0
    2.3649    1.1930    3.3936 H   0  0  0  0  0  0  0  0  0  0  0  0
    1.2288    2.5616    3.4356 H   0  0  0  0  0  0  0  0  0  0  0  0
    0.7170    0.9521    3.9982 H   0  0  0  0  0  0  0  0  0  0  0  0
  5  6  2  0  0  0  0
  5  7  1  0  0  0  0
  2  3  1  0  0  0  0
  2  4  1  0  0  0  0
  2  5  1  0  0  0  0
  1  2  1  0  0  0  0
 15 16  2  0  0  0  0
 15 17  1  0  0  0  0
 11 12  1  0  0  0  0
 11 13  1  0  0  0  0
 11 14  1  0  0  0  0
  9 10  1  0  0  0  0
  9 11  1  0  0  0  0
  9 15  1  0  0  0  0
  7  8  1  0  0  0  0
  7  9  1  0  0  0  0
 19 20  1  0  0  0  0
 19 21  1  0  0  0  0
 19 22  1  0  0  0  0
 17 18  1  0  0  0  0
 17 19  1  0  0  0  0
M  END
$$$$
default_name
  -OEChem-01062215323D

 22 21  0     1  0  0  0  0  0999 V2000
   -2.5423   -3.6749    0.8058 H   0  0  0  0  0  0  0  0  0  0  0  0
   -2.5063   -2.6779    0.3688 C   0  0  0  0  0  0  0  0  0  0  0  0
   -3.1603   -2.0109    0.9268 H   0  0  0  0  0  0  0  0  0  0  0  0
   -2.8193   -2.7229   -0.6722 H   0  0  0  0  0  0  0  0  0  0  0  0
   -1.0873   -2.1629    0.4418 C   0  0  0  0  0  0  0  0  0  0  0  0
   -0.2073   -2.8549    0.9368 O   0  0  0  0  0  0  0  0  0  0  0  0
   -0.8713   -0.9449   -0.0482 N   0  0  0  0  0  0  0  0  0  0  0  0
   -1.6543   -0.4189   -0.4062 H   0  0  0  0  0  0  0  0  0  0  0  0
    0.4237   -0.2649   -0.0462 C   0  0  1  0  0  0  0  0  0  0  0  0
    1.1438   -0.8761   -0.5927 H   0  0  0  0  0  0  0  0  0  0  0  0
    0.2800    1.0833   -0.7689 C   0  0  0  0  0  0  0  0  0  0  0  0
   -0.4397    1.7122   -0.2423 H   0  0  0  0  0  0  0  0  0  0  0  0
    1.2426    1.5926   -0.8037 H   0  0  0  0  0  0  0  0  0  0  0  0
   -0.0666    0.9187   -1.7905 H   0  0  0  0  0  0  0  0  0  0  0  0
    0.9504   -0.0830    1.3907 C   0  0  0  0  0  0  0  0  0  0  0  0
    1.6451   -0.9531    1.9152 O   0  0  0  0  0  0  0  0  0  0  0  0
    0.6046    1.0432    2.0272 N   0  0  0  0  0  0  0  0  0  0  0  0
    0.0287    1.7065    1.5338 H   0  0  0  0  0  0  0  0  0  0  0  0
    1.0112    1.3667    3.3939 C   0  0  0  0  0  0  0  0  0  0  0  0
    2.0992    1.3237    3.4744 H   0  0  0  0  0  0  0  0  0  0  0  0
    0.6706    2.3670    3.6649 H   0  0  0  0  0  0  0  0  0  0  0  0
    0.5837    0.6398    4.0867 H   0  0  0  0  0  0  0  0  0  0  0  0
  5  6  2  0  0  0  0
  5  7  1  0  0  0  0
  2  3  1  0  0  0  0
  2  4  1  0  0  0  0
  2  5  1  0  0  0  0
  1  2  1  0  0  0  0
 15 16  2  0  0  0  0
 15 17  1  0  0  0  0
 11 12  1  0  0  0  0
 11 13  1  0  0  0  0
 11 14  1  0  0  0  0
  9 10  1  0  0  0  0
  9 11  1  0  0  0  0
  9 15  1  0  0  0  0
  7  8  1  0  0  0  0
  7  9  1  0  0  0  0
 19 20  1  0  0  0  0
 19 21  1  0  0  0  0
 19 22  1  0  0  0  0
 17 18  1  0  0  0  0
 17 19  1  0  0  0  0
M  END
$$$$
default_name
  -OEChem-01062215323D

 22 21  0     1  0  0  0  0  0999 V2000
   -2.5423   -3.6749    0.8058 H   0  0  0  0  0  0  0  0  0  0  0  0
   -2.5063   -2.6779    0.3688 C   0  0  0  0  0  0  0  0  0  0  0  0
   -3.1603   -2.0109    0.9268 H   0  0  0  0  0  0  0  0  0  0  0  0
   -2.8193   -2.7229   -0.6722 H   0  0  0  0  0  0  0  0  0  0  0  0
   -1.0873   -2.1629    0.4418 C   0  0  0  0  0  0  0  0  0  0  0  0
   -0.2073   -2.8549    0.9368 O   0  0  0  0  0  0  0  0  0  0  0  0
   -0.8713   -0.9449   -0.0482 N   0  0  0  0  0  0  0  0  0  0  0  0
   -1.6543   -0.4189   -0.4062 H   0  0  0  0  0  0  0  0  0  0  0  0
    0.4237   -0.2649   -0.0462 C   0  0  1  0  0  0  0  0  0  0  0  0
    1.1438   -0.8761   -0.5927 H   0  0  0  0  0  0  0  0  0  0  0  0
    0.2800    1.0833   -0.7689 C   0  0  0  0  0  0  0  0  0  0  0  0
   -0.4397    1.7122   -0.2423 H   0  0  0  0  0  0  0  0  0  0  0  0
    1.2426    1.5926   -0.8037 H   0  0  0  0  0  0  0  0  0  0  0  0
   -0.0666    0.9187   -1.7905 H   0  0  0  0  0  0  0  0  0  0  0  0
    0.9504   -0.0830    1.3907 C   0  0  0  0  0  0  0  0  0  0  0  0
    1.8547   -0.7997    1.8190 O   0  0  0  0  0  0  0  0  0  0  0  0
    0.3711    0.8675    2.1350 N   0  0  0  0  0  0  0  0  0  0  0  0
   -0.3670    1.4105    1.7163 H   0  0  0  0  0  0  0  0  0  0  0  0
    0.7445    1.1631    3.5175 C   0  0  0  0  0  0  0  0  0  0  0  0
    1.8134    1.3788    3.5722 H   0  0  0  0  0  0  0  0  0  0  0  0
    0.1853    2.0242    3.8862 H   0  0  0  0  0  0  0  0  0  0  0  0
    0.5330    0.2981    4.1485 H   0  0  0  0  0  0  0  0  0  0  0  0
  5  6  2  0  0  0  0
  5  7  1  0  0  0  0
  2  3  1  0  0  0  0
  2  4  1  0  0  0  0
  2  5  1  0  0  0  0
  1  2  1  0  0  0  0
 15 16  2  0  0  0  0
 15 17  1  0  0  0  0
 11 12  1  0  0  0  0
 11 13  1  0  0  0  0
 11 14  1  0  0  0  0
  9 10  1  0  0  0  0
  9 11  1  0  0  0  0
  9 15  1  0  0  0  0
  7  8  1  0  0  0  0
  7  9  1  0  0  0  0
 19 20  1  0  0  0  0
 19 21  1  0  0  0  0
 19 22  1  0  0  0  0
 17 18  1  0  0  0  0
 17 19  1  0  0  0  0
M  END
$$$$
default_name
  -OEChem-01062215323D

 22 21  0     1  0  0  0  0  0999 V2000
   -2.5423   -3.6749    0.8058 H   0  0  0  0  0  0  0  0  0  0  0  0
   -2.5063   -2.6779    0.3688 C   0  0  0  0  0  0  0  0  0  0  0  0
   -3.1603   -2.0109    0.9268 H   0  0  0  0  0  0  0  0  0  0  0  0
   -2.8193   -2.7229   -0.6722 H   0  0  0  0  0  0  0  0  0  0  0  0
   -1.0873   -2.1629    0.4418 C   0  0  0  0  0  0  0  0  0  0  0  0
   -0.2073   -2.8549    0.9368 O   0  0  0  0  0  0  0  0  0  0  0  0
   -0.8713   -0.9449   -0.0482 N   0  0  0  0  0  0  0  0  0  0  0  0
   -1.6543   -0.4189   -0.4062 H   0  0  0  0  0  0  0  0  0  0  0  0
    0.4237   -0.2649   -0.0462 C   0  0  1  0  0  0  0  0  0  0  0  0
    1.1438   -0.8761   -0.5927 H   0  0  0  0  0  0  0  0  0  0  0  0
    0.2800    1.0833   -0.7689 C   0  0  0  0  0  0  0  0  0  0  0  0
   -0.4397    1.7122   -0.2423 H   0  0  0  0  0  0  0  0  0  0  0  0
    1.2426    1.5926   -0.8037 H   0  0  0  0  0  0  0  0  0  0  0  0
   -0.0666    0.9187   -1.7905 H   0  0  0  0  0  0  0  0  0  0  0  0
    0.9504   -0.0830    1.3907 C   0  0  0  0  0  0  0  0  0  0  0  0
    2.0172   -0.5924    1.7332 O   0  0  0  0  0  0  0  0  0  0  0  0
    0.1913    0.6319    2.2308 N   0  0  0  0  0  0  0  0  0  0  0  0
   -0.6722    1.0131    1.8785 H   0  0  0  0  0  0  0  0  0  0  0  0
    0.5398    0.8911    3.6269 C   0  0  0  0  0  0  0  0  0  0  0  0
    1.5271    1.3543    3.6803 H   0  0  0  0  0  0  0  0  0  0  0  0
   -0.1939    1.5563    4.0844 H   0  0  0  0  0  0  0  0  0  0  0  0
    0.5683   -0.0496    4.1796 H   0  0  0  0  0  0  0  0  0  0  0  0
  5  6  2  0  0  0  0
  5  7  1  0  0  0  0
  2  3  1  0  0  0  0
  2  4  1  0  0  0  0
  2  5  1  0  0  0  0
  1  2  1  0  0  0  0
 15 16  2  0  0  0  0
 15 17  1  0  0  0  0
 11 12  1  0  0  0  0
 11 13  1  0  0  0  0
 11 14  1  0  0  0  0
  9 10  1  0  0  0  0
  9 11  1  0  0  0  0
  9 15  1  0  0  0  0
  7  8  1  0  0  0  0
  7  9  1  0  0  0  0
 19 20  1  0  0  0  0
 19 21  1  0  0  0  0
 19 22  1  0  0  0  0
 17 18  1  0  0  0  0
 17 19  1  0  0  0  0
M  END
$$$$
default_name
  -OEChem-01062215323D

 22 21  0     1  0  0  0  0  0999 V2000
   -2.5423   -3.6749    0.8058 H   0  0  0  0  0  0  0  0  0  0  0  0
   -2.5063   -2.6779    0.3688 C   0  0  0  0  0  0  0  0  0  0  0  0
   -3.1603   -2.0109    0.9268 H   0  0  0  0  0  0  0  0  0  0  0  0
   -2.8193   -2.7229   -0.6722 H   0  0  0  0  0  0  0  0  0  0  0  0
   -1.0873   -2.1629    0.4418 C   0  0  0  0  0  0  0  0  0  0  0  0
   -0.2073   -2.8549    0.9368 O   0  0  0  0  0  0  0  0  0  0  0  0
   -0.8713   -0.9449   -0.0482 N   0  0  0  0  0  0  0  0  0  0  0  0
   -1.6543   -0.4189   -0.4062 H   0  0  0  0  0  0  0  0  0  0  0  0
    0.4237   -0.2649   -0.0462 C   0  0  1  0  0  0  0  0  0  0  0  0
    1.1438   -0.8761   -0.5927 H   0  0  0  0  0  0  0  0  0  0  0  0
    0.2800    1.0833   -0.7689 C   0  0  0  0  0  0  0  0  0  0  0  0
   -0.4397    1.7122   -0.2423 H   0  0  0  0  0  0  0  0  0  0  0  0
    1.2426    1.5926   -0.8037 H   0  0  0  0  0  0  0  0  0  0  0  0
   -0.0666    0.9187   -1.7905 H   0  0  0  0  0  0  0  0  0  0  0  0
    0.9504   -0.0830    1.3907 C   0  0  0  0  0  0  0  0  0  0  0  0
    2.1215   -0.3455    1.6636 O   0  0  0  0  0  0  0  0  0  0  0  0
    0.0774    0.3525    2.3079 N   0  0  0  0  0  0  0  0  0  0  0  0
   -0.8661    0.5411    2.0094 H   0  0  0  0  0  0  0  0  0  0  0  0
    0.4111    0.5693    3.7149 C   0  0  0  0  0  0  0  0  0  0  0  0
    1.2597    1.2520    3.7913 H   0  0  0  0  0  0  0  0  0  0  0  0
   -0.4412    0.9954    4.2461 H   0  0  0  0  0  0  0  0  0  0  0  0
    0.6873   -0.3797    4.1778 H   0  0  0  0  0  0  0  0  0  0  0  0
  5  6  2  0  0  0  0
  5  7  1  0  0  0  0
  2  3  1  0  0  0  0
  2  4  1  0  0  0  0
  2  5  1  0  0  0  0
  1  2  1  0  0  0  0
 15 16  2  0  0  0  0
 15 17  1  0  0  0  0
 11 12  1  0  0  0  0
 11 13  1  0  0  0  0
 11 14  1  0  0  0  0
  9 10  1  0  0  0  0
  9 11  1  0  0  0  0
  9 15  1  0  0  0  0
  7  8  1  0  0  0  0
  7  9  1  0  0  0  0
 19 20  1  0  0  0  0
 19 21  1  0  0  0  0
 19 22  1  0  0  0  0
 17 18  1  0  0  0  0
 17 19  1  0  0  0  0
M  END
$$$$
default_name
  -OEChem-01062215323D

 22 21  0     1  0  0  0  0  0999 V2000
   -2.5423   -3.6749    0.8058 H   0  0  0  0  0  0  0  0  0  0  0  0
   -2.5063   -2.6779    0.3688 C   0  0  0  0  0  0  0  0  0  0  0  0
   -3.1603   -2.0109    0.9268 H   0  0  0  0  0  0  0  0  0  0  0  0
   -2.8193   -2.7229   -0.6722 H   0  0  0  0  0  0  0  0  0  0  0  0
   -1.0873   -2.1629    0.4418 C   0  0  0  0  0  0  0  0  0  0  0  0
   -0.2073   -2.8549    0.9368 O   0  0  0  0  0  0  0  0  0  0  0  0
   -0.8713   -0.9449   -0.0482 N   0  0  0  0  0  0  0  0  0  0  0  0
   -1.6543   -0.4189   -0.4062 H   0  0  0  0  0  0  0  0  0  0  0  0
    0.4237   -0.2649   -0.0462 C   0  0  1  0  0  0  0  0  0  0  0  0
    1.1438   -0.8761   -0.5927 H   0  0  0  0  0  0  0  0  0  0  0  0
    0.2800    1.0833   -0.7689 C   0  0  0  0  0  0  0  0  0  0  0  0
   -0.4397    1.7122   -0.2423 H   0  0  0  0  0  0  0  0  0  0  0  0
    1.2426    1.5926   -0.8037 H   0  0  0  0  0  0  0  0  0  0  0  0
   -0.0666    0.9187   -1.7905 H   0  0  0  0  0  0  0  0  0  0  0  0
    0.9504   -0.0830    1.3907 C   0  0  0  0  0  0  0  0  0  0  0  0
    2.1606   -0.0755    1.6152 O   0  0  0  0  0  0  0  0  0  0  0  0
    0.0372    0.0483    2.3612 N   0  0  0  0  0  0  0  0  0  0  0  0
   -0.9356    0.0269    2.0999 H   0  0  0  0  0  0  0  0  0  0  0  0
    0.3671    0.2196    3.7753 C   0  0  0  0  0  0  0  0  0  0  0  0
    1.0295    1.0788    3.8976 H   0  0  0  0  0  0  0  0  0  0  0  0
   -0.5398    0.3796    4.3602 H   0  0  0  0  0  0  0  0  0  0  0  0
    0.8818   -0.6696    4.1432 H   0  0  0  0  0  0  0  0  0  0  0  0
  5  6  2  0  0  0  0
  5  7  1  0  0  0  0
  2  3  1  0  0  0  0
  2  4  1  0  0  0  0
  2  5  1  0  0  0  0
  1  2  1  0  0  0  0
 15 16  2  0  0  0  0
 15 17  1  0  0  0  0
 11 12  1  0  0  0  0
 11 13  1  0  0  0  0
 11 14  1  0  0  0  0
  9 10  1  0  0  0  0
  9 11  1  0  0  0  0
  9 15  1  0  0  0  0
  7  8  1  0  0  0  0
  7  9  1  0  0  0  0
 19 20  1  0  0  0  0
 19 21  1  0  0  0  0
 19 22  1  0  0  0  0
 17 18  1  0  0  0  0
 17 19  1  0  0  0  0
M  END
$$$$
default_name
  -OEChem-01062215323D

 22 21  0     1  0  0  0  0  0999 V2000
   -2.5423   -3.6749    0.8058 H   0  0  0  0  0  0  0  0  0  0  0  0
   -2.5063   -2.6779    0.3688 C   0  0  0  0  0  0  0  0  0  0  0  0
   -3.1603   -2.0109    0.9268 H   0  0  0  0  0  0  0  0  0  0  0  0
   -2.8193   -2.7229   -0.6722 H   0  0  0  0  0  0  0  0  0  0  0  0
   -1.0873   -2.1629    0.4418 C   0  0  0  0  0  0  0  0  0  0  0  0
   -0.2073   -2.8549    0.9368 O   0  0  0  0  0  0  0  0  0  0  0  0
   -0.8713   -0.9449   -0.0482 N   0  0  0  0  0  0  0  0  0  0  0  0
   -1.6543   -0.4189   -0.4062 H   0  0  0  0  0  0  0  0  0  0  0  0
    0.4237   -0.2649   -0.0462 C   0  0  1  0  0  0  0  0  0  0  0  0
    1.1438   -0.8761   -0.5927 H   0  0  0  0  0  0  0  0  0  0  0  0
    0.2800    1.0833   -0.7689 C   0  0  0  0  0  0  0  0  0  0  0  0
   -0.4397    1.7122   -0.2423 H   0  0  0  0  0  0  0  0  0  0  0  0
    1.2426    1.5926   -0.8037 H   0  0  0  0  0  0  0  0  0  0  0  0
   -0.0666    0.9187   -1.7905 H   0  0  0  0  0  0  0  0  0  0  0  0
    0.9504   -0.0830    1.3907 C   0  0  0  0  0  0  0  0  0  0  0  0
    2.1317    0.1989    1.5910 O   0  0  0  0  0  0  0  0  0  0  0  0
    0.0734   -0.2599    2.3869 N   0  0  0  0  0  0  0  0  0  0  0  0
   -0.8758   -0.4946    2.1441 H   0  0  0  0  0  0  0  0  0  0  0  0
    0.4108   -0.1341    3.8041 C   0  0  0  0  0  0  0  0  0  0  0  0
    0.8522    0.8467    3.9920 H   0  0  0  0  0  0  0  0  0  0  0  0
   -0.4829   -0.2492    4.4190 H   0  0  0  0  0  0  0  0  0  0  0  0
    1.1386   -0.8997    4.0782 H   0  0  0  0  0  0  0  0  0  0  0  0
  5  6  2  0  0  0  0
  5  7  1  0  0  0  0
  2  3  1  0  0  0  0
  2  4  1  0  0  0  0
  2  5  1  0  0  0  0
  1  2  1  0  0  0  0
 15 16  2  0  0  0  0
 15 17  1  0  0  0  0
 11 12  1  0  0  0  0
 11 13  1  0  0  0  0
 11 14  1  0  0  0  0
  9 10  1  0  0  0  0
  9 11  1  0  0  0  0
  9 15  1  0  0  0  0
  7  8  1  0  0  0  0
  7  9  1  0  0  0  0
 19 20  1  0  0  0  0
 19 21  1  0  0  0  0
 19 22  1  0  0  0  0
 17 18  1  0  0  0  0
 17 19  1  0  0  0  0
M  END
$$$$
default_name
  -OEChem-01062215323D

 22 21  0     1  0  0  0  0  0999 V2000
   -2.5423   -3.6749    0.8058 H   0  0  0  0  0  0  0  0  0  0  0  0
   -2.5063   -2.6779    0.3688 C   0  0  0  0  0  0  0  0  0  0  0  0
   -3.1603   -2.0109    0.9268 H   0  0  0  0  0  0  0  0  0  0  0  0
   -2.8193   -2.7229   -0.6722 H   0  0  0  0  0  0  0  0  0  0  0  0
   -1.0873   -2.1629    0.4418 C   0  0  0  0  0  0  0  0  0  0  0  0
   -0.2073   -2.8549    0.9368 O   0  0  0  0  0  0  0  0  0  0  0  0
   -0.8713   -0.9449   -0.0482 N   0  0  0  0  0  0  0  0  0  0  0  0
   -1.6543   -0.4189   -0.4062 H   0  0  0  0  0  0  0  0  0  0  0  0
    0.4237   -0.2649   -0.0462 C   0  0  1  0  0  0  0  0  0  0  0  0
    1.1438   -0.8761   -0.5927 H   0  0  0  0  0  0  0  0  0  0  0  0
    0.2800    1.0833   -0.7689 C   0  0  0  0  0  0  0  0  0  0  0  0
   -0.4397    1.7122   -0.2423 H   0  0  0  0  0  0  0  0  0  0  0  0
    1.2426    1.5926   -0.8037 H   0  0  0  0  0  0  0  0  0  0  0  0
   -0.0666    0.9187   -1.7905 H   0  0  0  0  0  0  0  0  0  0  0  0
    0.9504   -0.0830    1.3907 C   0  0  0  0  0  0  0  0  0  0  0  0
    2.0368    0.4591    1.5928 O   0  0  0  0  0  0  0  0  0  0  0  0
    0.1835   -0.5512    2.3835 N   0  0  0  0  0  0  0  0  0  0  0  0
   -0.6909   -0.9877    2.1387 H   0  0  0  0  0  0  0  0  0  0  0  0
    0.5392   -0.4678    3.7992 C   0  0  0  0  0  0  0  0  0  0  0  0
    0.7398    0.5712    4.0680 H   0  0  0  0  0  0  0  0  0  0  0  0
   -0.2745   -0.8479    4.4184 H   0  0  0  0  0  0  0  0  0  0  0  0
    1.4402   -1.0543    3.9872 H   0  0  0  0  0  0  0  0  0  0  0  0
  5  6  2  0  0  0  0
  5  7  1  0  0  0  0
  2  3  1  0  0  0  0
  2  4  1  0  0  0  0
  2  5  1  0  0  0  0
  1  2  1  0  0  0  0
 15 16  2  0  0  0  0
 15 17  1  0  0  0  0
 11 12  1  0  0  0  0
 11 13  1  0  0  0  0
 11 14  1  0  0  0  0
  9 10  1  0  0  0  0
  9 11  1  0  0  0  0
  9 15  1  0  0  0  0
  7  8  1  0  0  0  0
  7  9  1  0  0  0  0
 19 20  1  0  0  0  0
 19 21  1  0  0  0  0
 19 22  1  0  0  0  0
 17 18  1  0  0  0  0
 17 19  1  0  0  0  0
M  END
$$$$
default_name
  -OEChem-01062215323D

 22 21  0     1  0  0  0  0  0999 V2000
   -2.5423   -3.6749    0.8058 H   0  0  0  0  0  0  0  0  0  0  0  0
   -2.5063   -2.6779    0.3688 C   0  0  0  0  0  0  0  0  0  0  0  0
   -3.1603   -2.0109    0.9268 H   0  0  0  0  0  0  0  0  0  0  0  0
   -2.8193   -2.7229   -0.6722 H   0  0  0  0  0  0  0  0  0  0  0  0
   -1.0873   -2.1629    0.4418 C   0  0  0  0  0  0  0  0  0  0  0  0
   -0.2073   -2.8549    0.9368 O   0  0  0  0  0  0  0  0  0  0  0  0
   -0.8713   -0.9449   -0.0482 N   0  0  0  0  0  0  0  0  0  0  0  0
   -1.6543   -0.4189   -0.4062 H   0  0  0  0  0  0  0  0  0  0  0  0
    0.4237   -0.2649   -0.0462 C   0  0  1  0  0  0  0  0  0  0  0  0
    1.1438   -0.8761   -0.5927 H   0  0  0  0  0  0  0  0  0  0  0  0
    0.2800    1.0833   -0.7689 C   0  0  0  0  0  0  0  0  0  0  0  0
   -0.4397    1.7122   -0.2423 H   0  0  0  0  0  0  0  0  0  0  0  0
    1.2426    1.5926   -0.8037 H   0  0  0  0  0  0  0  0  0  0  0  0
   -0.0666    0.9187   -1.7905 H   0  0  0  0  0  0  0  0  0  0  0  0
    0.9504   -0.0830    1.3907 C   0  0  0  0  0  0  0  0  0  0  0  0
    1.8824    0.6874    1.6205 O   0  0  0  0  0  0  0  0  0  0  0  0
    0.3600   -0.8057    2.3510 N   0  0  0  0  0  0  0  0  0  0  0  0
   -0.3934   -1.4190    2.0843 H   0  0  0  0  0  0  0  0  0  0  0  0
    0.7437   -0.7587    3.7611 C   0  0  0  0  0  0  0  0  0  0  0  0
    0.7001    0.2714    4.1206 H   0  0  0  0  0  0  0  0  0  0  0  0
    0.0713   -1.3760    4.3585 H   0  0  0  0  0  0  0  0  0  0  0  0
    1.7661   -1.1227    3.8764 H   0  0  0  0  0  0  0  0  0  0  0  0
  5  6  2  0  0  0  0
  5  7  1  0  0  0  0
  2  3  1  0  0  0  0
  2  4  1  0  0  0  0
  2  5  1  0  0  0  0
  1  2  1  0  0  0  0
 15 16  2  0  0  0  0
 15 17  1  0  0  0  0
 11 12  1  0  0  0  0
 11 13  1  0  0  0  0
 11 14  1  0  0  0  0
  9 10  1  0  0  0  0
  9 11  1  0  0  0  0
  9 15  1  0  0  0  0
  7  8  1  0  0  0  0
  7  9  1  0  0  0  0
 19 20  1  0  0  0  0
 19 21  1  0  0  0  0
 19 22  1  0  0  0  0
 17 18  1  0  0  0  0
 17 19  1  0  0  0  0
M  END
$$$$
default_name
  -OEChem-01062215323D

 22 21  0     1  0  0  0  0  0999 V2000
   -2.5423   -3.6749    0.8058 H   0  0  0  0  0  0  0  0  0  0  0  0
   -2.5063   -2.6779    0.3688 C   0  0  0  0  0  0  0  0  0  0  0  0
   -3.1603   -2.0109    0.9268 H   0  0  0  0  0  0  0  0  0  0  0  0
   -2.8193   -2.7229   -0.6722 H   0  0  0  0  0  0  0  0  0  0  0  0
   -1.0873   -2.1629    0.4418 C   0  0  0  0  0  0  0  0  0  0  0  0
   -0.2073   -2.8549    0.9368 O   0  0  0  0  0  0  0  0  0  0  0  0
   -0.8713   -0.9449   -0.0482 N   0  0  0  0  0  0  0  0  0  0  0  0
   -1.6543   -0.4189   -0.4062 H   0  0  0  0  0  0  0  0  0  0  0  0
    0.4237   -0.2649   -0.0462 C   0  0  1  0  0  0  0  0  0  0  0  0
    1.1438   -0.8761   -0.5927 H   0  0  0  0  0  0  0  0  0  0  0  0
    0.2800    1.0833   -0.7689 C   0  0  0  0  0  0  0  0  0  0  0  0
   -0.4397    1.7122   -0.2423 H   0  0  0  0  0  0  0  0  0  0  0  0
    1.2426    1.5926   -0.8037 H   0  0  0  0  0  0  0  0  0  0  0  0
   -0.0666    0.9187   -1.7905 H   0  0  0  0  0  0  0  0  0  0  0  0
    0.9504   -0.0830    1.3907 C   0  0  0  0  0  0  0  0  0  0  0  0
    1.6791    0.8682    1.6722 O   0  0  0  0  0  0  0  0  0  0  0  0
    0.5910   -1.0060    2.2917 N   0  0  0  0  0  0  0  0  0  0  0  0
   -0.0037   -1.7590    1.9845 H   0  0  0  0  0  0  0  0  0  0  0  0
    1.0102   -0.9869    3.6923 C   0  0  0  0  0  0  0  0  0  0  0  0
    0.7356   -0.0325    4.1460 H   0  0  0  0  0  0  0  0  0  0  0  0
    0.5309   -1.7973    4.2434 H   0  0  0  0  0  0  0  0  0  0  0  0
    2.0939   -1.1004    3.7534 H   0  0  0  0  0  0  0  0  0  0  0  0
  5  6  2  0  0  0  0
  5  7  1  0  0  0  0
  2  3  1  0  0  0  0
  2  4  1  0  0  0  0
  2  5  1  0  0  0  0
  1  2  1  0  0  0  0
 15 16  2  0  0  0  0
 15 17  1  0  0  0  0
 11 12  1  0  0  0  0
 11 13  1  0  0  0  0
 11 14  1  0  0  0  0
  9 10  1  0  0  0  0
  9 11  1  0  0  0  0
  9 15  1  0  0  0  0
  7  8  1  0  0  0  0
  7  9  1  0  0  0  0
 19 20  1  0  0  0  0
 19 21  1  0  0  0  0
 19 22  1  0  0  0  0
 17 18  1  0  0  0  0
 17 19  1  0  0  0  0
M  END
$$$$
default_name
  -OEChem-01062215323D

 22 21  0     1  0  0  0  0  0999 V2000
   -2.5423   -3.6749    0.8058 H   0  0  0  0  0  0  0  0  0  0  0  0
   -2.5063   -2.6779    0.3688 C   0  0  0  0  0  0  0  0  0  0  0  0
   -3.1603   -2.0109    0.9268 H   0  0  0  0  0  0  0  0  0  0  0  0
   -2.8193   -2.7229   -0.6722 H   0  0  0  0  0  0  0  0  0  0  0  0
   -1.0873   -2.1629    0.4418 C   0  0  0  0  0  0  0  0  0  0  0  0
   -0.2073   -2.8549    0.9368 O   0  0  0  0  0  0  0  0  0  0  0  0
   -0.8713   -0.9449   -0.0482 N   0  0  0  0  0  0  0  0  0  0  0  0
   -1.6543   -0.4189   -0.4062 H   0  0  0  0  0  0  0  0  0  0  0  0
    0.4237   -0.2649   -0.0462 C   0  0  1  0  0  0  0  0  0  0  0  0
    1.1438   -0.8761   -0.5927 H   0  0  0  0  0  0  0  0  0  0  0  0
    0.2800    1.0833   -0.7689 C   0  0  0  0  0  0  0  0  0  0  0  0
   -0.4397    1.7122   -0.2423 H   0  0  0  0  0  0  0  0  0  0  0  0
    1.2426    1.5926   -0.8037 H   0  0  0  0  0  0  0  0  0  0  0  0
   -0.0666    0.9187   -1.7905 H   0  0  0  0  0  0  0  0  0  0  0  0
    0.9504   -0.0830    1.3907 C   0  0  0  0  0  0  0  0  0  0  0  0
    1.4406    0.9892    1.7443 O   0  0  0  0  0  0  0  0  0  0  0  0
    0.8606   -1.1386    2.2096 N   0  0  0  0  0  0  0  0  0  0  0  0
    0.4518   -1.9846    1.8461 H   0  0  0  0  0  0  0  0  0  0  0  0
    1.3206   -1.1370    3.5975 C   0  0  0  0  0  0  0  0  0  0  0  0
    0.8441   -0.3197    4.1426 H   0  0  0  0  0  0  0  0  0  0  0  0
    1.0730   -2.0831    4.0809 H   0  0  0  0  0  0  0  0  0  0  0  0
    2.4015   -0.9888    3.6266 H   0  0  0  0  0  0  0  0  0  0  0  0
  5  6  2  0  0  0  0
  5  7  1  0  0  0  0
  2  3  1  0  0  0  0
  2  4  1  0  0  0  0
  2  5  1  0  0  0  0
  1  2  1  0  0  0  0
 15 16  2  0  0  0  0
 15 17  1  0  0  0  0
 11 12  1  0  0  0  0
 11 13  1  0  0  0  0
 11 14  1  0  0  0  0
  9 10  1  0  0  0  0
  9 11  1  0  0  0  0
  9 15  1  0  0  0  0
  7  8  1  0  0  0  0
  7  9  1  0  0  0  0
 19 20  1  0  0  0  0
 19 21  1  0  0  0  0
 19 22  1  0  0  0  0
 17 18  1  0  0  0  0
 17 19  1  0  0  0  0
M  END
$$$$
default_name
  -OEChem-01062215323D

 22 21  0     1  0  0  0  0  0999 V2000
   -2.5423   -3.6749    0.8058 H   0  0  0  0  0  0  0  0  0  0  0  0
   -2.5063   -2.6779    0.3688 C   0  0  0  0  0  0  0  0  0  0  0  0
   -3.1603   -2.0109    0.9268 H   0  0  0  0  0  0  0  0  0  0  0  0
   -2.8193   -2.7229   -0.6722 H   0  0  0  0  0  0  0  0  0  0  0  0
   -1.0873   -2.1629    0.4418 C   0  0  0  0  0  0  0  0  0  0  0  0
   -0.2073   -2.8549    0.9368 O   0  0  0  0  0  0  0  0  0  0  0  0
   -0.8713   -0.9449   -0.0482 N   0  0  0  0  0  0  0  0  0  0  0  0
   -1.6543   -0.4189   -0.4062 H   0  0  0  0  0  0  0  0  0  0  0  0
    0.4237   -0.2649   -0.0462 C   0  0  1  0  0  0  0  0  0  0  0  0
    1.1438   -0.8761   -0.5927 H   0  0  0  0  0  0  0  0  0  0  0  0
    0.2800    1.0833   -0.7689 C   0  0  0  0  0  0  0  0  0  0  0  0
   -0.4397    1.7122   -0.2423 H   0  0  0  0  0  0  0  0  0  0  0  0
    1.2426    1.5926   -0.8037 H   0  0  0  0  0  0  0  0  0  0  0  0
   -0.0666    0.9187   -1.7905 H   0  0  0  0  0  0  0  0  0  0  0  0
    0.9504   -0.0830    1.3907 C   0  0  0  0  0  0  0  0  0  0  0  0
    1.1832    1.0422    1.8319 O   0  0  0  0  0  0  0  0  0  0  0  0
    1.1504   -1.1943    2.1104 N   0  0  0  0  0  0  0  0  0  0  0  0
    0.9419   -2.0803    1.6786 H   0  0  0  0  0  0  0  0  0  0  0  0
    1.6538   -1.1987    3.4832 C   0  0  0  0  0  0  0  0  0  0  0  0
    1.0181   -0.5707    4.1106 H   0  0  0  0  0  0  0  0  0  0  0  0
    1.6606   -2.2140    3.8821 H   0  0  0  0  0  0  0  0  0  0  0  0
    2.6677   -0.7956    3.5045 H   0  0  0  0  0  0  0  0  0  0  0  0
  5  6  2  0  0  0  0
  5  7  1  0  0  0  0
  2  3  1  0  0  0  0
  2  4  1  0  0  0  0
  2  5  1  0  0  0  0
  1  2  1  0  0  0  0
 15 16  2  0  0  0  0
 15 17  1  0  0  0  0
 11 12  1  0  0  0  0
 11 13  1  0  0  0  0
 11 14  1  0  0  0  0
  9 10  1  0  0  0  0
  9 11  1  0  0  0  0
  9 15  1  0  0  0  0
  7  8  1  0  0  0  0
  7  9  1  0  0  0  0
 19 20  1  0  0  0  0
 19 21  1  0  0  0  0
 19 22  1  0  0  0  0
 17 18  1  0  0  0  0
 17 19  1  0  0  0  0
M  END
$$$$
default_name
  -OEChem-01062215323D

 22 21  0     1  0  0  0  0  0999 V2000
   -2.5423   -3.6749    0.8058 H   0  0  0  0  0  0  0  0  0  0  0  0
   -2.5063   -2.6779    0.3688 C   0  0  0  0  0  0  0  0  0  0  0  0
   -3.1603   -2.0109    0.9268 H   0  0  0  0  0  0  0  0  0  0  0  0
   -2.8193   -2.7229   -0.6722 H   0  0  0  0  0  0  0  0  0  0  0  0
   -1.0873   -2.1629    0.4418 C   0  0  0  0  0  0  0  0  0  0  0  0
   -0.2073   -2.8549    0.9368 O   0  0  0  0  0  0  0  0  0  0  0  0
   -0.8713   -0.9449   -0.0482 N   0  0  0  0  0  0  0  0  0  0  0  0
   -1.6543   -0.4189   -0.4062 H   0  0  0  0  0  0  0  0  0  0  0  0
    0.4237   -0.2649   -0.0462 C   0  0  1  0  0  0  0  0  0  0  0  0
    1.1438   -0.8761   -0.5927 H   0  0  0  0  0  0  0  0  0  0  0  0
    0.2800    1.0833   -0.7689 C   0  0  0  0  0  0  0  0  0  0  0  0
   -0.4397    1.7122   -0.2423 H   0  0  0  0  0  0  0  0  0  0  0  0
    1.2426    1.5926   -0.8037 H   0  0  0  0  0  0  0  0  0  0  0  0
   -0.0666    0.9187   -1.7905 H   0  0  0  0  0  0  0  0  0  0  0  0
    0.9504   -0.0830    1.3907 C   0  0  0  0  0  0  0  0  0  0  0  0
    0.9245    1.0235    1.9291 O   0  0  0  0  0  0  0  0  0  0  0  0
    1.4409   -1.1694    2.0008 N   0  0  0  0  0  0  0  0  0  0  0  0
    1.4333   -2.0396    1.4933 H   0  0  0  0  0  0  0  0  0  0  0  0
    1.9870   -1.1677    3.3572 C   0  0  0  0  0  0  0  0  0  0  0  0
    1.2457   -0.7683    4.0522 H   0  0  0  0  0  0  0  0  0  0  0  0
    2.2537   -2.1811    3.6605 H   0  0  0  0  0  0  0  0  0  0  0  0
    2.8746   -0.5339    3.3955 H   0  0  0  0  0  0  0  0  0  0  0  0
  5  6  2  0  0  0  0
  5  7  1  0  0  0  0
  2  3  1  0  0  0  0
  2  4  1  0  0  0  0
  2  5  1  0  0  0  0
  1  2  1  0  0  0  0
 15 16  2  0  0  0  0
 15 17  1  0  0  0  0
 11 12  1  0  0  0  0
 11 13  1  0  0  0  0
 11 14  1  0  0  0  0
  9 10  1  0  0  0  0
  9 11  1  0  0  0  0
  9 15  1  0  0  0  0
  7  8  1  0  0  0  0
  7  9  1  0  0  0  0
 19 20  1  0  0  0  0
 19 21  1  0  0  0  0
 19 22  1  0  0  0  0
 17 18  1  0  0  0  0
 17 19  1  0  0  0  0
M  END
$$$$
default_name
  -OEChem-01062215323D

 22 21  0     1  0  0  0  0  0999 V2000
   -2.5423   -3.6749    0.8058 H   0  0  0  0  0  0  0  0  0  0  0  0
   -2.5063   -2.6779    0.3688 C   0  0  0  0  0  0  0  0  0  0  0  0
   -3.1603   -2.0109    0.9268 H   0  0  0  0  0  0  0  0  0  0  0  0
   -2.8193   -2.7229   -0.6722 H   0  0  0  0  0  0  0  0  0  0  0  0
   -1.0873   -2.1629    0.4418 C   0  0  0  0  0  0  0  0  0  0  0  0
   -0.2073   -2.8549    0.9368 O   0  0  0  0  0  0  0  0  0  0  0  0
   -0.8713   -0.9449   -0.0482 N   0  0  0  0  0  0  0  0  0  0  0  0
   -1.6543   -0.4189   -0.4062 H   0  0  0  0  0  0  0  0  0  0  0  0
    0.4237   -0.2649   -0.0462 C   0  0  1  0  0  0  0  0  0  0  0  0
    1.1438   -0.8761   -0.5927 H   0  0  0  0  0  0  0  0  0  0  0  0
    0.2800    1.0833   -0.7689 C   0  0  0  0  0  0  0  0  0  0  0  0
   -0.4397    1.7122   -0.2423 H   0  0  0  0  0  0  0  0  0  0  0  0
    1.2426    1.5926   -0.8037 H   0  0  0  0  0  0  0  0  0  0  0  0
   -0.0666    0.9187   -1.7905 H   0  0  0  0  0  0  0  0  0  0  0  0
    0.9504   -0.0830    1.3907 C   0  0  0  0  0  0  0  0  0  0  0  0
    0.6821    0.9345    2.0292 O   0  0  0  0  0  0  0  0  0  0  0  0
    1.7120   -1.0655    1.8883 N   0  0  0  0  0  0  0  0  0  0  0  0
    1.8925   -1.8654    1.3029 H   0  0  0  0  0  0  0  0  0  0  0  0
    2.2975   -1.0463    3.2280 C   0  0  0  0  0  0  0  0  0  0  0  0
    1.5115   -0.8990    3.9713 H   0  0  0  0  0  0  0  0  0  0  0  0
    2.8119   -1.9866    3.4312 H   0  0  0  0  0  0  0  0  0  0  0  0
    3.0079   -0.2217    3.3071 H   0  0  0  0  0  0  0  0  0  0  0  0
  5  6  2  0  0  0  0
  5  7  1  0  0  0  0
  2  3  1  0  0  0  0
  2  4  1  0  0  0  0
  2  5  1  0  0  0  0
  1  2  1  0  0  0  0
 15 16  2  0  0  0  0
 15 17  1  0  0  0  0
 11 12  1  0  0  0  0
 11 13  1  0  0  0  0
 11 14  1  0  0  0  0
  9 10  1  0  0  0  0
  9 11  1  0  0  0  0
  9 15  1  0  0  0  0
  7  8  1  0  0  0  0
  7  9  1  0  0  0  0
 19 20  1  0  0  0  0
 19 21  1  0  0  0  0
 19 22  1  0  0  0  0
 17 18  1  0  0  0  0
 17 19  1  0  0  0  0
M  END
$$$$
default_name
  -OEChem-01062215323D

 22 21  0     1  0  0  0  0  0999 V2000
   -2.5423   -3.6749    0.8058 H   0  0  0  0  0  0  0  0  0  0  0  0
   -2.5063   -2.6779    0.3688 C   0  0  0  0  0  0  0  0  0  0  0  0
   -3.1603   -2.0109    0.9268 H   0  0  0  0  0  0  0  0  0  0  0  0
   -2.8193   -2.7229   -0.6722 H   0  0  0  0  0  0  0  0  0  0  0  0
   -1.0873   -2.1629    0.4418 C   0  0  0  0  0  0  0  0  0  0  0  0
   -0.2073   -2.8549    0.9368 O   0  0  0  0  0  0  0  0  0  0  0  0
   -0.8713   -0.9449   -0.0482 N   0  0  0  0  0  0  0  0  0  0  0  0
   -1.6543   -0.4189   -0.4062 H   0  0  0  0  0  0  0  0  0  0  0  0
    0.4237   -0.2649   -0.0462 C   0  0  1  0  0  0  0  0  0  0  0  0
    1.1438   -0.8761   -0.5927 H   0  0  0  0  0  0  0  0  0  0  0  0
    0.2800    1.0833   -0.7689 C   0  0  0  0  0  0  0  0  0  0  0  0
   -0.4397    1.7122   -0.2423 H   0  0  0  0  0  0  0  0  0  0  0  0
    1.2426    1.5926   -0.8037 H   0  0  0  0  0  0  0  0  0  0  0  0
   -0.0666    0.9187   -1.7905 H   0  0  0  0  0  0  0  0  0  0  0  0
    0.9504   -0.0830    1.3907 C   0  0  0  0  0  0  0  0  0  0  0  0
    0.4725    0.7811    2.1255 O   0  0  0  0  0  0  0  0  0  0  0  0
    1.9455   -0.8898    1.7805 N   0  0  0  0  0  0  0  0  0  0  0  0
    2.2881   -1.5694    1.1204 H   0  0  0  0  0  0  0  0  0  0  0  0
    2.5642   -0.8427    3.1044 C   0  0  0  0  0  0  0  0  0  0  0  0
    1.7973   -0.9540    3.8735 H   0  0  0  0  0  0  0  0  0  0  0  0
    3.2971   -1.6437    3.2099 H   0  0  0  0  0  0  0  0  0  0  0  0
    3.0586    0.1200    3.2453 H   0  0  0  0  0  0  0  0  0  0  0  0
  5  6  2  0  0  0  0
  5  7  1  0  0  0  0
  2  3  1  0  0  0  0
  2  4  1  0  0  0  0
  2  5  1  0  0  0  0
  1  2  1  0  0  0  0
 15 16  2  0  0  0  0
 15 17  1  0  0  0  0
 11 12  1  0  0  0  0
 11 13  1  0  0  0  0
 11 14  1  0  0  0  0
  9 10  1  0  0  0  0
  9 11  1  0  0  0  0
  9 15  1  0  0  0  0
  7  8  1  0  0  0  0
  7  9  1  0  0  0  0
 19 20  1  0  0  0  0
 19 21  1  0  0  0  0
 19 22  1  0  0  0  0
 17 18  1  0  0  0  0
 17 19  1  0  0  0  0
M  END
$$$$
default_name
  -OEChem-01062215323D

 22 21  0     1  0  0  0  0  0999 V2000
   -2.5423   -3.6749    0.8058 H   0  0  0  0  0  0  0  0  0  0  0  0
   -2.5063   -2.6779    0.3688 C   0  0  0  0  0  0  0  0  0  0  0  0
   -3.1603   -2.0109    0.9268 H   0  0  0  0  0  0  0  0  0  0  0  0
   -2.8193   -2.7229   -0.6722 H   0  0  0  0  0  0  0  0  0  0  0  0
   -1.0873   -2.1629    0.4418 C   0  0  0  0  0  0  0  0  0  0  0  0
   -0.2073   -2.8549    0.9368 O   0  0  0  0  0  0  0  0  0  0  0  0
   -0.8713   -0.9449   -0.0482 N   0  0  0  0  0  0  0  0  0  0  0  0
   -1.6543   -0.4189   -0.4062 H   0  0  0  0  0  0  0  0  0  0  0  0
    0.4237   -0.2649   -0.0462 C   0  0  1  0  0  0  0  0  0  0  0  0
    1.1438   -0.8761   -0.5927 H   0  0  0  0  0  0  0  0  0  0  0  0
    0.2800    1.0833   -0.7689 C   0  0  0  0  0  0  0  0  0  0  0  0
   -0.4397    1.7122   -0.2423 H   0  0  0  0  0  0  0  0  0  0  0  0
    1.2426    1.5926   -0.8037 H   0  0  0  0  0  0  0  0  0  0  0  0
   -0.0666    0.9187   -1.7905 H   0  0  0  0  0  0  0  0  0  0  0  0
    0.9504   -0.0830    1.3907 C   0  0  0  0  0  0  0  0  0  0  0  0
    0.3100    0.5738    2.2113 O   0  0  0  0  0  0  0  0  0  0  0  0
    2.1253   -0.6542    1.6847 N   0  0  0  0  0  0  0  0  0  0  0  0
    2.5934   -1.1720    0.9582 H   0  0  0  0  0  0  0  0  0  0  0  0
    2.7689   -0.5707    2.9949 C   0  0  0  0  0  0  0  0  0  0  0  0
    2.0836   -0.9296    3.7655 H   0  0  0  0  0  0  0  0  0  0  0  0
    3.6763   -1.1759    3.0117 H   0  0  0  0  0  0  0  0  0  0  0  0
    3.0233    0.4677    3.2142 H   0  0  0  0  0  0  0  0  0  0  0  0
  5  6  2  0  0  0  0
  5  7  1  0  0  0  0
  2  3  1  0  0  0  0
  2  4  1  0  0  0  0
  2  5  1  0  0  0  0
  1  2  1  0  0  0  0
 15 16  2  0  0  0  0
 15 17  1  0  0  0  0
 11 12  1  0  0  0  0
 11 13  1  0  0  0  0
 11 14  1  0  0  0  0
  9 10  1  0  0  0  0
  9 11  1  0  0  0  0
  9 15  1  0  0  0  0
  7  8  1  0  0  0  0
  7  9  1  0  0  0  0
 19 20  1  0  0  0  0
 19 21  1  0  0  0  0
 19 22  1  0  0  0  0
 17 18  1  0  0  0  0
 17 19  1  0  0  0  0
M  END
$$$$
default_name
  -OEChem-01062215323D

 22 21  0     1  0  0  0  0  0999 V2000
   -2.5423   -3.6749    0.8058 H   0  0  0  0  0  0  0  0  0  0  0  0
   -2.5063   -2.6779    0.3688 C   0  0  0  0  0  0  0  0  0  0  0  0
   -3.1603   -2.0109    0.9268 H   0  0  0  0  0  0  0  0  0  0  0  0
   -2.8193   -2.7229   -0.6722 H   0  0  0  0  0  0  0  0  0  0  0  0
   -1.0873   -2.1629    0.4418 C   0  0  0  0  0  0  0  0  0  0  0  0
   -0.2073   -2.8549    0.9368 O   0  0  0  0  0  0  0  0  0  0  0  0
   -0.8713   -0.9449   -0.0482 N   0  0  0  0  0  0  0  0  0  0  0  0
   -1.6543   -0.4189   -0.4062 H   0  0  0  0  0  0  0  0  0  0  0  0
    0.4237   -0.2649   -0.0462 C   0  0  1  0  0  0  0  0  0  0  0  0
    1.1438   -0.8761   -0.5927 H   0  0  0  0  0  0  0  0  0  0  0  0
    0.2800    1.0833   -0.7689 C   0  0  0  0  0  0  0  0  0  0  0  0
   -0.4397    1.7122   -0.2423 H   0  0  0  0  0  0  0  0  0  0  0  0
    1.2426    1.5926   -0.8037 H   0  0  0  0  0  0  0  0  0  0  0  0
   -0.0666    0.9187   -1.7905 H   0  0  0  0  0  0  0  0  0  0  0  0
    0.9504   -0.0830    1.3907 C   0  0  0  0  0  0  0  0  0  0  0  0
    0.2057    0.3268    2.2808 O   0  0  0  0  0  0  0  0  0  0  0  0
    2.2392   -0.3748    1.6076 N   0  0  0  0  0  0  0  0  0  0  0  0
    2.7873   -0.7000    0.8273 H   0  0  0  0  0  0  0  0  0  0  0  0
    2.8976   -0.2489    2.9070 C   0  0  0  0  0  0  0  0  0  0  0  0
    2.3510   -0.8273    3.6545 H   0  0  0  0  0  0  0  0  0  0  0  0
    3.9237   -0.6149    2.8500 H   0  0  0  0  0  0  0  0  0  0  0  0
    2.9043    0.7978    3.2160 H   0  0  0  0  0  0  0  0  0  0  0  0
  5  6  2  0  0  0  0
  5  7  1  0  0  0  0
  2  3  1  0  0  0  0
  2  4  1  0  0  0  0
  2  5  1  0  0  0  0
  1  2  1  0  0  0  0
 15 16  2  0  0  0  0
 15 17  1  0  0  0  0
 11 12  1  0  0  0  0
 11 13  1  0  0  0  0
 11 14  1  0  0  0  0
  9 10  1  0  0  0  0
  9 11  1  0  0  0  0
  9 15  1  0  0  0  0
  7  8  1  0  0  0  0
  7  9  1  0  0  0  0
 19 20  1  0  0  0  0
 19 21  1  0  0  0  0
 19 22  1  0  0  0  0
 17 18  1  0  0  0  0
 17 19  1  0  0  0  0
M  END
$$$$
default_name
  -OEChem-01062215323D

 22 21  0     1  0  0  0  0  0999 V2000
   -2.5423   -3.6749    0.8058 H   0  0  0  0  0  0  0  0  0  0  0  0
   -2.5063   -2.6779    0.3688 C   0  0  0  0  0  0  0  0  0  0  0  0
   -3.1603   -2.0109    0.9268 H   0  0  0  0  0  0  0  0  0  0  0  0
   -2.8193   -2.7229   -0.6722 H   0  0  0  0  0  0  0  0  0  0  0  0
   -1.0873   -2.1629    0.4418 C   0  0  0  0  0  0  0  0  0  0  0  0
   -0.2073   -2.8549    0.9368 O   0  0  0  0  0  0  0  0  0  0  0  0
   -0.8713   -0.9449   -0.0482 N   0  0  0  0  0  0  0  0  0  0  0  0
   -1.6543   -0.4189   -0.4062 H   0  0  0  0  0  0  0  0  0  0  0  0
    0.4237   -0.2649   -0.0462 C   0  0  1  0  0  0  0  0  0  0  0  0
    1.1438   -0.8761   -0.5927 H   0  0  0  0  0  0  0  0  0  0  0  0
    0.2800    1.0833   -0.7689 C   0  0  0  0  0  0  0  0  0  0  0  0
   -0.4397    1.7122   -0.2423 H   0  0  0  0  0  0  0  0  0  0  0  0
    1.2426    1.5926   -0.8037 H   0  0  0  0  0  0  0  0  0  0  0  0
   -0.0666    0.9187   -1.7905 H   0  0  0  0  0  0  0  0  0  0  0  0
    0.9504   -0.0830    1.3907 C   0  0  0  0  0  0  0  0  0  0  0  0
    0.1666    0.0569    2.3293 O   0  0  0  0  0  0  0  0  0  0  0  0
    2.2794   -0.0707    1.5543 N   0  0  0  0  0  0  0  0  0  0  0  0
    2.8567   -0.1858    0.7368 H   0  0  0  0  0  0  0  0  0  0  0  0
    2.9416    0.1008    2.8466 C   0  0  0  0  0  0  0  0  0  0  0  0
    2.5812   -0.6541    3.5482 H   0  0  0  0  0  0  0  0  0  0  0  0
    4.0223    0.0009    2.7359 H   0  0  0  0  0  0  0  0  0  0  0  0
    2.7098    1.0878    3.2506 H   0  0  0  0  0  0  0  0  0  0  0  0
  5  6  2  0  0  0  0
  5  7  1  0  0  0  0
  2  3  1  0  0  0  0
  2  4  1  0  0  0  0
  2  5  1  0  0  0  0
  1  2  1  0  0  0  0
 15 16  2  0  0  0  0
 15 17  1  0  0  0  0
 11 12  1  0  0  0  0
 11 13  1  0  0  0  0
 11 14  1  0  0  0  0
  9 10  1  0  0  0  0
  9 11  1  0  0  0  0
  9 15  1  0  0  0  0
  7  8  1  0  0  0  0
  7  9  1  0  0  0  0
 19 20  1  0  0  0  0
 19 21  1  0  0  0  0
 19 22  1  0  0  0  0
 17 18  1  0  0  0  0
 17 19  1  0  0  0  0
M  END
$$$$
default_name
  -OEChem-01062215323D

 22 21  0     1  0  0  0  0  0999 V2000
   -2.5423   -3.6749    0.8058 H   0  0  0  0  0  0  0  0  0  0  0  0
   -2.5063   -2.6779    0.3688 C   0  0  0  0  0  0  0  0  0  0  0  0
   -3.1603   -2.0109    0.9268 H   0  0  0  0  0  0  0  0  0  0  0  0
   -2.8193   -2.7229   -0.6722 H   0  0  0  0  0  0  0  0  0  0  0  0
   -1.0873   -2.1629    0.4418 C   0  0  0  0  0  0  0  0  0  0  0  0
   -0.2073   -2.8549    0.9368 O   0  0  0  0  0  0  0  0  0  0  0  0
   -0.8713   -0.9449   -0.0482 N   0  0  0  0  0  0  0  0  0  0  0  0
   -1.6543   -0.4189   -0.4062 H   0  0  0  0  0  0  0  0  0  0  0  0
    0.4237   -0.2649   -0.0462 C   0  0  1  0  0  0  0  0  0  0  0  0
    1.1438   -0.8761   -0.5927 H   0  0  0  0  0  0  0  0  0  0  0  0
    0.2800    1.0833   -0.7689 C   0  0  0  0  0  0  0  0  0  0  0  0
   -0.4397    1.7122   -0.2423 H   0  0  0  0  0  0  0  0  0  0  0  0
    1.2426    1.5926   -0.8037 H   0  0  0  0  0  0  0  0  0  0  0  0
   -0.0666    0.9187   -1.7905 H   0  0  0  0  0  0  0  0  0  0  0  0
    0.9504   -0.0830    1.3907 C   0  0  0  0  0  0  0  0  0  0  0  0
    0.1955   -0.2175    2.3534 O   0  0  0  0  0  0  0  0  0  0  0  0
    2.2432    0.2376    1.5286 N   0  0  0  0  0  0  0  0  0  0  0  0
    2.7970    0.3357    0.6926 H   0  0  0  0  0  0  0  0  0  0  0  0
    2.8979    0.4545    2.8178 C   0  0  0  0  0  0  0  0  0  0  0  0
    2.7585   -0.4219    3.4538 H   0  0  0  0  0  0  0  0  0  0  0  0
    3.9654    0.6296    2.6771 H   0  0  0  0  0  0  0  0  0  0  0  0
    2.4530    1.3179    3.3156 H   0  0  0  0  0  0  0  0  0  0  0  0
  5  6  2  0  0  0  0
  5  7  1  0  0  0  0
  2  3  1  0  0  0  0
  2  4  1  0  0  0  0
  2  5  1  0  0  0  0
  1  2  1  0  0  0  0
 15 16  2  0  0  0  0
 15 17  1  0  0  0  0
 11 12  1  0  0  0  0
 11 13  1  0  0  0  0
 11 14  1  0  0  0  0
  9 10  1  0  0  0  0
  9 11  1  0  0  0  0
  9 15  1  0  0  0  0
  7  8  1  0  0  0  0
  7  9  1  0  0  0  0
 19 20  1  0  0  0  0
 19 21  1  0  0  0  0
 19 22  1  0  0  0  0
 17 18  1  0  0  0  0
 17 19  1  0  0  0  0
M  END
$$$$
default_name
  -OEChem-01062215323D

 22 21  0     1  0  0  0  0  0999 V2000
   -2.5423   -3.6749    0.8058 H   0  0  0  0  0  0  0  0  0  0  0  0
   -2.5063   -2.6779    0.3688 C   0  0  0  0  0  0  0  0  0  0  0  0
   -3.1603   -2.0109    0.9268 H   0  0  0  0  0  0  0  0  0  0  0  0
   -2.8193   -2.7229   -0.6722 H   0  0  0  0  0  0  0  0  0  0  0  0
   -1.0873   -2.1629    0.4418 C   0  0  0  0  0  0  0  0  0  0  0  0
   -0.2073   -2.8549    0.9368 O   0  0  0  0  0  0  0  0  0  0  0  0
   -0.8713   -0.9449   -0.0482 N   0  0  0  0  0  0  0  0  0  0  0  0
   -1.6543   -0.4189   -0.4062 H   0  0  0  0  0  0  0  0  0  0  0  0
    0.4237   -0.2649   -0.0462 C   0  0  1  0  0  0  0  0  0  0  0  0
    1.0644   -0.7242   -0.8008 H   0  0  0  0  0  0  0  0  0  0  0  0
    0.2125    1.2108   -0.4180 C   0  0  0  0  0  0  0  0  0  0  0  0
   -0.4299    1.6919    0.3213 H   0  0  0  0  0  0  0  0  0  0  0  0
    1.1707    1.7283   -0.4507 H   0  0  0  0  0  0  0  0  0  0  0  0
   -0.2568    1.2797   -1.4008 H   0  0  0  0  0  0  0  0  0  0  0  0
    1.1220   -0.4095    1.3201 C   0  0  0  0  0  0  0  0  0  0  0  0
    0.5771   -1.0234    2.2372 O   0  0  0  0  0  0  0  0  0  0  0  0
    2.3214    0.1706    1.4545 N   0  0  0  0  0  0  0  0  0  0  0  0
    2.7005    0.6606    0.6601 H   0  0  0  0  0  0  0  0  0  0  0  0
    3.1119    0.1365    2.6841 C   0  0  0  0  0  0  0  0  0  0  0  0
    3.2666   -0.8990    2.9939 H   0  0  0  0  0  0  0  0  0  0  0  0
    4.0807    0.6123    2.5262 H   0  0  0  0  0  0  0  0  0  0  0  0
    2.5780    0.6597    3.4793 H   0  0  0  0  0  0  0  0  0  0  0  0
  5  6  2  0  0  0  0
  5  7  1  0  0  0  0
  2  3  1  0  0  0  0
  2  4  1  0  0  0  0
  2  5  1  0  0  0  0
  1  2  1  0  0  0  0
 15 16  2  0  0  0  0
 15 17  1  0  0  0  0
 11 12  1  0  0  0  0
 11 13  1  0  0  0  0
 11 14  1  0  0  0  0
  9 10  1  0  0  0  0
  9 11  1  0  0  0  0
  9 15  1  0  0  0  0
  7  8  1  0  0  0  0
  7  9  1  0  0  0  0
 19 20  1  0  0  0  0
 19 21  1  0  0  0  0
 19 22  1  0  0  0  0
 17 18  1  0  0  0  0
 17 19  1  0  0  0  0
M  END
$$$$
default_name
  -OEChem-01062215323D

 22 21  0     1  0  0  0  0  0999 V2000
   -2.5423   -3.6749    0.8058 H   0  0  0  0  0  0  0  0  0  0  0  0
   -2.5063   -2.6779    0.3688 C   0  0  0  0  0  0  0  0  0  0  0  0
   -3.1603   -2.0109    0.9268 H   0  0  0  0  0  0  0  0  0  0  0  0
   -2.8193   -2.7229   -0.6722 H   0  0  0  0  0  0  0  0  0  0  0  0
   -1.0873   -2.1629    0.4418 C   0  0  0  0  0  0  0  0  0  0  0  0
   -0.2073   -2.8549    0.9368 O   0  0  0  0  0  0  0  0  0  0  0  0
   -0.8713   -0.9449   -0.0482 N   0  0  0  0  0  0  0  0  0  0  0  0
   -1.6543   -0.4189   -0.4062 H   0  0  0  0  0  0  0  0  0  0  0  0
    0.4237   -0.2649   -0.0462 C   0  0  1  0  0  0  0  0  0  0  0  0
    1.0644   -0.7242   -0.8008 H   0  0  0  0  0  0  0  0  0  0  0  0
    0.2125    1.2108   -0.4180 C   0  0  0  0  0  0  0  0  0  0  0  0
   -0.4299    1.6919    0.3213 H   0  0  0  0  0  0  0  0  0  0  0  0
    1.1707    1.7283   -0.4507 H   0  0  0  0  0  0  0  0  0  0  0  0
   -0.2568    1.2797   -1.4008 H   0  0  0  0  0  0  0  0  0  0  0  0
    1.1220   -0.4095    1.3201 C   0  0  0  0  0  0  0  0  0  0  0  0
    0.7239   -1.2370    2.1395 O   0  0  0  0  0  0  0  0  0  0  0  0
    2.1535    0.4083    1.5655 N   0  0  0  0  0  0  0  0  0  0  0  0
    2.4176    1.0636    0.8472 H   0  0  0  0  0  0  0  0  0  0  0  0
    2.9175    0.4079    2.8122 C   0  0  0  0  0  0  0  0  0  0  0  0
    3.3038   -0.5945    3.0071 H   0  0  0  0  0  0  0  0  0  0  0  0
    3.7519    1.1075    2.7466 H   0  0  0  0  0  0  0  0  0  0  0  0
    2.2688    0.6962    3.6411 H   0  0  0  0  0  0  0  0  0  0  0  0
  5  6  2  0  0  0  0
  5  7  1  0  0  0  0
  2  3  1  0  0  0  0
  2  4  1  0  0  0  0
  2  5  1  0  0  0  0
  1  2  1  0  0  0  0
 15 16  2  0  0  0  0
 15 17  1  0  0  0  0
 11 12  1  0  0  0  0
 11 13  1  0  0  0  0
 11 14  1  0  0  0  0
  9 10  1  0  0  0  0
  9 11  1  0  0  0  0
  9 15  1  0  0  0  0
  7  8  1  0  0  0  0
  7  9  1  0  0  0  0
 19 20  1  0  0  0  0
 19 21  1  0  0  0  0
 19 22  1  0  0  0  0
 17 18  1  0  0  0  0
 17 19  1  0  0  0  0
M  END
$$$$
default_name
  -OEChem-01062215323D

 22 21  0     1  0  0  0  0  0999 V2000
   -2.5423   -3.6749    0.8058 H   0  0  0  0  0  0  0  0  0  0  0  0
   -2.5063   -2.6779    0.3688 C   0  0  0  0  0  0  0  0  0  0  0  0
   -3.1603   -2.0109    0.9268 H   0  0  0  0  0  0  0  0  0  0  0  0
   -2.8193   -2.7229   -0.6722 H   0  0  0  0  0  0  0  0  0  0  0  0
   -1.0873   -2.1629    0.4418 C   0  0  0  0  0  0  0  0  0  0  0  0
   -0.2073   -2.8549    0.9368 O   0  0  0  0  0  0  0  0  0  0  0  0
   -0.8713   -0.9449   -0.0482 N   0  0  0  0  0  0  0  0  0  0  0  0
   -1.6543   -0.4189   -0.4062 H   0  0  0  0  0  0  0  0  0  0  0  0
    0.4237   -0.2649   -0.0462 C   0  0  1  0  0  0  0  0  0  0  0  0
    1.0644   -0.7242   -0.8008 H   0  0  0  0  0  0  0  0  0  0  0  0
    0.2125    1.2108   -0.4180 C   0  0  0  0  0  0  0  0  0  0  0  0
   -0.4299    1.6919    0.3213 H   0  0  0  0  0  0  0  0  0  0  0  0
    1.1707    1.7283   -0.4507 H   0  0  0  0  0  0  0  0  0  0  0  0
   -0.2568    1.2797   -1.4008 H   0  0  0  0  0  0  0  0  0  0  0  0
    1.1220   -0.4095    1.3201 C   0  0  0  0  0  0  0  0  0  0  0  0
    0.9171   -1.3983    2.0238 O   0  0  0  0  0  0  0  0  0  0  0  0
    1.9341    0.5864    1.6964 N   0  0  0  0  0  0  0  0  0  0  0  0
    2.0474    1.3660    1.0684 H   0  0  0  0  0  0  0  0  0  0  0  0
    2.6643    0.6104    2.9630 C   0  0  0  0  0  0  0  0  0  0  0  0
    3.2696   -0.2934    3.0564 H   0  0  0  0  0  0  0  0  0  0  0  0
    3.3153    1.4846    3.0097 H   0  0  0  0  0  0  0  0  0  0  0  0
    1.9579    0.6416    3.7943 H   0  0  0  0  0  0  0  0  0  0  0  0
  5  6  2  0  0  0  0
  5  7  1  0  0  0  0
  2  3  1  0  0  0  0
  2  4  1  0  0  0  0
  2  5  1  0  0  0  0
  1  2  1  0  0  0  0
 15 16  2  0  0  0  0
 15 17  1  0  0  0  0
 11 12  1  0  0  0  0
 11 13  1  0  0  0  0
 11 14  1  0  0  0  0
  9 10  1  0  0  0  0
  9 11  1  0  0  0  0
  9 15  1  0  0  0  0
  7  8  1  0  0  0  0
  7  9  1  0  0  0  0
 19 20  1  0  0  0  0
 19 21  1  0  0  0  0
 19 22  1  0  0  0  0
 17 18  1  0  0  0  0
 17 19  1  0  0  0  0
M  END
$$$$
default_name
  -OEChem-01062215323D

 22 21  0     1  0  0  0  0  0999 V2000
   -2.5423   -3.6749    0.8058 H   0  0  0  0  0  0  0  0  0  0  0  0
   -2.5063   -2.6779    0.3688 C   0  0  0  0  0  0  0  0  0  0  0  0
   -3.1603   -2.0109    0.9268 H   0  0  0  0  0  0  0  0  0  0  0  0
   -2.8193   -2.7229   -0.6722 H   0  0  0  0  0  0  0  0  0  0  0  0
   -1.0873   -2.1629    0.4418 C   0  0  0  0  0  0  0  0  0  0  0  0
   -0.2073   -2.8549    0.9368 O   0  0  0  0  0  0  0  0  0  0  0  0
   -0.8713   -0.9449   -0.0482 N   0  0  0  0  0  0  0  0  0  0  0  0
   -1.6543   -0.4189   -0.4062 H   0  0  0  0  0  0  0  0  0  0  0  0
    0.4237   -0.2649   -0.0462 C   0  0  1  0  0  0  0  0  0  0  0  0
    1.0644   -0.7242   -0.8008 H   0  0  0  0  0  0  0  0  0  0  0  0
    0.2125    1.2108   -0.4180 C   0  0  0  0  0  0  0  0  0  0  0  0
   -0.4299    1.6919    0.3213 H   0  0  0  0  0  0  0  0  0  0  0  0
    1.1707    1.7283   -0.4507 H   0  0  0  0  0  0  0  0  0  0  0  0
   -0.2568    1.2797   -1.4008 H   0  0  0  0  0  0  0  0  0  0  0  0
    1.1220   -0.4095    1.3201 C   0  0  0  0  0  0  0  0  0  0  0  0
    1.1435   -1.4961    1.8977 O   0  0  0  0  0  0  0  0  0  0  0  0
    1.6782    0.6928    1.8385 N   0  0  0  0  0  0  0  0  0  0  0  0
    1.6151    1.5473    1.3086 H   0  0  0  0  0  0  0  0  0  0  0  0
    2.3697    0.7303    3.1263 C   0  0  0  0  0  0  0  0  0  0  0  0
    3.1663   -0.0162    3.1385 H   0  0  0  0  0  0  0  0  0  0  0  0
    2.8007    1.7178    3.2973 H   0  0  0  0  0  0  0  0  0  0  0  0
    1.6663    0.4995    3.9282 H   0  0  0  0  0  0  0  0  0  0  0  0
  5  6  2  0  0  0  0
  5  7  1  0  0  0  0
  2  3  1  0  0  0  0
  2  4  1  0  0  0  0
  2  5  1  0  0  0  0
  1  2  1  0  0  0  0
 15 16  2  0  0  0  0
 15 17  1  0  0  0  0
 11 12  1  0  0  0  0
 11 13  1  0  0  0  0
 11 14  1  0  0  0  0
  9 10  1  0  0  0  0
  9 11  1  0  0  0  0
  9 15  1  0  0  0  0
  7  8  1  0  0  0  0
  7  9  1  0  0  0  0
 19 20  1  0  0  0  0
 19 21  1  0  0  0  0
 19 22  1  0  0  0  0
 17 18  1  0  0  0  0
 17 19  1  0  0  0  0
M  END
$$$$
default_name
  -OEChem-01062215323D

 22 21  0     1  0  0  0  0  0999 V2000
   -2.5423   -3.6749    0.8058 H   0  0  0  0  0  0  0  0  0  0  0  0
   -2.5063   -2.6779    0.3688 C   0  0  0  0  0  0  0  0  0  0  0  0
   -3.1603   -2.0109    0.9268 H   0  0  0  0  0  0  0  0  0  0  0  0
   -2.8193   -2.7229   -0.6722 H   0  0  0  0  0  0  0  0  0  0  0  0
   -1.0873   -2.1629    0.4418 C   0  0  0  0  0  0  0  0  0  0  0  0
   -0.2073   -2.8549    0.9368 O   0  0  0  0  0  0  0  0  0  0  0  0
   -0.8713   -0.9449   -0.0482 N   0  0  0  0  0  0  0  0  0  0  0  0
   -1.6543   -0.4189   -0.4062 H   0  0  0  0  0  0  0  0  0  0  0  0
    0.4237   -0.2649   -0.0462 C   0  0  1  0  0  0  0  0  0  0  0  0
    1.0644   -0.7242   -0.8008 H   0  0  0  0  0  0  0  0  0  0  0  0
    0.2125    1.2108   -0.4180 C   0  0  0  0  0  0  0  0  0  0  0  0
   -0.4299    1.6919    0.3213 H   0  0  0  0  0  0  0  0  0  0  0  0
    1.1707    1.7283   -0.4507 H   0  0  0  0  0  0  0  0  0  0  0  0
   -0.2568    1.2797   -1.4008 H   0  0  0  0  0  0  0  0  0  0  0  0
    1.1220   -0.4095    1.3201 C   0  0  0  0  0  0  0  0  0  0  0  0
    1.3877   -1.5239    1.7699 O   0  0  0  0  0  0  0  0  0  0  0  0
    1.4032    0.7201    1.9820 N   0  0  0  0  0  0  0  0  0  0  0  0
    1.1500    1.5950    1.5513 H   0  0  0  0  0  0  0  0  0  0  0  0
    2.0536    0.7594    3.2909 C   0  0  0  0  0  0  0  0  0  0  0  0
    3.0008    0.2182    3.2479 H   0  0  0  0  0  0  0  0  0  0  0  0
    2.2431    1.7912    3.5901 H   0  0  0  0  0  0  0  0  0  0  0  0
    1.4141    0.2797    4.0339 H   0  0  0  0  0  0  0  0  0  0  0  0
  5  6  2  0  0  0  0
  5  7  1  0  0  0  0
  2  3  1  0  0  0  0
  2  4  1  0  0  0  0
  2  5  1  0  0  0  0
  1  2  1  0  0  0  0
 15 16  2  0  0  0  0
 15 17  1  0  0  0  0
 11 12  1  0  0  0  0
 11 13  1  0  0  0  0
 11 14  1  0  0  0  0
  9 10  1  0  0  0  0
  9 11  1  0  0  0  0
  9 15  1  0  0  0  0
  7  8  1  0  0  0  0
  7  9  1  0  0  0  0
 19 20  1  0  0  0  0
 19 21  1  0  0  0  0
 19 22  1  0  0  0  0
 17 18  1  0  0  0  0
 17 19  1  0  0  0  0
M  END
$$$$
default_name
  -OEChem-01062215323D

 22 21  0     1  0  0  0  0  0999 V2000
   -2.5423   -3.6749    0.8058 H   0  0  0  0  0  0  0  0  0  0  0  0
   -2.5063   -2.6779    0.3688 C   0  0  0  0  0  0  0  0  0  0  0  0
   -3.1603   -2.0109    0.9268 H   0  0  0  0  0  0  0  0  0  0  0  0
   -2.8193   -2.7229   -0.6722 H   0  0  0  0  0  0  0  0  0  0  0  0
   -1.0873   -2.1629    0.4418 C   0  0  0  0  0  0  0  0  0  0  0  0
   -0.2073   -2.8549    0.9368 O   0  0  0  0  0  0  0  0  0  0  0  0
   -0.8713   -0.9449   -0.0482 N   0  0  0  0  0  0  0  0  0  0  0  0
   -1.6543   -0.4189   -0.4062 H   0  0  0  0  0  0  0  0  0  0  0  0
    0.4237   -0.2649   -0.0462 C   0  0  1  0  0  0  0  0  0  0  0  0
    1.0644   -0.7242   -0.8008 H   0  0  0  0  0  0  0  0  0  0  0  0
    0.2125    1.2108   -0.4180 C   0  0  0  0  0  0  0  0  0  0  0  0
   -0.4299    1.6919    0.3213 H   0  0  0  0  0  0  0  0  0  0  0  0
    1.1707    1.7283   -0.4507 H   0  0  0  0  0  0  0  0  0  0  0  0
   -0.2568    1.2797   -1.4008 H   0  0  0  0  0  0  0  0  0  0  0  0
    1.1220   -0.4095    1.3201 C   0  0  0  0  0  0  0  0  0  0  0  0
    1.6330   -1.4797    1.6492 O   0  0  0  0  0  0  0  0  0  0  0  0
    1.1277    0.6665    2.1171 N   0  0  0  0  0  0  0  0  0  0  0  0
    0.6840    1.5059    1.7801 H   0  0  0  0  0  0  0  0  0  0  0  0
    1.7376    0.6956    3.4456 C   0  0  0  0  0  0  0  0  0  0  0  0
    2.7846    0.3938    3.3770 H   0  0  0  0  0  0  0  0  0  0  0  0
    1.6806    1.6999    3.8679 H   0  0  0  0  0  0  0  0  0  0  0  0
    1.2183   -0.0029    4.1041 H   0  0  0  0  0  0  0  0  0  0  0  0
  5  6  2  0  0  0  0
  5  7  1  0  0  0  0
  2  3  1  0  0  0  0
  2  4  1  0  0  0  0
  2  5  1  0  0  0  0
  1  2  1  0  0  0  0
 15 16  2  0  0  0  0
 15 17  1  0  0  0  0
 11 12  1  0  0  0  0
 11 13  1  0  0  0  0
 11 14  1  0  0  0  0
  9 10  1  0  0  0  0
  9 11  1  0  0  0  0
  9 15  1  0  0  0  0
  7  8  1  0  0  0  0
  7  9  1  0  0  0  0
 19 20  1  0  0  0  0
 19 21  1  0  0  0  0
 19 22  1  0  0  0  0
 17 18  1  0  0  0  0
 17 19  1  0  0  0  0
M  END
$$$$
default_name
  -OEChem-01062215323D

 22 21  0     1  0  0  0  0  0999 V2000
   -2.5423   -3.6749    0.8058 H   0  0  0  0  0  0  0  0  0  0  0  0
   -2.5063   -2.6779    0.3688 C   0  0  0  0  0  0  0  0  0  0  0  0
   -3.1603   -2.0109    0.9268 H   0  0  0  0  0  0  0  0  0  0  0  0
   -2.8193   -2.7229   -0.6722 H   0  0  0  0  0  0  0  0  0  0  0  0
   -1.0873   -2.1629    0.4418 C   0  0  0  0  0  0  0  0  0  0  0  0
   -0.2073   -2.8549    0.9368 O   0  0  0  0  0  0  0  0  0  0  0  0
   -0.8713   -0.9449   -0.0482 N   0  0  0  0  0  0  0  0  0  0  0  0
   -1.6543   -0.4189   -0.4062 H   0  0  0  0  0  0  0  0  0  0  0  0
    0.4237   -0.2649   -0.0462 C   0  0  1  0  0  0  0  0  0  0  0  0
    1.0644   -0.7242   -0.8008 H   0  0  0  0  0  0  0  0  0  0  0  0
    0.2125    1.2108   -0.4180 C   0  0  0  0  0  0  0  0  0  0  0  0
   -0.4299    1.6919    0.3213 H   0  0  0  0  0  0  0  0  0  0  0  0
    1.1707    1.7283   -0.4507 H   0  0  0  0  0  0  0  0  0  0  0  0
   -0.2568    1.2797   -1.4008 H   0  0  0  0  0  0  0  0  0  0  0  0
    1.1220   -0.4095    1.3201 C   0  0  0  0  0  0  0  0  0  0  0  0
    1.8628   -1.3666    1.5438 O   0  0  0  0  0  0  0  0  0  0  0  0
    0.8707    0.5358    2.2346 N   0  0  0  0  0  0  0  0  0  0  0  0
    0.2487    1.2861    1.9793 H   0  0  0  0  0  0  0  0  0  0  0  0
    1.4432    0.5433    3.5800 C   0  0  0  0  0  0  0  0  0  0  0  0
    2.5323    0.4987    3.5170 H   0  0  0  0  0  0  0  0  0  0  0  0
    1.1514    1.4500    4.1119 H   0  0  0  0  0  0  0  0  0  0  0  0
    1.0923   -0.3290    4.1339 H   0  0  0  0  0  0  0  0  0  0  0  0
  5  6  2  0  0  0  0
  5  7  1  0  0  0  0
  2  3  1  0  0  0  0
  2  4  1  0  0  0  0
  2  5  1  0  0  0  0
  1  2  1  0  0  0  0
 15 16  2  0  0  0  0
 15 17  1  0  0  0  0
 11 12  1  0  0  0  0
 11 13  1  0  0  0  0
 11 14  1  0  0  0  0
  9 10  1  0  0  0  0
  9 11  1  0  0  0  0
  9 15  1  0  0  0  0
  7  8  1  0  0  0  0
  7  9  1  0  0  0  0
 19 20  1  0  0  0  0
 19 21  1  0  0  0  0
 19 22  1  0  0  0  0
 17 18  1  0  0  0  0
 17 19  1  0  0  0  0
M  END
$$$$
default_name
  -OEChem-01062215323D

 22 21  0     1  0  0  0  0  0999 V2000
   -2.5423   -3.6749    0.8058 H   0  0  0  0  0  0  0  0  0  0  0  0
   -2.5063   -2.6779    0.3688 C   0  0  0  0  0  0  0  0  0  0  0  0
   -3.1603   -2.0109    0.9268 H   0  0  0  0  0  0  0  0  0  0  0  0
   -2.8193   -2.7229   -0.6722 H   0  0  0  0  0  0  0  0  0  0  0  0
   -1.0873   -2.1629    0.4418 C   0  0  0  0  0  0  0  0  0  0  0  0
   -0.2073   -2.8549    0.9368 O   0  0  0  0  0  0  0  0  0  0  0  0
   -0.8713   -0.9449   -0.0482 N   0  0  0  0  0  0  0  0  0  0  0  0
   -1.6543   -0.4189   -0.4062 H   0  0  0  0  0  0  0  0  0  0  0  0
    0.4237   -0.2649   -0.0462 C   0  0  1  0  0  0  0  0  0  0  0  0
    1.0644   -0.7242   -0.8008 H   0  0  0  0  0  0  0  0  0  0  0  0
    0.2125    1.2108   -0.4180 C   0  0  0  0  0  0  0  0  0  0  0  0
   -0.4299    1.6919    0.3213 H   0  0  0  0  0  0  0  0  0  0  0  0
    1.1707    1.7283   -0.4507 H   0  0  0  0  0  0  0  0  0  0  0  0
   -0.2568    1.2797   -1.4008 H   0  0  0  0  0  0  0  0  0  0  0  0
    1.1220   -0.4095    1.3201 C   0  0  0  0  0  0  0  0  0  0  0  0
    2.0614   -1.1922    1.4607 O   0  0  0  0  0  0  0  0  0  0  0  0
    0.6495    0.3367    2.3265 N   0  0  0  0  0  0  0  0  0  0  0  0
   -0.1261    0.9506    2.1353 H   0  0  0  0  0  0  0  0  0  0  0  0
    1.1906    0.3130    3.6847 C   0  0  0  0  0  0  0  0  0  0  0  0
    2.2612    0.5257    3.6585 H   0  0  0  0  0  0  0  0  0  0  0  0
    0.6917    1.0586    4.3054 H   0  0  0  0  0  0  0  0  0  0  0  0
    1.0448   -0.6765    4.1215 H   0  0  0  0  0  0  0  0  0  0  0  0
  5  6  2  0  0  0  0
  5  7  1  0  0  0  0
  2  3  1  0  0  0  0
  2  4  1  0  0  0  0
  2  5  1  0  0  0  0
  1  2  1  0  0  0  0
 15 16  2  0  0  0  0
 15 17  1  0  0  0  0
 11 12  1  0  0  0  0
 11 13  1  0  0  0  0
 11 14  1  0  0  0  0
  9 10  1  0  0  0  0
  9 11  1  0  0  0  0
  9 15  1  0  0  0  0
  7  8  1  0  0  0  0
  7  9  1  0  0  0  0
 19 20  1  0  0  0  0
 19 21  1  0  0  0  0
 19 22  1  0  0  0  0
 17 18  1  0  0  0  0
 17 19  1  0  0  0  0
M  END
$$$$
default_name
  -OEChem-01062215323D

 22 21  0     1  0  0  0  0  0999 V2000
   -2.5423   -3.6749    0.8058 H   0  0  0  0  0  0  0  0  0  0  0  0
   -2.5063   -2.6779    0.3688 C   0  0  0  0  0  0  0  0  0  0  0  0
   -3.1603   -2.0109    0.9268 H   0  0  0  0  0  0  0  0  0  0  0  0
   -2.8193   -2.7229   -0.6722 H   0  0  0  0  0  0  0  0  0  0  0  0
   -1.0873   -2.1629    0.4418 C   0  0  0  0  0  0  0  0  0  0  0  0
   -0.2073   -2.8549    0.9368 O   0  0  0  0  0  0  0  0  0  0  0  0
   -0.8713   -0.9449   -0.0482 N   0  0  0  0  0  0  0  0  0  0  0  0
   -1.6543   -0.4189   -0.4062 H   0  0  0  0  0  0  0  0  0  0  0  0
    0.4237   -0.2649   -0.0462 C   0  0  1  0  0  0  0  0  0  0  0  0
    1.0644   -0.7242   -0.8008 H   0  0  0  0  0  0  0  0  0  0  0  0
    0.2125    1.2108   -0.4180 C   0  0  0  0  0  0  0  0  0  0  0  0
   -0.4299    1.6919    0.3213 H   0  0  0  0  0  0  0  0  0  0  0  0
    1.1707    1.7283   -0.4507 H   0  0  0  0  0  0  0  0  0  0  0  0
   -0.2568    1.2797   -1.4008 H   0  0  0  0  0  0  0  0  0  0  0  0
    1.1220   -0.4095    1.3201 C   0  0  0  0  0  0  0  0  0  0  0  0
    2.2152   -0.9685    1.4058 O   0  0  0  0  0  0  0  0  0  0  0  0
    0.4794    0.0829    2.3867 N   0  0  0  0  0  0  0  0  0  0  0  0
   -0.4150    0.5222    2.2376 H   0  0  0  0  0  0  0  0  0  0  0  0
    0.9969    0.0202    3.7527 C   0  0  0  0  0  0  0  0  0  0  0  0
    1.9896    0.4731    3.7917 H   0  0  0  0  0  0  0  0  0  0  0  0
    0.3328    0.5524    4.4353 H   0  0  0  0  0  0  0  0  0  0  0  0
    1.0788   -1.0215    4.0676 H   0  0  0  0  0  0  0  0  0  0  0  0
  5  6  2  0  0  0  0
  5  7  1  0  0  0  0
  2  3  1  0  0  0  0
  2  4  1  0  0  0  0
  2  5  1  0  0  0  0
  1  2  1  0  0  0  0
 15 16  2  0  0  0  0
 15 17  1  0  0  0  0
 11 12  1  0  0  0  0
 11 13  1  0  0  0  0
 11 14  1  0  0  0  0
  9 10  1  0  0  0  0
  9 11  1  0  0  0  0
  9 15  1  0  0  0  0
  7  8  1  0  0  0  0
  7  9  1  0  0  0  0
 19 20  1  0  0  0  0
 19 21  1  0  0  0  0
 19 22  1  0  0  0  0
 17 18  1  0  0  0  0
 17 19  1  0  0  0  0
M  END
$$$$
default_name
  -OEChem-01062215323D

 22 21  0     1  0  0  0  0  0999 V2000
   -2.5423   -3.6749    0.8058 H   0  0  0  0  0  0  0  0  0  0  0  0
   -2.5063   -2.6779    0.3688 C   0  0  0  0  0  0  0  0  0  0  0  0
   -3.1603   -2.0109    0.9268 H   0  0  0  0  0  0  0  0  0  0  0  0
   -2.8193   -2.7229   -0.6722 H   0  0  0  0  0  0  0  0  0  0  0  0
   -1.0873   -2.1629    0.4418 C   0  0  0  0  0  0  0  0  0  0  0  0
   -0.2073   -2.8549    0.9368 O   0  0  0  0  0  0  0  0  0  0  0  0
   -0.8713   -0.9449   -0.0482 N   0  0  0  0  0  0  0  0  0  0  0  0
   -1.6543   -0.4189   -0.4062 H   0  0  0  0  0  0  0  0  0  0  0  0
    0.4237   -0.2649   -0.0462 C   0  0  1  0  0  0  0  0  0  0  0  0
    1.0644   -0.7242   -0.8008 H   0  0  0  0  0  0  0  0  0  0  0  0
    0.2125    1.2108   -0.4180 C   0  0  0  0  0  0  0  0  0  0  0  0
   -0.4299    1.6919    0.3213 H   0  0  0  0  0  0  0  0  0  0  0  0
    1.1707    1.7283   -0.4507 H   0  0  0  0  0  0  0  0  0  0  0  0
   -0.2568    1.2797   -1.4008 H   0  0  0  0  0  0  0  0  0  0  0  0
    1.1220   -0.4095    1.3201 C   0  0  0  0  0  0  0  0  0  0  0  0
    2.3137   -0.7107    1.3827 O   0  0  0  0  0  0  0  0  0  0  0  0
    0.3718   -0.2083    2.4108 N   0  0  0  0  0  0  0  0  0  0  0  0
   -0.5982    0.0301    2.2792 H   0  0  0  0  0  0  0  0  0  0  0  0
    0.8753   -0.3150    3.7794 C   0  0  0  0  0  0  0  0  0  0  0  0
    1.7362    0.3442    3.9076 H   0  0  0  0  0  0  0  0  0  0  0  0
    0.0991   -0.0342    4.4927 H   0  0  0  0  0  0  0  0  0  0  0  0
    1.1922   -1.3406    3.9758 H   0  0  0  0  0  0  0  0  0  0  0  0
  5  6  2  0  0  0  0
  5  7  1  0  0  0  0
  2  3  1  0  0  0  0
  2  4  1  0  0  0  0
  2  5  1  0  0  0  0
  1  2  1  0  0  0  0
 15 16  2  0  0  0  0
 15 17  1  0  0  0  0
 11 12  1  0  0  0  0
 11 13  1  0  0  0  0
 11 14  1  0  0  0  0
  9 10  1  0  0  0  0
  9 11  1  0  0  0  0
  9 15  1  0  0  0  0
  7  8  1  0  0  0  0
  7  9  1  0  0  0  0
 19 20  1  0  0  0  0
 19 21  1  0  0  0  0
 19 22  1  0  0  0  0
 17 18  1  0  0  0  0
 17 19  1  0  0  0  0
M  END
$$$$
default_name
  -OEChem-01062215323D

 22 21  0     1  0  0  0  0  0999 V2000
   -2.5423   -3.6749    0.8058 H   0  0  0  0  0  0  0  0  0  0  0  0
   -2.5063   -2.6779    0.3688 C   0  0  0  0  0  0  0  0  0  0  0  0
   -3.1603   -2.0109    0.9268 H   0  0  0  0  0  0  0  0  0  0  0  0
   -2.8193   -2.7229   -0.6722 H   0  0  0  0  0  0  0  0  0  0  0  0
   -1.0873   -2.1629    0.4418 C   0  0  0  0  0  0  0  0  0  0  0  0
   -0.2073   -2.8549    0.9368 O   0  0  0  0  0  0  0  0  0  0  0  0
   -0.8713   -0.9449   -0.0482 N   0  0  0  0  0  0  0  0  0  0  0  0
   -1.6543   -0.4189   -0.4062 H   0  0  0  0  0  0  0  0  0  0  0  0
    0.4237   -0.2649   -0.0462 C   0  0  1  0  0  0  0  0  0  0  0  0
    1.0644   -0.7242   -0.8008 H   0  0  0  0  0  0  0  0  0  0  0  0
    0.2125    1.2108   -0.4180 C   0  0  0  0  0  0  0  0  0  0  0  0
   -0.4299    1.6919    0.3213 H   0  0  0  0  0  0  0  0  0  0  0  0
    1.1707    1.7283   -0.4507 H   0  0  0  0  0  0  0  0  0  0  0  0
   -0.2568    1.2797   -1.4008 H   0  0  0  0  0  0  0  0  0  0  0  0
    1.1220   -0.4095    1.3201 C   0  0  0  0  0  0  0  0  0  0  0  0
    2.3503   -0.4363    1.3930 O   0  0  0  0  0  0  0  0  0  0  0  0
    0.3341   -0.5172    2.3974 N   0  0  0  0  0  0  0  0  0  0  0  0
   -0.6632   -0.4922    2.2572 H   0  0  0  0  0  0  0  0  0  0  0  0
    0.8341   -0.6698    3.7629 C   0  0  0  0  0  0  0  0  0  0  0  0
    1.5181    0.1480    3.9983 H   0  0  0  0  0  0  0  0  0  0  0  0
    0.0065   -0.6611    4.4737 H   0  0  0  0  0  0  0  0  0  0  0  0
    1.3772   -1.6122    3.8526 H   0  0  0  0  0  0  0  0  0  0  0  0
  5  6  2  0  0  0  0
  5  7  1  0  0  0  0
  2  3  1  0  0  0  0
  2  4  1  0  0  0  0
  2  5  1  0  0  0  0
  1  2  1  0  0  0  0
 15 16  2  0  0  0  0
 15 17  1  0  0  0  0
 11 12  1  0  0  0  0
 11 13  1  0  0  0  0
 11 14  1  0  0  0  0
  9 10  1  0  0  0  0
  9 11  1  0  0  0  0
  9 15  1  0  0  0  0
  7  8  1  0  0  0  0
  7  9  1  0  0  0  0
 19 20  1  0  0  0  0
 19 21  1  0  0  0  0
 19 22  1  0  0  0  0
 17 18  1  0  0  0  0
 17 19  1  0  0  0  0
M  END
$$$$
default_name
  -OEChem-01062215323D

 22 21  0     1  0  0  0  0  0999 V2000
   -2.5423   -3.6749    0.8058 H   0  0  0  0  0  0  0  0  0  0  0  0
   -2.5063   -2.6779    0.3688 C   0  0  0  0  0  0  0  0  0  0  0  0
   -3.1603   -2.0109    0.9268 H   0  0  0  0  0  0  0  0  0  0  0  0
   -2.8193   -2.7229   -0.6722 H   0  0  0  0  0  0  0  0  0  0  0  0
   -1.0873   -2.1629    0.4418 C   0  0  0  0  0  0  0  0  0  0  0  0
   -0.2073   -2.8549    0.9368 O   0  0  0  0  0  0  0  0  0  0  0  0
   -0.8713   -0.9449   -0.0482 N   0  0  0  0  0  0  0  0  0  0  0  0
   -1.6543   -0.4189   -0.4062 H   0  0  0  0  0  0  0  0  0  0  0  0
    0.4237   -0.2649   -0.0462 C   0  0  1  0  0  0  0  0  0  0  0  0
    1.0644   -0.7242   -0.8008 H   0  0  0  0  0  0  0  0  0  0  0  0
    0.2125    1.2108   -0.4180 C   0  0  0  0  0  0  0  0  0  0  0  0
   -0.4299    1.6919    0.3213 H   0  0  0  0  0  0  0  0  0  0  0  0
    1.1707    1.7283   -0.4507 H   0  0  0  0  0  0  0  0  0  0  0  0
   -0.2568    1.2797   -1.4008 H   0  0  0  0  0  0  0  0  0  0  0  0
    1.1220   -0.4095    1.3201 C   0  0  0  0  0  0  0  0  0  0  0  0
    2.3225   -0.1641    1.4361 O   0  0  0  0  0  0  0  0  0  0  0  0
    0.3689   -0.8226    2.3473 N   0  0  0  0  0  0  0  0  0  0  0  0
   -0.6057   -1.0090    2.1731 H   0  0  0  0  0  0  0  0  0  0  0  0
    0.8761   -1.0200    3.7044 C   0  0  0  0  0  0  0  0  0  0  0  0
    1.3503   -0.1021    4.0576 H   0  0  0  0  0  0  0  0  0  0  0  0
    0.0614   -1.2857    4.3795 H   0  0  0  0  0  0  0  0  0  0  0  0
    1.6211   -1.8175    3.7062 H   0  0  0  0  0  0  0  0  0  0  0  0
  5  6  2  0  0  0  0
  5  7  1  0  0  0  0
  2  3  1  0  0  0  0
  2  4  1  0  0  0  0
  2  5  1  0  0  0  0
  1  2  1  0  0  0  0
 15 16  2  0  0  0  0
 15 17  1  0  0  0  0
 11 12  1  0  0  0  0
 11 13  1  0  0  0  0
 11 14  1  0  0  0  0
  9 10  1  0  0  0  0
  9 11  1  0  0  0  0
  9 15  1  0  0  0  0
  7  8  1  0  0  0  0
  7  9  1  0  0  0  0
 19 20  1  0  0  0  0
 19 21  1  0  0  0  0
 19 22  1  0  0  0  0
 17 18  1  0  0  0  0
 17 19  1  0  0  0  0
M  END
$$$$
default_name
  -OEChem-01062215323D

 22 21  0     1  0  0  0  0  0999 V2000
   -2.5423   -3.6749    0.8058 H   0  0  0  0  0  0  0  0  0  0  0  0
   -2.5063   -2.6779    0.3688 C   0  0  0  0  0  0  0  0  0  0  0  0
   -3.1603   -2.0109    0.9268 H   0  0  0  0  0  0  0  0  0  0  0  0
   -2.8193   -2.7229   -0.6722 H   0  0  0  0  0  0  0  0  0  0  0  0
   -1.0873   -2.1629    0.4418 C   0  0  0  0  0  0  0  0  0  0  0  0
   -0.2073   -2.8549    0.9368 O   0  0  0  0  0  0  0  0  0  0  0  0
   -0.8713   -0.9449   -0.0482 N   0  0  0  0  0  0  0  0  0  0  0  0
   -1.6543   -0.4189   -0.4062 H   0  0  0  0  0  0  0  0  0  0  0  0
    0.4237   -0.2649   -0.0462 C   0  0  1  0  0  0  0  0  0  0  0  0
    1.0644   -0.7242   -0.8008 H   0  0  0  0  0  0  0  0  0  0  0  0
    0.2125    1.2108   -0.4180 C   0  0  0  0  0  0  0  0  0  0  0  0
   -0.4299    1.6919    0.3213 H   0  0  0  0  0  0  0  0  0  0  0  0
    1.1707    1.7283   -0.4507 H   0  0  0  0  0  0  0  0  0  0  0  0
   -0.2568    1.2797   -1.4008 H   0  0  0  0  0  0  0  0  0  0  0  0
    1.1220   -0.4095    1.3201 C   0  0  0  0  0  0  0  0  0  0  0  0
    2.2321    0.0874    1.5089 O   0  0  0  0  0  0  0  0  0  0  0  0
    0.4738   -1.1037    2.2640 N   0  0  0  0  0  0  0  0  0  0  0  0
   -0.4296   -1.4851    2.0327 H   0  0  0  0  0  0  0  0  0  0  0  0
    0.9985   -1.3418    3.6078 C   0  0  0  0  0  0  0  0  0  0  0  0
    1.2441   -0.3892    4.0814 H   0  0  0  0  0  0  0  0  0  0  0  0
    0.2601   -1.8654    4.2166 H   0  0  0  0  0  0  0  0  0  0  0  0
    1.9074   -1.9427    3.5466 H   0  0  0  0  0  0  0  0  0  0  0  0
  5  6  2  0  0  0  0
  5  7  1  0  0  0  0
  2  3  1  0  0  0  0
  2  4  1  0  0  0  0
  2  5  1  0  0  0  0
  1  2  1  0  0  0  0
 15 16  2  0  0  0  0
 15 17  1  0  0  0  0
 11 12  1  0  0  0  0
 11 13  1  0  0  0  0
 11 14  1  0  0  0  0
  9 10  1  0  0  0  0
  9 11  1  0  0  0  0
  9 15  1  0  0  0  0
  7  8  1  0  0  0  0
  7  9  1  0  0  0  0
 19 20  1  0  0  0  0
 19 21  1  0  0  0  0
 19 22  1  0  0  0  0
 17 18  1  0  0  0  0
 17 19  1  0  0  0  0
M  END
$$$$
default_name
  -OEChem-01062215323D

 22 21  0     1  0  0  0  0  0999 V2000
   -2.5423   -3.6749    0.8058 H   0  0  0  0  0  0  0  0  0  0  0  0
   -2.5063   -2.6779    0.3688 C   0  0  0  0  0  0  0  0  0  0  0  0
   -3.1603   -2.0109    0.9268 H   0  0  0  0  0  0  0  0  0  0  0  0
   -2.8193   -2.7229   -0.6722 H   0  0  0  0  0  0  0  0  0  0  0  0
   -1.0873   -2.1629    0.4418 C   0  0  0  0  0  0  0  0  0  0  0  0
   -0.2073   -2.8549    0.9368 O   0  0  0  0  0  0  0  0  0  0  0  0
   -0.8713   -0.9449   -0.0482 N   0  0  0  0  0  0  0  0  0  0  0  0
   -1.6543   -0.4189   -0.4062 H   0  0  0  0  0  0  0  0  0  0  0  0
    0.4237   -0.2649   -0.0462 C   0  0  1  0  0  0  0  0  0  0  0  0
    1.0644   -0.7242   -0.8008 H   0  0  0  0  0  0  0  0  0  0  0  0
    0.2125    1.2108   -0.4180 C   0  0  0  0  0  0  0  0  0  0  0  0
   -0.4299    1.6919    0.3213 H   0  0  0  0  0  0  0  0  0  0  0  0
    1.1707    1.7283   -0.4507 H   0  0  0  0  0  0  0  0  0  0  0  0
   -0.2568    1.2797   -1.4008 H   0  0  0  0  0  0  0  0  0  0  0  0
    1.1220   -0.4095    1.3201 C   0  0  0  0  0  0  0  0  0  0  0  0
    2.0853    0.3010    1.6065 O   0  0  0  0  0  0  0  0  0  0  0  0
    0.6416   -1.3414    2.1530 N   0  0  0  0  0  0  0  0  0  0  0  0
   -0.1467   -1.8881    1.8455 H   0  0  0  0  0  0  0  0  0  0  0  0
    1.1929   -1.6133    3.4797 C   0  0  0  0  0  0  0  0  0  0  0  0
    1.2069   -0.6937    4.0682 H   0  0  0  0  0  0  0  0  0  0  0  0
    0.5889   -2.3606    3.9962 H   0  0  0  0  0  0  0  0  0  0  0  0
    2.2166   -1.9793    3.3847 H   0  0  0  0  0  0  0  0  0  0  0  0
  5  6  2  0  0  0  0
  5  7  1  0  0  0  0
  2  3  1  0  0  0  0
  2  4  1  0  0  0  0
  2  5  1  0  0  0  0
  1  2  1  0  0  0  0
 15 16  2  0  0  0  0
 15 17  1  0  0  0  0
 11 12  1  0  0  0  0
 11 13  1  0  0  0  0
 11 14  1  0  0  0  0
  9 10  1  0  0  0  0
  9 11  1  0  0  0  0
  9 15  1  0  0  0  0
  7  8  1  0  0  0  0
  7  9  1  0  0  0  0
 19 20  1  0  0  0  0
 19 21  1  0  0  0  0
 19 22  1  0  0  0  0
 17 18  1  0  0  0  0
 17 19  1  0  0  0  0
M  END
$$$$
default_name
  -OEChem-01062215323D

 22 21  0     1  0  0  0  0  0999 V2000
   -2.5423   -3.6749    0.8058 H   0  0  0  0  0  0  0  0  0  0  0  0
   -2.5063   -2.6779    0.3688 C   0  0  0  0  0  0  0  0  0  0  0  0
   -3.1603   -2.0109    0.9268 H   0  0  0  0  0  0  0  0  0  0  0  0
   -2.8193   -2.7229   -0.6722 H   0  0  0  0  0  0  0  0  0  0  0  0
   -1.0873   -2.1629    0.4418 C   0  0  0  0  0  0  0  0  0  0  0  0
   -0.2073   -2.8549    0.9368 O   0  0  0  0  0  0  0  0  0  0  0  0
   -0.8713   -0.9449   -0.0482 N   0  0  0  0  0  0  0  0  0  0  0  0
   -1.6543   -0.4189   -0.4062 H   0  0  0  0  0  0  0  0  0  0  0  0
    0.4237   -0.2649   -0.0462 C   0  0  1  0  0  0  0  0  0  0  0  0
    1.0644   -0.7242   -0.8008 H   0  0  0  0  0  0  0  0  0  0  0  0
    0.2125    1.2108   -0.4180 C   0  0  0  0  0  0  0  0  0  0  0  0
   -0.4299    1.6919    0.3213 H   0  0  0  0  0  0  0  0  0  0  0  0
    1.1707    1.7283   -0.4507 H   0  0  0  0  0  0  0  0  0  0  0  0
   -0.2568    1.2797   -1.4008 H   0  0  0  0  0  0  0  0  0  0  0  0
    1.1220   -0.4095    1.3201 C   0  0  0  0  0  0  0  0  0  0  0  0
    1.8921    0.4623    1.7223 O   0  0  0  0  0  0  0  0  0  0  0  0
    0.8610   -1.5195    2.0221 N   0  0  0  0  0  0  0  0  0  0  0  0
    0.2235   -2.1906    1.6243 H   0  0  0  0  0  0  0  0  0  0  0  0
    1.4460   -1.8158    3.3289 C   0  0  0  0  0  0  0  0  0  0  0  0
    1.2411   -0.9948    4.0189 H   0  0  0  0  0  0  0  0  0  0  0  0
    1.0255   -2.7377    3.7332 H   0  0  0  0  0  0  0  0  0  0  0  0
    2.5276   -1.9246    3.2316 H   0  0  0  0  0  0  0  0  0  0  0  0
  5  6  2  0  0  0  0
  5  7  1  0  0  0  0
  2  3  1  0  0  0  0
  2  4  1  0  0  0  0
  2  5  1  0  0  0  0
  1  2  1  0  0  0  0
 15 16  2  0  0  0  0
 15 17  1  0  0  0  0
 11 12  1  0  0  0  0
 11 13  1  0  0  0  0
 11 14  1  0  0  0  0
  9 10  1  0  0  0  0
  9 11  1  0  0  0  0
  9 15  1  0  0  0  0
  7  8  1  0  0  0  0
  7  9  1  0  0  0  0
 19 20  1  0  0  0  0
 19 21  1  0  0  0  0
 19 22  1  0  0  0  0
 17 18  1  0  0  0  0
 17 19  1  0  0  0  0
M  END
$$$$
default_name
  -OEChem-01062215323D

 22 21  0     1  0  0  0  0  0999 V2000
   -2.5423   -3.6749    0.8058 H   0  0  0  0  0  0  0  0  0  0  0  0
   -2.5063   -2.6779    0.3688 C   0  0  0  0  0  0  0  0  0  0  0  0
   -3.1603   -2.0109    0.9268 H   0  0  0  0  0  0  0  0  0  0  0  0
   -2.8193   -2.7229   -0.6722 H   0  0  0  0  0  0  0  0  0  0  0  0
   -1.0873   -2.1629    0.4418 C   0  0  0  0  0  0  0  0  0  0  0  0
   -0.2073   -2.8549    0.9368 O   0  0  0  0  0  0  0  0  0  0  0  0
   -0.8713   -0.9449   -0.0482 N   0  0  0  0  0  0  0  0  0  0  0  0
   -1.6543   -0.4189   -0.4062 H   0  0  0  0  0  0  0  0  0  0  0  0
    0.4237   -0.2649   -0.0462 C   0  0  1  0  0  0  0  0  0  0  0  0
    1.0644   -0.7242   -0.8008 H   0  0  0  0  0  0  0  0  0  0  0  0
    0.2125    1.2108   -0.4180 C   0  0  0  0  0  0  0  0  0  0  0  0
   -0.4299    1.6919    0.3213 H   0  0  0  0  0  0  0  0  0  0  0  0
    1.1707    1.7283   -0.4507 H   0  0  0  0  0  0  0  0  0  0  0  0
   -0.2568    1.2797   -1.4008 H   0  0  0  0  0  0  0  0  0  0  0  0
    1.1220   -0.4095    1.3201 C   0  0  0  0  0  0  0  0  0  0  0  0
    1.6657    0.5601    1.8484 O   0  0  0  0  0  0  0  0  0  0  0  0
    1.1169   -1.6258    1.8800 N   0  0  0  0  0  0  0  0  0  0  0  0
    0.6558   -2.3718    1.3842 H   0  0  0  0  0  0  0  0  0  0  0  0
    1.7407   -1.9357    3.1656 C   0  0  0  0  0  0  0  0  0  0  0  0
    1.3445   -1.2720    3.9367 H   0  0  0  0  0  0  0  0  0  0  0  0
    1.5401   -2.9708    3.4455 H   0  0  0  0  0  0  0  0  0  0  0  0
    2.8191   -1.7826    3.0976 H   0  0  0  0  0  0  0  0  0  0  0  0
  5  6  2  0  0  0  0
  5  7  1  0  0  0  0
  2  3  1  0  0  0  0
  2  4  1  0  0  0  0
  2  5  1  0  0  0  0
  1  2  1  0  0  0  0
 15 16  2  0  0  0  0
 15 17  1  0  0  0  0
 11 12  1  0  0  0  0
 11 13  1  0  0  0  0
 11 14  1  0  0  0  0
  9 10  1  0  0  0  0
  9 11  1  0  0  0  0
  9 15  1  0  0  0  0
  7  8  1  0  0  0  0
  7  9  1  0  0  0  0
 19 20  1  0  0  0  0
 19 21  1  0  0  0  0
 19 22  1  0  0  0  0
 17 18  1  0  0  0  0
 17 19  1  0  0  0  0
M  END
$$$$
default_name
  -OEChem-01062215323D

 22 21  0     1  0  0  0  0  0999 V2000
   -2.5423   -3.6749    0.8058 H   0  0  0  0  0  0  0  0  0  0  0  0
   -2.5063   -2.6779    0.3688 C   0  0  0  0  0  0  0  0  0  0  0  0
   -3.1603   -2.0109    0.9268 H   0  0  0  0  0  0  0  0  0  0  0  0
   -2.8193   -2.7229   -0.6722 H   0  0  0  0  0  0  0  0  0  0  0  0
   -1.0873   -2.1629    0.4418 C   0  0  0  0  0  0  0  0  0  0  0  0
   -0.2073   -2.8549    0.9368 O   0  0  0  0  0  0  0  0  0  0  0  0
   -0.8713   -0.9449   -0.0482 N   0  0  0  0  0  0  0  0  0  0  0  0
   -1.6543   -0.4189   -0.4062 H   0  0  0  0  0  0  0  0  0  0  0  0
    0.4237   -0.2649   -0.0462 C   0  0  1  0  0  0  0  0  0  0  0  0
    1.0644   -0.7242   -0.8008 H   0  0  0  0  0  0  0  0  0  0  0  0
    0.2125    1.2108   -0.4180 C   0  0  0  0  0  0  0  0  0  0  0  0
   -0.4299    1.6919    0.3213 H   0  0  0  0  0  0  0  0  0  0  0  0
    1.1707    1.7283   -0.4507 H   0  0  0  0  0  0  0  0  0  0  0  0
   -0.2568    1.2797   -1.4008 H   0  0  0  0  0  0  0  0  0  0  0  0
    1.1220   -0.4095    1.3201 C   0  0  0  0  0  0  0  0  0  0  0  0
    1.4215    0.5879    1.9761 O   0  0  0  0  0  0  0  0  0  0  0  0
    1.3920   -1.6531    1.7365 N   0  0  0  0  0  0  0  0  0  0  0  0
    1.1209   -2.4195    1.1414 H   0  0  0  0  0  0  0  0  0  0  0  0
    2.0568   -1.9647    3.0010 C   0  0  0  0  0  0  0  0  0  0  0  0
    1.5099   -1.5064    3.8274 H   0  0  0  0  0  0  0  0  0  0  0  0
    2.0977   -3.0443    3.1527 H   0  0  0  0  0  0  0  0  0  0  0  0
    3.0713   -1.5627    2.9920 H   0  0  0  0  0  0  0  0  0  0  0  0
  5  6  2  0  0  0  0
  5  7  1  0  0  0  0
  2  3  1  0  0  0  0
  2  4  1  0  0  0  0
  2  5  1  0  0  0  0
  1  2  1  0  0  0  0
 15 16  2  0  0  0  0
 15 17  1  0  0  0  0
 11 12  1  0  0  0  0
 11 13  1  0  0  0  0
 11 14  1  0  0  0  0
  9 10  1  0  0  0  0
  9 11  1  0  0  0  0
  9 15  1  0  0  0  0
  7  8  1  0  0  0  0
  7  9  1  0  0  0  0
 19 20  1  0  0  0  0
 19 21  1  0  0  0  0
 19 22  1  0  0  0  0
 17 18  1  0  0  0  0
 17 19  1  0  0  0  0
M  END
$$$$
default_name
  -OEChem-01062215323D

 22 21  0     1  0  0  0  0  0999 V2000
   -2.5423   -3.6749    0.8058 H   0  0  0  0  0  0  0  0  0  0  0  0
   -2.5063   -2.6779    0.3688 C   0  0  0  0  0  0  0  0  0  0  0  0
   -3.1603   -2.0109    0.9268 H   0  0  0  0  0  0  0  0  0  0  0  0
   -2.8193   -2.7229   -0.6722 H   0  0  0  0  0  0  0  0  0  0  0  0
   -1.0873   -2.1629    0.4418 C   0  0  0  0  0  0  0  0  0  0  0  0
   -0.2073   -2.8549    0.9368 O   0  0  0  0  0  0  0  0  0  0  0  0
   -0.8713   -0.9449   -0.0482 N   0  0  0  0  0  0  0  0  0  0  0  0
   -1.6543   -0.4189   -0.4062 H   0  0  0  0  0  0  0  0  0  0  0  0
    0.4237   -0.2649   -0.0462 C   0  0  1  0  0  0  0  0  0  0  0  0
    1.0644   -0.7242   -0.8008 H   0  0  0  0  0  0  0  0  0  0  0  0
    0.2125    1.2108   -0.4180 C   0  0  0  0  0  0  0  0  0  0  0  0
   -0.4299    1.6919    0.3213 H   0  0  0  0  0  0  0  0  0  0  0  0
    1.1707    1.7283   -0.4507 H   0  0  0  0  0  0  0  0  0  0  0  0
   -0.2568    1.2797   -1.4008 H   0  0  0  0  0  0  0  0  0  0  0  0
    1.1220   -0.4095    1.3201 C   0  0  0  0  0  0  0  0  0  0  0  0
    1.1762    0.5437    2.0968 O   0  0  0  0  0  0  0  0  0  0  0  0
    1.6674   -1.5996    1.6014 N   0  0  0  0  0  0  0  0  0  0  0  0
    1.5869   -2.3304    0.9127 H   0  0  0  0  0  0  0  0  0  0  0  0
    2.3728   -1.9010    2.8463 C   0  0  0  0  0  0  0  0  0  0  0  0
    1.7261   -1.6821    3.6983 H   0  0  0  0  0  0  0  0  0  0  0  0
    2.6602   -2.9529    2.8749 H   0  0  0  0  0  0  0  0  0  0  0  0
    3.2671   -1.2801    2.9218 H   0  0  0  0  0  0  0  0  0  0  0  0
  5  6  2  0  0  0  0
  5  7  1  0  0  0  0
  2  3  1  0  0  0  0
  2  4  1  0  0  0  0
  2  5  1  0  0  0  0
  1  2  1  0  0  0  0
 15 16  2  0  0  0  0
 15 17  1  0  0  0  0
 11 12  1  0  0  0  0
 11 13  1  0  0  0  0
 11 14  1  0  0  0  0
  9 10  1  0  0  0  0
  9 11  1  0  0  0  0
  9 15  1  0  0  0  0
  7  8  1  0  0  0  0
  7  9  1  0  0  0  0
 19 20  1  0  0  0  0
 19 21  1  0  0  0  0
 19 22  1  0  0  0  0
 17 18  1  0  0  0  0
 17 19  1  0  0  0  0
M  END
$$$$
default_name
  -OEChem-01062215323D

 22 21  0     1  0  0  0  0  0999 V2000
   -2.5423   -3.6749    0.8058 H   0  0  0  0  0  0  0  0  0  0  0  0
   -2.5063   -2.6779    0.3688 C   0  0  0  0  0  0  0  0  0  0  0  0
   -3.1603   -2.0109    0.9268 H   0  0  0  0  0  0  0  0  0  0  0  0
   -2.8193   -2.7229   -0.6722 H   0  0  0  0  0  0  0  0  0  0  0  0
   -1.0873   -2.1629    0.4418 C   0  0  0  0  0  0  0  0  0  0  0  0
   -0.2073   -2.8549    0.9368 O   0  0  0  0  0  0  0  0  0  0  0  0
   -0.8713   -0.9449   -0.0482 N   0  0  0  0  0  0  0  0  0  0  0  0
   -1.6543   -0.4189   -0.4062 H   0  0  0  0  0  0  0  0  0  0  0  0
    0.4237   -0.2649   -0.0462 C   0  0  1  0  0  0  0  0  0  0  0  0
    1.0644   -0.7242   -0.8008 H   0  0  0  0  0  0  0  0  0  0  0  0
    0.2125    1.2108   -0.4180 C   0  0  0  0  0  0  0  0  0  0  0  0
   -0.4299    1.6919    0.3213 H   0  0  0  0  0  0  0  0  0  0  0  0
    1.1707    1.7283   -0.4507 H   0  0  0  0  0  0  0  0  0  0  0  0
   -0.2568    1.2797   -1.4008 H   0  0  0  0  0  0  0  0  0  0  0  0
    1.1220   -0.4095    1.3201 C   0  0  0  0  0  0  0  0  0  0  0  0
    0.9464    0.4306    2.2023 O   0  0  0  0  0  0  0  0  0  0  0  0
    1.9245   -1.4689    1.4839 N   0  0  0  0  0  0  0  0  0  0  0  0
    2.0222   -2.1106    0.7135 H   0  0  0  0  0  0  0  0  0  0  0  0
    2.6671   -1.7487    2.7119 C   0  0  0  0  0  0  0  0  0  0  0  0
    1.9784   -1.7870    3.5583 H   0  0  0  0  0  0  0  0  0  0  0  0
    3.1894   -2.7031    2.6309 H   0  0  0  0  0  0  0  0  0  0  0  0
    3.3931   -0.9540    2.8919 H   0  0  0  0  0  0  0  0  0  0  0  0
  5  6  2  0  0  0  0
  5  7  1  0  0  0  0
  2  3  1  0  0  0  0
  2  4  1  0  0  0  0
  2  5  1  0  0  0  0
  1  2  1  0  0  0  0
 15 16  2  0  0  0  0
 15 17  1  0  0  0  0
 11 12  1  0  0  0  0
 11 13  1  0  0  0  0
 11 14  1  0  0  0  0
  9 10  1  0  0  0  0
  9 11  1  0  0  0  0
  9 15  1  0  0  0  0
  7  8  1  0  0  0  0
  7  9  1  0  0  0  0
 19 20  1  0  0  0  0
 19 21  1  0  0  0  0
 19 22  1  0  0  0  0
 17 18  1  0  0  0  0
 17 19  1  0  0  0  0
M  END
$$$$
default_name
  -OEChem-01062215323D

 22 21  0     1  0  0  0  0  0999 V2000
   -2.5423   -3.6749    0.8058 H   0  0  0  0  0  0  0  0  0  0  0  0
   -2.5063   -2.6779    0.3688 C   0  0  0  0  0  0  0  0  0  0  0  0
   -3.1603   -2.0109    0.9268 H   0  0  0  0  0  0  0  0  0  0  0  0
   -2.8193   -2.7229   -0.6722 H   0  0  0  0  0  0  0  0  0  0  0  0
   -1.0873   -2.1629    0.4418 C   0  0  0  0  0  0  0  0  0  0  0  0
   -0.2073   -2.8549    0.9368 O   0  0  0  0  0  0  0  0  0  0  0  0
   -0.8713   -0.9449   -0.0482 N   0  0  0  0  0  0  0  0  0  0  0  0
   -1.6543   -0.4189   -0.4062 H   0  0  0  0  0  0  0  0  0  0  0  0
    0.4237   -0.2649   -0.0462 C   0  0  1  0  0  0  0  0  0  0  0  0
    1.0644   -0.7242   -0.8008 H   0  0  0  0  0  0  0  0  0  0  0  0
    0.2125    1.2108   -0.4180 C   0  0  0  0  0  0  0  0  0  0  0  0
   -0.4299    1.6919    0.3213 H   0  0  0  0  0  0  0  0  0  0  0  0
    1.1707    1.7283   -0.4507 H   0  0  0  0  0  0  0  0  0  0  0  0
   -0.2568    1.2797   -1.4008 H   0  0  0  0  0  0  0  0  0  0  0  0
    1.1220   -0.4095    1.3201 C   0  0  0  0  0  0  0  0  0  0  0  0
    0.7478    0.2562    2.2853 O   0  0  0  0  0  0  0  0  0  0  0  0
    2.1456   -1.2698    1.3920 N   0  0  0  0  0  0  0  0  0  0  0  0
    2.3970   -1.7751    0.5574 H   0  0  0  0  0  0  0  0  0  0  0  0
    2.9197   -1.5184    2.6072 C   0  0  0  0  0  0  0  0  0  0  0  0
    2.2495   -1.8140    3.4168 H   0  0  0  0  0  0  0  0  0  0  0  0
    3.6491   -2.3117    2.4374 H   0  0  0  0  0  0  0  0  0  0  0  0
    3.4407   -0.6066    2.9044 H   0  0  0  0  0  0  0  0  0  0  0  0
  5  6  2  0  0  0  0
  5  7  1  0  0  0  0
  2  3  1  0  0  0  0
  2  4  1  0  0  0  0
  2  5  1  0  0  0  0
  1  2  1  0  0  0  0
 15 16  2  0  0  0  0
 15 17  1  0  0  0  0
 11 12  1  0  0  0  0
 11 13  1  0  0  0  0
 11 14  1  0  0  0  0
  9 10  1  0  0  0  0
  9 11  1  0  0  0  0
  9 15  1  0  0  0  0
  7  8  1  0  0  0  0
  7  9  1  0  0  0  0
 19 20  1  0  0  0  0
 19 21  1  0  0  0  0
 19 22  1  0  0  0  0
 17 18  1  0  0  0  0
 17 19  1  0  0  0  0
M  END
$$$$
default_name
  -OEChem-01062215323D

 22 21  0     1  0  0  0  0  0999 V2000
   -2.5423   -3.6749    0.8058 H   0  0  0  0  0  0  0  0  0  0  0  0
   -2.5063   -2.6779    0.3688 C   0  0  0  0  0  0  0  0  0  0  0  0
   -3.1603   -2.0109    0.9268 H   0  0  0  0  0  0  0  0  0  0  0  0
   -2.8193   -2.7229   -0.6722 H   0  0  0  0  0  0  0  0  0  0  0  0
   -1.0873   -2.1629    0.4418 C   0  0  0  0  0  0  0  0  0  0  0  0
   -0.2073   -2.8549    0.9368 O   0  0  0  0  0  0  0  0  0  0  0  0
   -0.8713   -0.9449   -0.0482 N   0  0  0  0  0  0  0  0  0  0  0  0
   -1.6543   -0.4189   -0.4062 H   0  0  0  0  0  0  0  0  0  0  0  0
    0.4237   -0.2649   -0.0462 C   0  0  1  0  0  0  0  0  0  0  0  0
    1.0644   -0.7242   -0.8008 H   0  0  0  0  0  0  0  0  0  0  0  0
    0.2125    1.2108   -0.4180 C   0  0  0  0  0  0  0  0  0  0  0  0
   -0.4299    1.6919    0.3213 H   0  0  0  0  0  0  0  0  0  0  0  0
    1.1707    1.7283   -0.4507 H   0  0  0  0  0  0  0  0  0  0  0  0
   -0.2568    1.2797   -1.4008 H   0  0  0  0  0  0  0  0  0  0  0  0
    1.1220   -0.4095    1.3201 C   0  0  0  0  0  0  0  0  0  0  0  0
    0.5940    0.0325    2.3402 O   0  0  0  0  0  0  0  0  0  0  0  0
    2.3158   -1.0160    1.3318 N   0  0  0  0  0  0  0  0  0  0  0  0
    2.6859   -1.3467    0.4551 H   0  0  0  0  0  0  0  0  0  0  0  0
    3.1135   -1.2256    2.5392 C   0  0  0  0  0  0  0  0  0  0  0  0
    2.5211   -1.7613    3.2836 H   0  0  0  0  0  0  0  0  0  0  0  0
    4.0080   -1.8054    2.3075 H   0  0  0  0  0  0  0  0  0  0  0  0
    3.4066   -0.2615    2.9583 H   0  0  0  0  0  0  0  0  0  0  0  0
  5  6  2  0  0  0  0
  5  7  1  0  0  0  0
  2  3  1  0  0  0  0
  2  4  1  0  0  0  0
  2  5  1  0  0  0  0
  1  2  1  0  0  0  0
 15 16  2  0  0  0  0
 15 17  1  0  0  0  0
 11 12  1  0  0  0  0
 11 13  1  0  0  0  0
 11 14  1  0  0  0  0
  9 10  1  0  0  0  0
  9 11  1  0  0  0  0
  9 15  1  0  0  0  0
  7  8  1  0  0  0  0
  7  9  1  0  0  0  0
 19 20  1  0  0  0  0
 19 21  1  0  0  0  0
 19 22  1  0  0  0  0
 17 18  1  0  0  0  0
 17 19  1  0  0  0  0
M  END
$$$$
default_name
  -OEChem-01062215323D

 22 21  0     1  0  0  0  0  0999 V2000
   -2.5423   -3.6749    0.8058 H   0  0  0  0  0  0  0  0  0  0  0  0
   -2.5063   -2.6779    0.3688 C   0  0  0  0  0  0  0  0  0  0  0  0
   -3.1603   -2.0109    0.9268 H   0  0  0  0  0  0  0  0  0  0  0  0
   -2.8193   -2.7229   -0.6722 H   0  0  0  0  0  0  0  0  0  0  0  0
   -1.0873   -2.1629    0.4418 C   0  0  0  0  0  0  0  0  0  0  0  0
   -0.2073   -2.8549    0.9368 O   0  0  0  0  0  0  0  0  0  0  0  0
   -0.8713   -0.9449   -0.0482 N   0  0  0  0  0  0  0  0  0  0  0  0
   -1.6543   -0.4189   -0.4062 H   0  0  0  0  0  0  0  0  0  0  0  0
    0.4237   -0.2649   -0.0462 C   0  0  1  0  0  0  0  0  0  0  0  0
    1.0644   -0.7242   -0.8008 H   0  0  0  0  0  0  0  0  0  0  0  0
    0.2125    1.2108   -0.4180 C   0  0  0  0  0  0  0  0  0  0  0  0
   -0.4299    1.6919    0.3213 H   0  0  0  0  0  0  0  0  0  0  0  0
    1.1707    1.7283   -0.4507 H   0  0  0  0  0  0  0  0  0  0  0  0
   -0.2568    1.2797   -1.4008 H   0  0  0  0  0  0  0  0  0  0  0  0
    1.1220   -0.4095    1.3201 C   0  0  0  0  0  0  0  0  0  0  0  0
    0.4955   -0.2253    2.3633 O   0  0  0  0  0  0  0  0  0  0  0  0
    2.4234   -0.7247    1.3077 N   0  0  0  0  0  0  0  0  0  0  0  0
    2.8691   -0.8546    0.4136 H   0  0  0  0  0  0  0  0  0  0  0  0
    3.2351   -0.8904    2.5125 C   0  0  0  0  0  0  0  0  0  0  0  0
    2.7745   -1.6325    3.1677 H   0  0  0  0  0  0  0  0  0  0  0  0
    4.2417   -1.2189    2.2501 H   0  0  0  0  0  0  0  0  0  0  0  0
    3.2932    0.0576    3.0500 H   0  0  0  0  0  0  0  0  0  0  0  0
  5  6  2  0  0  0  0
  5  7  1  0  0  0  0
  2  3  1  0  0  0  0
  2  4  1  0  0  0  0
  2  5  1  0  0  0  0
  1  2  1  0  0  0  0
 15 16  2  0  0  0  0
 15 17  1  0  0  0  0
 11 12  1  0  0  0  0
 11 13  1  0  0  0  0
 11 14  1  0  0  0  0
  9 10  1  0  0  0  0
  9 11  1  0  0  0  0
  9 15  1  0  0  0  0
  7  8  1  0  0  0  0
  7  9  1  0  0  0  0
 19 20  1  0  0  0  0
 19 21  1  0  0  0  0
 19 22  1  0  0  0  0
 17 18  1  0  0  0  0
 17 19  1  0  0  0  0
M  END
$$$$
default_name
  -OEChem-01062215323D

 22 21  0     1  0  0  0  0  0999 V2000
   -2.5423   -3.6749    0.8058 H   0  0  0  0  0  0  0  0  0  0  0  0
   -2.5063   -2.6779    0.3688 C   0  0  0  0  0  0  0  0  0  0  0  0
   -3.1603   -2.0109    0.9268 H   0  0  0  0  0  0  0  0  0  0  0  0
   -2.8193   -2.7229   -0.6722 H   0  0  0  0  0  0  0  0  0  0  0  0
   -1.0873   -2.1629    0.4418 C   0  0  0  0  0  0  0  0  0  0  0  0
   -0.2073   -2.8549    0.9368 O   0  0  0  0  0  0  0  0  0  0  0  0
   -0.8713   -0.9449   -0.0482 N   0  0  0  0  0  0  0  0  0  0  0  0
   -1.6543   -0.4189   -0.4062 H   0  0  0  0  0  0  0  0  0  0  0  0
    0.4237   -0.2649   -0.0462 C   0  0  1  0  0  0  0  0  0  0  0  0
    1.0644   -0.7242   -0.8008 H   0  0  0  0  0  0  0  0  0  0  0  0
    0.2125    1.2108   -0.4180 C   0  0  0  0  0  0  0  0  0  0  0  0
   -0.4299    1.6919    0.3213 H   0  0  0  0  0  0  0  0  0  0  0  0
    1.1707    1.7283   -0.4507 H   0  0  0  0  0  0  0  0  0  0  0  0
   -0.2568    1.2797   -1.4008 H   0  0  0  0  0  0  0  0  0  0  0  0
    1.1220   -0.4095    1.3201 C   0  0  0  0  0  0  0  0  0  0  0  0
    0.4589   -0.4997    2.3530 O   0  0  0  0  0  0  0  0  0  0  0  0
    2.4610   -0.4159    1.3211 N   0  0  0  0  0  0  0  0  0  0  0  0
    2.9341   -0.3324    0.4356 H   0  0  0  0  0  0  0  0  0  0  0  0
    3.2763   -0.5356    2.5290 C   0  0  0  0  0  0  0  0  0  0  0  0
    2.9926   -1.4363    3.0770 H   0  0  0  0  0  0  0  0  0  0  0  0
    4.3343   -0.5919    2.2692 H   0  0  0  0  0  0  0  0  0  0  0  0
    3.1083    0.3291    3.1733 H   0  0  0  0  0  0  0  0  0  0  0  0
  5  6  2  0  0  0  0
  5  7  1  0  0  0  0
  2  3  1  0  0  0  0
  2  4  1  0  0  0  0
  2  5  1  0  0  0  0
  1  2  1  0  0  0  0
 15 16  2  0  0  0  0
 15 17  1  0  0  0  0
 11 12  1  0  0  0  0
 11 13  1  0  0  0  0
 11 14  1  0  0  0  0
  9 10  1  0  0  0  0
  9 11  1  0  0  0  0
  9 15  1  0  0  0  0
  7  8  1  0  0  0  0
  7  9  1  0  0  0  0
 19 20  1  0  0  0  0
 19 21  1  0  0  0  0
 19 22  1  0  0  0  0
 17 18  1  0  0  0  0
 17 19  1  0  0  0  0
M  END
$$$$
default_name
  -OEChem-01062215323D

 22 21  0     1  0  0  0  0  0999 V2000
   -2.5423   -3.6749    0.8058 H   0  0  0  0  0  0  0  0  0  0  0  0
   -2.5063   -2.6779    0.3688 C   0  0  0  0  0  0  0  0  0  0  0  0
   -3.1603   -2.0109    0.9268 H   0  0  0  0  0  0  0  0  0  0  0  0
   -2.8193   -2.7229   -0.6722 H   0  0  0  0  0  0  0  0  0  0  0  0
   -1.0873   -2.1629    0.4418 C   0  0  0  0  0  0  0  0  0  0  0  0
   -0.2073   -2.8549    0.9368 O   0  0  0  0  0  0  0  0  0  0  0  0
   -0.8713   -0.9449   -0.0482 N   0  0  0  0  0  0  0  0  0  0  0  0
   -1.6543   -0.4189   -0.4062 H   0  0  0  0  0  0  0  0  0  0  0  0
    0.4237   -0.2649   -0.0462 C   0  0  1  0  0  0  0  0  0  0  0  0
    1.0644   -0.7242   -0.8008 H   0  0  0  0  0  0  0  0  0  0  0  0
    0.2125    1.2108   -0.4180 C   0  0  0  0  0  0  0  0  0  0  0  0
   -0.4299    1.6919    0.3213 H   0  0  0  0  0  0  0  0  0  0  0  0
    1.1707    1.7283   -0.4507 H   0  0  0  0  0  0  0  0  0  0  0  0
   -0.2568    1.2797   -1.4008 H   0  0  0  0  0  0  0  0  0  0  0  0
    1.1220   -0.4095    1.3201 C   0  0  0  0  0  0  0  0  0  0  0  0
    0.4867   -0.7719    2.3100 O   0  0  0  0  0  0  0  0  0  0  0  0
    2.4262   -0.1105    1.3712 N   0  0  0  0  0  0  0  0  0  0  0  0
    2.8766    0.1844    0.5196 H   0  0  0  0  0  0  0  0  0  0  0  0
    3.2342   -0.1853    2.5875 C   0  0  0  0  0  0  0  0  0  0  0  0
    3.1604   -1.1861    3.0177 H   0  0  0  0  0  0  0  0  0  0  0  0
    4.2794    0.0326    2.3633 H   0  0  0  0  0  0  0  0  0  0  0  0
    2.8643    0.5345    3.3197 H   0  0  0  0  0  0  0  0  0  0  0  0
  5  6  2  0  0  0  0
  5  7  1  0  0  0  0
  2  3  1  0  0  0  0
  2  4  1  0  0  0  0
  2  5  1  0  0  0  0
  1  2  1  0  0  0  0
 15 16  2  0  0  0  0
 15 17  1  0  0  0  0
 11 12  1  0  0  0  0
 11 13  1  0  0  0  0
 11 14  1  0  0  0  0
  9 10  1  0  0  0  0
  9 11  1  0  0  0  0
  9 15  1  0  0  0  0
  7  8  1  0  0  0  0
  7  9  1  0  0  0  0
 19 20  1  0  0  0  0
 19 21  1  0  0  0  0
 19 22  1  0  0  0  0
 17 18  1  0  0  0  0
 17 19  1  0  0  0  0
M  END
$$$$
default_name
  -OEChem-01062215323D

 22 21  0     1  0  0  0  0  0999 V2000
   -2.5423   -3.6749    0.8058 H   0  0  0  0  0  0  0  0  0  0  0  0
   -2.5063   -2.6779    0.3688 C   0  0  0  0  0  0  0  0  0  0  0  0
   -3.1603   -2.0109    0.9268 H   0  0  0  0  0  0  0  0  0  0  0  0
   -2.8193   -2.7229   -0.6722 H   0  0  0  0  0  0  0  0  0  0  0  0
   -1.0873   -2.1629    0.4418 C   0  0  0  0  0  0  0  0  0  0  0  0
   -0.2073   -2.8549    0.9368 O   0  0  0  0  0  0  0  0  0  0  0  0
   -0.8713   -0.9449   -0.0482 N   0  0  0  0  0  0  0  0  0  0  0  0
   -1.6543   -0.4189   -0.4062 H   0  0  0  0  0  0  0  0  0  0  0  0
    0.4237   -0.2649   -0.0462 C   0  0  1  0  0  0  0  0  0  0  0  0
    0.9626   -0.5298   -0.9574 H   0  0  0  0  0  0  0  0  0  0  0  0
    0.1895    1.2536   -0.0417 C   0  0  0  0  0  0  0  0  0  0  0  0
   -0.3526    1.5432    0.8599 H   0  0  0  0  0  0  0  0  0  0  0  0
    1.1438    1.7785   -0.0700 H   0  0  0  0  0  0  0  0  0  0  0  0
   -0.3937    1.5391   -0.9188 H   0  0  0  0  0  0  0  0  0  0  0  0
    1.2793   -0.7086    1.1564 C   0  0  0  0  0  0  0  0  0  0  0  0
    0.8405   -1.5241    1.9671 O   0  0  0  0  0  0  0  0  0  0  0  0
    2.4940   -0.1576    1.2750 N   0  0  0  0  0  0  0  0  0  0  0  0
    2.7814    0.5068    0.5742 H   0  0  0  0  0  0  0  0  0  0  0  0
    3.4262   -0.4612    2.3597 C   0  0  0  0  0  0  0  0  0  0  0  0
    3.6029   -1.5378    2.4030 H   0  0  0  0  0  0  0  0  0  0  0  0
    4.3754    0.0520    2.1997 H   0  0  0  0  0  0  0  0  0  0  0  0
    2.9991   -0.1418    3.3119 H   0  0  0  0  0  0  0  0  0  0  0  0
  5  6  2  0  0  0  0
  5  7  1  0  0  0  0
  2  3  1  0  0  0  0
  2  4  1  0  0  0  0
  2  5  1  0  0  0  0
  1  2  1  0  0  0  0
 15 16  2  0  0  0  0
 15 17  1  0  0  0  0
 11 12  1  0  0  0  0
 11 13  1  0  0  0  0
 11 14  1  0  0  0  0
  9 10  1  0  0  0  0
  9 11  1  0  0  0  0
  9 15  1  0  0  0  0
  7  8  1  0  0  0  0
  7  9  1  0  0  0  0
 19 20  1  0  0  0  0
 19 21  1  0  0  0  0
 19 22  1  0  0  0  0
 17 18  1  0  0  0  0
 17 19  1  0  0  0  0
M  END
$$$$
default_name
  -OEChem-01062215323D

 22 21  0     1  0  0  0  0  0999 V2000
   -2.5423   -3.6749    0.8058 H   0  0  0  0  0  0  0  0  0  0  0  0
   -2.5063   -2.6779    0.3688 C   0  0  0  0  0  0  0  0  0  0  0  0
   -3.1603   -2.0109    0.9268 H   0  0  0  0  0  0  0  0  0  0  0  0
   -2.8193   -2.7229   -0.6722 H   0  0  0  0  0  0  0  0  0  0  0  0
   -1.0873   -2.1629    0.4418 C   0  0  0  0  0  0  0  0  0  0  0  0
   -0.2073   -2.8549    0.9368 O   0  0  0  0  0  0  0  0  0  0  0  0
   -0.8713   -0.9449   -0.0482 N   0  0  0  0  0  0  0  0  0  0  0  0
   -1.6543   -0.4189   -0.4062 H   0  0  0  0  0  0  0  0  0  0  0  0
    0.4237   -0.2649   -0.0462 C   0  0  1  0  0  0  0  0  0  0  0  0
    0.9626   -0.5298   -0.9574 H   0  0  0  0  0  0  0  0  0  0  0  0
    0.1895    1.2536   -0.0417 C   0  0  0  0  0  0  0  0  0  0  0  0
   -0.3526    1.5432    0.8599 H   0  0  0  0  0  0  0  0  0  0  0  0
    1.1438    1.7785   -0.0700 H   0  0  0  0  0  0  0  0  0  0  0  0
   -0.3937    1.5391   -0.9188 H   0  0  0  0  0  0  0  0  0  0  0  0
    1.2793   -0.7086    1.1564 C   0  0  0  0  0  0  0  0  0  0  0  0
    0.9715   -1.7076    1.8062 O   0  0  0  0  0  0  0  0  0  0  0  0
    2.3440    0.0459    1.4568 N   0  0  0  0  0  0  0  0  0  0  0  0
    2.5287    0.8521    0.8814 H   0  0  0  0  0  0  0  0  0  0  0  0
    3.2524   -0.2292    2.5690 C   0  0  0  0  0  0  0  0  0  0  0  0
    3.6456   -1.2439    2.4810 H   0  0  0  0  0  0  0  0  0  0  0  0
    4.0823    0.4788    2.5656 H   0  0  0  0  0  0  0  0  0  0  0  0
    2.7122   -0.1478    3.5138 H   0  0  0  0  0  0  0  0  0  0  0  0
  5  6  2  0  0  0  0
  5  7  1  0  0  0  0
  2  3  1  0  0  0  0
  2  4  1  0  0  0  0
  2  5  1  0  0  0  0
  1  2  1  0  0  0  0
 15 16  2  0  0  0  0
 15 17  1  0  0  0  0
 11 12  1  0  0  0  0
 11 13  1  0  0  0  0
 11 14  1  0  0  0  0
  9 10  1  0  0  0  0
  9 11  1  0  0  0  0
  9 15  1  0  0  0  0
  7  8  1  0  0  0  0
  7  9  1  0  0  0  0
 19 20  1  0  0  0  0
 19 21  1  0  0  0  0
 19 22  1  0  0  0  0
 17 18  1  0  0  0  0
 17 19  1  0  0  0  0
M  END
$$$$
default_name
  -OEChem-01062215323D

 22 21  0     1  0  0  0  0  0999 V2000
   -2.5423   -3.6749    0.8058 H   0  0  0  0  0  0  0  0  0  0  0  0
   -2.5063   -2.6779    0.3688 C   0  0  0  0  0  0  0  0  0  0  0  0
   -3.1603   -2.0109    0.9268 H   0  0  0  0  0  0  0  0  0  0  0  0
   -2.8193   -2.7229   -0.6722 H   0  0  0  0  0  0  0  0  0  0  0  0
   -1.0873   -2.1629    0.4418 C   0  0  0  0  0  0  0  0  0  0  0  0
   -0.2073   -2.8549    0.9368 O   0  0  0  0  0  0  0  0  0  0  0  0
   -0.8713   -0.9449   -0.0482 N   0  0  0  0  0  0  0  0  0  0  0  0
   -1.6543   -0.4189   -0.4062 H   0  0  0  0  0  0  0  0  0  0  0  0
    0.4237   -0.2649   -0.0462 C   0  0  1  0  0  0  0  0  0  0  0  0
    0.9626   -0.5298   -0.9574 H   0  0  0  0  0  0  0  0  0  0  0  0
    0.1895    1.2536   -0.0417 C   0  0  0  0  0  0  0  0  0  0  0  0
   -0.3526    1.5432    0.8599 H   0  0  0  0  0  0  0  0  0  0  0  0
    1.1438    1.7785   -0.0700 H   0  0  0  0  0  0  0  0  0  0  0  0
   -0.3937    1.5391   -0.9188 H   0  0  0  0  0  0  0  0  0  0  0  0
    1.2793   -0.7086    1.1564 C   0  0  0  0  0  0  0  0  0  0  0  0
    1.1471   -1.8352    1.6341 O   0  0  0  0  0  0  0  0  0  0  0  0
    2.1444    0.1861    1.6505 N   0  0  0  0  0  0  0  0  0  0  0  0
    2.1919    1.0904    1.2089 H   0  0  0  0  0  0  0  0  0  0  0  0
    3.0220   -0.0702    2.7916 C   0  0  0  0  0  0  0  0  0  0  0  0
    3.6217   -0.9627    2.6018 H   0  0  0  0  0  0  0  0  0  0  0  0
    3.6858    0.7792    2.9586 H   0  0  0  0  0  0  0  0  0  0  0  0
    2.4212   -0.2405    3.6866 H   0  0  0  0  0  0  0  0  0  0  0  0
  5  6  2  0  0  0  0
  5  7  1  0  0  0  0
  2  3  1  0  0  0  0
  2  4  1  0  0  0  0
  2  5  1  0  0  0  0
  1  2  1  0  0  0  0
 15 16  2  0  0  0  0
 15 17  1  0  0  0  0
 11 12  1  0  0  0  0
 11 13  1  0  0  0  0
 11 14  1  0  0  0  0
  9 10  1  0  0  0  0
  9 11  1  0  0  0  0
  9 15  1  0  0  0  0
  7  8  1  0  0  0  0
  7  9  1  0  0  0  0
 19 20  1  0  0  0  0
 19 21  1  0  0  0  0
 19 22  1  0  0  0  0
 17 18  1  0  0  0  0
 17 19  1  0  0  0  0
M  END
$$$$
default_name
  -OEChem-01062215323D

 22 21  0     1  0  0  0  0  0999 V2000
   -2.5423   -3.6749    0.8058 H   0  0  0  0  0  0  0  0  0  0  0  0
   -2.5063   -2.6779    0.3688 C   0  0  0  0  0  0  0  0  0  0  0  0
   -3.1603   -2.0109    0.9268 H   0  0  0  0  0  0  0  0  0  0  0  0
   -2.8193   -2.7229   -0.6722 H   0  0  0  0  0  0  0  0  0  0  0  0
   -1.0873   -2.1629    0.4418 C   0  0  0  0  0  0  0  0  0  0  0  0
   -0.2073   -2.8549    0.9368 O   0  0  0  0  0  0  0  0  0  0  0  0
   -0.8713   -0.9449   -0.0482 N   0  0  0  0  0  0  0  0  0  0  0  0
   -1.6543   -0.4189   -0.4062 H   0  0  0  0  0  0  0  0  0  0  0  0
    0.4237   -0.2649   -0.0462 C   0  0  1  0  0  0  0  0  0  0  0  0
    0.9626   -0.5298   -0.9574 H   0  0  0  0  0  0  0  0  0  0  0  0
    0.1895    1.2536   -0.0417 C   0  0  0  0  0  0  0  0  0  0  0  0
   -0.3526    1.5432    0.8599 H   0  0  0  0  0  0  0  0  0  0  0  0
    1.1438    1.7785   -0.0700 H   0  0  0  0  0  0  0  0  0  0  0  0
   -0.3937    1.5391   -0.9188 H   0  0  0  0  0  0  0  0  0  0  0  0
    1.2793   -0.7086    1.1564 C   0  0  0  0  0  0  0  0  0  0  0  0
    1.3553   -1.8983    1.4627 O   0  0  0  0  0  0  0  0  0  0  0  0
    1.9089    0.2534    1.8428 N   0  0  0  0  0  0  0  0  0  0  0  0
    1.7942    1.2056    1.5344 H   0  0  0  0  0  0  0  0  0  0  0  0
    2.7508    0.0048    3.0122 C   0  0  0  0  0  0  0  0  0  0  0  0
    3.5328   -0.7132    2.7571 H   0  0  0  0  0  0  0  0  0  0  0  0
    3.2127    0.9329    3.3519 H   0  0  0  0  0  0  0  0  0  0  0  0
    2.1460   -0.4137    3.8185 H   0  0  0  0  0  0  0  0  0  0  0  0
  5  6  2  0  0  0  0
  5  7  1  0  0  0  0
  2  3  1  0  0  0  0
  2  4  1  0  0  0  0
  2  5  1  0  0  0  0
  1  2  1  0  0  0  0
 15 16  2  0  0  0  0
 15 17  1  0  0  0  0
 11 12  1  0  0  0  0
 11 13  1  0  0  0  0
 11 14  1  0  0  0  0
  9 10  1  0  0  0  0
  9 11  1  0  0  0  0
  9 15  1  0  0  0  0
  7  8  1  0  0  0  0
  7  9  1  0  0  0  0
 19 20  1  0  0  0  0
 19 21  1  0  0  0  0
 19 22  1  0  0  0  0
 17 18  1  0  0  0  0
 17 19  1  0  0  0  0
M  END
$$$$
default_name
  -OEChem-01062215323D

 22 21  0     1  0  0  0  0  0999 V2000
   -2.5423   -3.6749    0.8058 H   0  0  0  0  0  0  0  0  0  0  0  0
   -2.5063   -2.6779    0.3688 C   0  0  0  0  0  0  0  0  0  0  0  0
   -3.1603   -2.0109    0.9268 H   0  0  0  0  0  0  0  0  0  0  0  0
   -2.8193   -2.7229   -0.6722 H   0  0  0  0  0  0  0  0  0  0  0  0
   -1.0873   -2.1629    0.4418 C   0  0  0  0  0  0  0  0  0  0  0  0
   -0.2073   -2.8549    0.9368 O   0  0  0  0  0  0  0  0  0  0  0  0
   -0.8713   -0.9449   -0.0482 N   0  0  0  0  0  0  0  0  0  0  0  0
   -1.6543   -0.4189   -0.4062 H   0  0  0  0  0  0  0  0  0  0  0  0
    0.4237   -0.2649   -0.0462 C   0  0  1  0  0  0  0  0  0  0  0  0
    0.9626   -0.5298   -0.9574 H   0  0  0  0  0  0  0  0  0  0  0  0
    0.1895    1.2536   -0.0417 C   0  0  0  0  0  0  0  0  0  0  0  0
   -0.3526    1.5432    0.8599 H   0  0  0  0  0  0  0  0  0  0  0  0
    1.1438    1.7785   -0.0700 H   0  0  0  0  0  0  0  0  0  0  0  0
   -0.3937    1.5391   -0.9188 H   0  0  0  0  0  0  0  0  0  0  0  0
    1.2793   -0.7086    1.1564 C   0  0  0  0  0  0  0  0  0  0  0  0
    1.5820   -1.8925    1.3036 O   0  0  0  0  0  0  0  0  0  0  0  0
    1.6535    0.2431    2.0208 N   0  0  0  0  0  0  0  0  0  0  0  0
    1.3624    1.1897    1.8357 H   0  0  0  0  0  0  0  0  0  0  0  0
    2.4572   -0.0092    3.2159 C   0  0  0  0  0  0  0  0  0  0  0  0
    3.3850   -0.5125    2.9364 H   0  0  0  0  0  0  0  0  0  0  0  0
    2.6955    0.9293    3.7185 H   0  0  0  0  0  0  0  0  0  0  0  0
    1.9054   -0.6555    3.9005 H   0  0  0  0  0  0  0  0  0  0  0  0
  5  6  2  0  0  0  0
  5  7  1  0  0  0  0
  2  3  1  0  0  0  0
  2  4  1  0  0  0  0
  2  5  1  0  0  0  0
  1  2  1  0  0  0  0
 15 16  2  0  0  0  0
 15 17  1  0  0  0  0
 11 12  1  0  0  0  0
 11 13  1  0  0  0  0
 11 14  1  0  0  0  0
  9 10  1  0  0  0  0
  9 11  1  0  0  0  0
  9 15  1  0  0  0  0
  7  8  1  0  0  0  0
  7  9  1  0  0  0  0
 19 20  1  0  0  0  0
 19 21  1  0  0  0  0
 19 22  1  0  0  0  0
 17 18  1  0  0  0  0
 17 19  1  0  0  0  0
M  END
$$$$
default_name
  -OEChem-01062215323D

 22 21  0     1  0  0  0  0  0999 V2000
   -2.5423   -3.6749    0.8058 H   0  0  0  0  0  0  0  0  0  0  0  0
   -2.5063   -2.6779    0.3688 C   0  0  0  0  0  0  0  0  0  0  0  0
   -3.1603   -2.0109    0.9268 H   0  0  0  0  0  0  0  0  0  0  0  0
   -2.8193   -2.7229   -0.6722 H   0  0  0  0  0  0  0  0  0  0  0  0
   -1.0873   -2.1629    0.4418 C   0  0  0  0  0  0  0  0  0  0  0  0
   -0.2073   -2.8549    0.9368 O   0  0  0  0  0  0  0  0  0  0  0  0
   -0.8713   -0.9449   -0.0482 N   0  0  0  0  0  0  0  0  0  0  0  0
   -1.6543   -0.4189   -0.4062 H   0  0  0  0  0  0  0  0  0  0  0  0
    0.4237   -0.2649   -0.0462 C   0  0  1  0  0  0  0  0  0  0  0  0
    0.9626   -0.5298   -0.9574 H   0  0  0  0  0  0  0  0  0  0  0  0
    0.1895    1.2536   -0.0417 C   0  0  0  0  0  0  0  0  0  0  0  0
   -0.3526    1.5432    0.8599 H   0  0  0  0  0  0  0  0  0  0  0  0
    1.1438    1.7785   -0.0700 H   0  0  0  0  0  0  0  0  0  0  0  0
   -0.3937    1.5391   -0.9188 H   0  0  0  0  0  0  0  0  0  0  0  0
    1.2793   -0.7086    1.1564 C   0  0  0  0  0  0  0  0  0  0  0  0
    1.8116   -1.8183    1.1676 O   0  0  0  0  0  0  0  0  0  0  0  0
    1.3957    0.1561    2.1721 N   0  0  0  0  0  0  0  0  0  0  0  0
    0.9261    1.0439    2.0923 H   0  0  0  0  0  0  0  0  0  0  0  0
    2.1613   -0.1113    3.3887 C   0  0  0  0  0  0  0  0  0  0  0  0
    3.1883   -0.3742    3.1273 H   0  0  0  0  0  0  0  0  0  0  0  0
    2.1693    0.7686    4.0336 H   0  0  0  0  0  0  0  0  0  0  0  0
    1.7156   -0.9494    3.9271 H   0  0  0  0  0  0  0  0  0  0  0  0
  5  6  2  0  0  0  0
  5  7  1  0  0  0  0
  2  3  1  0  0  0  0
  2  4  1  0  0  0  0
  2  5  1  0  0  0  0
  1  2  1  0  0  0  0
 15 16  2  0  0  0  0
 15 17  1  0  0  0  0
 11 12  1  0  0  0  0
 11 13  1  0  0  0  0
 11 14  1  0  0  0  0
  9 10  1  0  0  0  0
  9 11  1  0  0  0  0
  9 15  1  0  0  0  0
  7  8  1  0  0  0  0
  7  9  1  0  0  0  0
 19 20  1  0  0  0  0
 19 21  1  0  0  0  0
 19 22  1  0  0  0  0
 17 18  1  0  0  0  0
 17 19  1  0  0  0  0
M  END
$$$$
default_name
  -OEChem-01062215323D

 22 21  0     1  0  0  0  0  0999 V2000
   -2.5423   -3.6749    0.8058 H   0  0  0  0  0  0  0  0  0  0  0  0
   -2.5063   -2.6779    0.3688 C   0  0  0  0  0  0  0  0  0  0  0  0
   -3.1603   -2.0109    0.9268 H   0  0  0  0  0  0  0  0  0  0  0  0
   -2.8193   -2.7229   -0.6722 H   0  0  0  0  0  0  0  0  0  0  0  0
   -1.0873   -2.1629    0.4418 C   0  0  0  0  0  0  0  0  0  0  0  0
   -0.2073   -2.8549    0.9368 O   0  0  0  0  0  0  0  0  0  0  0  0
   -0.8713   -0.9449   -0.0482 N   0  0  0  0  0  0  0  0  0  0  0  0
   -1.6543   -0.4189   -0.4062 H   0  0  0  0  0  0  0  0  0  0  0  0
    0.4237   -0.2649   -0.0462 C   0  0  1  0  0  0  0  0  0  0  0  0
    0.9626   -0.5298   -0.9574 H   0  0  0  0  0  0  0  0  0  0  0  0
    0.1895    1.2536   -0.0417 C   0  0  0  0  0  0  0  0  0  0  0  0
   -0.3526    1.5432    0.8599 H   0  0  0  0  0  0  0  0  0  0  0  0
    1.1438    1.7785   -0.0700 H   0  0  0  0  0  0  0  0  0  0  0  0
   -0.3937    1.5391   -0.9188 H   0  0  0  0  0  0  0  0  0  0  0  0
    1.2793   -0.7086    1.1564 C   0  0  0  0  0  0  0  0  0  0  0  0
    2.0285   -1.6808    1.0640 O   0  0  0  0  0  0  0  0  0  0  0  0
    1.1529   -0.0018    2.2866 N   0  0  0  0  0  0  0  0  0  0  0  0
    0.5150    0.7781    2.2867 H   0  0  0  0  0  0  0  0  0  0  0  0
    1.8832   -0.2944    3.5190 C   0  0  0  0  0  0  0  0  0  0  0  0
    2.9561   -0.3078    3.3170 H   0  0  0  0  0  0  0  0  0  0  0  0
    1.6700    0.4619    4.2757 H   0  0  0  0  0  0  0  0  0  0  0  0
    1.5897   -1.2755    3.8964 H   0  0  0  0  0  0  0  0  0  0  0  0
  5  6  2  0  0  0  0
  5  7  1  0  0  0  0
  2  3  1  0  0  0  0
  2  4  1  0  0  0  0
  2  5  1  0  0  0  0
  1  2  1  0  0  0  0
 15 16  2  0  0  0  0
 15 17  1  0  0  0  0
 11 12  1  0  0  0  0
 11 13  1  0  0  0  0
 11 14  1  0  0  0  0
  9 10  1  0  0  0  0
  9 11  1  0  0  0  0
  9 15  1  0  0  0  0
  7  8  1  0  0  0  0
  7  9  1  0  0  0  0
 19 20  1  0  0  0  0
 19 21  1  0  0  0  0
 19 22  1  0  0  0  0
 17 18  1  0  0  0  0
 17 19  1  0  0  0  0
M  END
$$$$
default_name
  -OEChem-01062215323D

 22 21  0     1  0  0  0  0  0999 V2000
   -2.5423   -3.6749    0.8058 H   0  0  0  0  0  0  0  0  0  0  0  0
   -2.5063   -2.6779    0.3688 C   0  0  0  0  0  0  0  0  0  0  0  0
   -3.1603   -2.0109    0.9268 H   0  0  0  0  0  0  0  0  0  0  0  0
   -2.8193   -2.7229   -0.6722 H   0  0  0  0  0  0  0  0  0  0  0  0
   -1.0873   -2.1629    0.4418 C   0  0  0  0  0  0  0  0  0  0  0  0
   -0.2073   -2.8549    0.9368 O   0  0  0  0  0  0  0  0  0  0  0  0
   -0.8713   -0.9449   -0.0482 N   0  0  0  0  0  0  0  0  0  0  0  0
   -1.6543   -0.4189   -0.4062 H   0  0  0  0  0  0  0  0  0  0  0  0
    0.4237   -0.2649   -0.0462 C   0  0  1  0  0  0  0  0  0  0  0  0
    0.9626   -0.5298   -0.9574 H   0  0  0  0  0  0  0  0  0  0  0  0
    0.1895    1.2536   -0.0417 C   0  0  0  0  0  0  0  0  0  0  0  0
   -0.3526    1.5432    0.8599 H   0  0  0  0  0  0  0  0  0  0  0  0
    1.1438    1.7785   -0.0700 H   0  0  0  0  0  0  0  0  0  0  0  0
   -0.3937    1.5391   -0.9188 H   0  0  0  0  0  0  0  0  0  0  0  0
    1.2793   -0.7086    1.1564 C   0  0  0  0  0  0  0  0  0  0  0  0
    2.2180   -1.4892    0.9999 O   0  0  0  0  0  0  0  0  0  0  0  0
    0.9417   -0.2198    2.3564 N   0  0  0  0  0  0  0  0  0  0  0  0
    0.1572    0.4103    2.4057 H   0  0  0  0  0  0  0  0  0  0  0  0
    1.6419   -0.5463    3.5978 C   0  0  0  0  0  0  0  0  0  0  0  0
    2.7044   -0.3178    3.4924 H   0  0  0  0  0  0  0  0  0  0  0  0
    1.2316    0.0300    4.4282 H   0  0  0  0  0  0  0  0  0  0  0  0
    1.5362   -1.6115    3.8104 H   0  0  0  0  0  0  0  0  0  0  0  0
  5  6  2  0  0  0  0
  5  7  1  0  0  0  0
  2  3  1  0  0  0  0
  2  4  1  0  0  0  0
  2  5  1  0  0  0  0
  1  2  1  0  0  0  0
 15 16  2  0  0  0  0
 15 17  1  0  0  0  0
 11 12  1  0  0  0  0
 11 13  1  0  0  0  0
 11 14  1  0  0  0  0
  9 10  1  0  0  0  0
  9 11  1  0  0  0  0
  9 15  1  0  0  0  0
  7  8  1  0  0  0  0
  7  9  1  0  0  0  0
 19 20  1  0  0  0  0
 19 21  1  0  0  0  0
 19 22  1  0  0  0  0
 17 18  1  0  0  0  0
 17 19  1  0  0  0  0
M  END
$$$$
default_name
  -OEChem-01062215323D

 22 21  0     1  0  0  0  0  0999 V2000
   -2.5423   -3.6749    0.8058 H   0  0  0  0  0  0  0  0  0  0  0  0
   -2.5063   -2.6779    0.3688 C   0  0  0  0  0  0  0  0  0  0  0  0
   -3.1603   -2.0109    0.9268 H   0  0  0  0  0  0  0  0  0  0  0  0
   -2.8193   -2.7229   -0.6722 H   0  0  0  0  0  0  0  0  0  0  0  0
   -1.0873   -2.1629    0.4418 C   0  0  0  0  0  0  0  0  0  0  0  0
   -0.2073   -2.8549    0.9368 O   0  0  0  0  0  0  0  0  0  0  0  0
   -0.8713   -0.9449   -0.0482 N   0  0  0  0  0  0  0  0  0  0  0  0
   -1.6543   -0.4189   -0.4062 H   0  0  0  0  0  0  0  0  0  0  0  0
    0.4237   -0.2649   -0.0462 C   0  0  1  0  0  0  0  0  0  0  0  0
    0.9626   -0.5298   -0.9574 H   0  0  0  0  0  0  0  0  0  0  0  0
    0.1895    1.2536   -0.0417 C   0  0  0  0  0  0  0  0  0  0  0  0
   -0.3526    1.5432    0.8599 H   0  0  0  0  0  0  0  0  0  0  0  0
    1.1438    1.7785   -0.0700 H   0  0  0  0  0  0  0  0  0  0  0  0
   -0.3937    1.5391   -0.9188 H   0  0  0  0  0  0  0  0  0  0  0  0
    1.2793   -0.7086    1.1564 C   0  0  0  0  0  0  0  0  0  0  0  0
    2.3671   -1.2566    0.9796 O   0  0  0  0  0  0  0  0  0  0  0  0
    0.7766   -0.4830    2.3768 N   0  0  0  0  0  0  0  0  0  0  0  0
   -0.1231   -0.0342    2.4411 H   0  0  0  0  0  0  0  0  0  0  0  0
    1.4538   -0.8496    3.6197 C   0  0  0  0  0  0  0  0  0  0  0  0
    2.4501   -0.4035    3.6417 H   0  0  0  0  0  0  0  0  0  0  0  0
    0.8840   -0.4976    4.4808 H   0  0  0  0  0  0  0  0  0  0  0  0
    1.5588   -1.9345    3.6752 H   0  0  0  0  0  0  0  0  0  0  0  0
  5  6  2  0  0  0  0
  5  7  1  0  0  0  0
  2  3  1  0  0  0  0
  2  4  1  0  0  0  0
  2  5  1  0  0  0  0
  1  2  1  0  0  0  0
 15 16  2  0  0  0  0
 15 17  1  0  0  0  0
 11 12  1  0  0  0  0
 11 13  1  0  0  0  0
 11 14  1  0  0  0  0
  9 10  1  0  0  0  0
  9 11  1  0  0  0  0
  9 15  1  0  0  0  0
  7  8  1  0  0  0  0
  7  9  1  0  0  0  0
 19 20  1  0  0  0  0
 19 21  1  0  0  0  0
 19 22  1  0  0  0  0
 17 18  1  0  0  0  0
 17 19  1  0  0  0  0
M  END
$$$$
default_name
  -OEChem-01062215323D

 22 21  0     1  0  0  0  0  0999 V2000
   -2.5423   -3.6749    0.8058 H   0  0  0  0  0  0  0  0  0  0  0  0
   -2.5063   -2.6779    0.3688 C   0  0  0  0  0  0  0  0  0  0  0  0
   -3.1603   -2.0109    0.9268 H   0  0  0  0  0  0  0  0  0  0  0  0
   -2.8193   -2.7229   -0.6722 H   0  0  0  0  0  0  0  0  0  0  0  0
   -1.0873   -2.1629    0.4418 C   0  0  0  0  0  0  0  0  0  0  0  0
   -0.2073   -2.8549    0.9368 O   0  0  0  0  0  0  0  0  0  0  0  0
   -0.8713   -0.9449   -0.0482 N   0  0  0  0  0  0  0  0  0  0  0  0
   -1.6543   -0.4189   -0.4062 H   0  0  0  0  0  0  0  0  0  0  0  0
    0.4237   -0.2649   -0.0462 C   0  0  1  0  0  0  0  0  0  0  0  0
    0.9626   -0.5298   -0.9574 H   0  0  0  0  0  0  0  0  0  0  0  0
    0.1895    1.2536   -0.0417 C   0  0  0  0  0  0  0  0  0  0  0  0
   -0.3526    1.5432    0.8599 H   0  0  0  0  0  0  0  0  0  0  0  0
    1.1438    1.7785   -0.0700 H   0  0  0  0  0  0  0  0  0  0  0  0
   -0.3937    1.5391   -0.9188 H   0  0  0  0  0  0  0  0  0  0  0  0
    1.2793   -0.7086    1.1564 C   0  0  0  0  0  0  0  0  0  0  0  0
    2.4657   -0.9990    1.0045 O   0  0  0  0  0  0  0  0  0  0  0  0
    0.6687   -0.7736    2.3463 N   0  0  0  0  0  0  0  0  0  0  0  0
   -0.3067   -0.5253    2.3905 H   0  0  0  0  0  0  0  0  0  0  0  0
    1.3317   -1.1837    3.5833 C   0  0  0  0  0  0  0  0  0  0  0  0
    2.2107   -0.5591    3.7546 H   0  0  0  0  0  0  0  0  0  0  0  0
    0.6509   -1.0850    4.4299 H   0  0  0  0  0  0  0  0  0  0  0  0
    1.6560   -2.2224    3.4998 H   0  0  0  0  0  0  0  0  0  0  0  0
  5  6  2  0  0  0  0
  5  7  1  0  0  0  0
  2  3  1  0  0  0  0
  2  4  1  0  0  0  0
  2  5  1  0  0  0  0
  1  2  1  0  0  0  0
 15 16  2  0  0  0  0
 15 17  1  0  0  0  0
 11 12  1  0  0  0  0
 11 13  1  0  0  0  0
 11 14  1  0  0  0  0
  9 10  1  0  0  0  0
  9 11  1  0  0  0  0
  9 15  1  0  0  0  0
  7  8  1  0  0  0  0
  7  9  1  0  0  0  0
 19 20  1  0  0  0  0
 19 21  1  0  0  0  0
 19 22  1  0  0  0  0
 17 18  1  0  0  0  0
 17 19  1  0  0  0  0
M  END
$$$$
default_name
  -OEChem-01062215323D

 22 21  0     1  0  0  0  0  0999 V2000
   -2.5423   -3.6749    0.8058 H   0  0  0  0  0  0  0  0  0  0  0  0
   -2.5063   -2.6779    0.3688 C   0  0  0  0  0  0  0  0  0  0  0  0
   -3.1603   -2.0109    0.9268 H   0  0  0  0  0  0  0  0  0  0  0  0
   -2.8193   -2.7229   -0.6722 H   0  0  0  0  0  0  0  0  0  0  0  0
   -1.0873   -2.1629    0.4418 C   0  0  0  0  0  0  0  0  0  0  0  0
   -0.2073   -2.8549    0.9368 O   0  0  0  0  0  0  0  0  0  0  0  0
   -0.8713   -0.9449   -0.0482 N   0  0  0  0  0  0  0  0  0  0  0  0
   -1.6543   -0.4189   -0.4062 H   0  0  0  0  0  0  0  0  0  0  0  0
    0.4237   -0.2649   -0.0462 C   0  0  1  0  0  0  0  0  0  0  0  0
    0.9626   -0.5298   -0.9574 H   0  0  0  0  0  0  0  0  0  0  0  0
    0.1895    1.2536   -0.0417 C   0  0  0  0  0  0  0  0  0  0  0  0
   -0.3526    1.5432    0.8599 H   0  0  0  0  0  0  0  0  0  0  0  0
    1.1438    1.7785   -0.0700 H   0  0  0  0  0  0  0  0  0  0  0  0
   -0.3937    1.5391   -0.9188 H   0  0  0  0  0  0  0  0  0  0  0  0
    1.2793   -0.7086    1.1564 C   0  0  0  0  0  0  0  0  0  0  0  0
    2.5071   -0.7338    1.0730 O   0  0  0  0  0  0  0  0  0  0  0  0
    0.6254   -1.0716    2.2671 N   0  0  0  0  0  0  0  0  0  0  0  0
   -0.3811   -1.0295    2.2574 H   0  0  0  0  0  0  0  0  0  0  0  0
    1.2840   -1.5259    3.4910 C   0  0  0  0  0  0  0  0  0  0  0  0
    2.0025   -0.7740    3.8235 H   0  0  0  0  0  0  0  0  0  0  0  0
    0.5482   -1.6922    4.2790 H   0  0  0  0  0  0  0  0  0  0  0  0
    1.8210   -2.4558    3.2963 H   0  0  0  0  0  0  0  0  0  0  0  0
  5  6  2  0  0  0  0
  5  7  1  0  0  0  0
  2  3  1  0  0  0  0
  2  4  1  0  0  0  0
  2  5  1  0  0  0  0
  1  2  1  0  0  0  0
 15 16  2  0  0  0  0
 15 17  1  0  0  0  0
 11 12  1  0  0  0  0
 11 13  1  0  0  0  0
 11 14  1  0  0  0  0
  9 10  1  0  0  0  0
  9 11  1  0  0  0  0
  9 15  1  0  0  0  0
  7  8  1  0  0  0  0
  7  9  1  0  0  0  0
 19 20  1  0  0  0  0
 19 21  1  0  0  0  0
 19 22  1  0  0  0  0
 17 18  1  0  0  0  0
 17 19  1  0  0  0  0
M  END
$$$$
default_name
  -OEChem-01062215323D

 22 21  0     1  0  0  0  0  0999 V2000
   -2.5423   -3.6749    0.8058 H   0  0  0  0  0  0  0  0  0  0  0  0
   -2.5063   -2.6779    0.3688 C   0  0  0  0  0  0  0  0  0  0  0  0
   -3.1603   -2.0109    0.9268 H   0  0  0  0  0  0  0  0  0  0  0  0
   -2.8193   -2.7229   -0.6722 H   0  0  0  0  0  0  0  0  0  0  0  0
   -1.0873   -2.1629    0.4418 C   0  0  0  0  0  0  0  0  0  0  0  0
   -0.2073   -2.8549    0.9368 O   0  0  0  0  0  0  0  0  0  0  0  0
   -0.8713   -0.9449   -0.0482 N   0  0  0  0  0  0  0  0  0  0  0  0
   -1.6543   -0.4189   -0.4062 H   0  0  0  0  0  0  0  0  0  0  0  0
    0.4237   -0.2649   -0.0462 C   0  0  1  0  0  0  0  0  0  0  0  0
    0.9626   -0.5298   -0.9574 H   0  0  0  0  0  0  0  0  0  0  0  0
    0.1895    1.2536   -0.0417 C   0  0  0  0  0  0  0  0  0  0  0  0
   -0.3526    1.5432    0.8599 H   0  0  0  0  0  0  0  0  0  0  0  0
    1.1438    1.7785   -0.0700 H   0  0  0  0  0  0  0  0  0  0  0  0
   -0.3937    1.5391   -0.9188 H   0  0  0  0  0  0  0  0  0  0  0  0
    1.2793   -0.7086    1.1564 C   0  0  0  0  0  0  0  0  0  0  0  0
    2.4883   -0.4791    1.1803 O   0  0  0  0  0  0  0  0  0  0  0  0
    0.6498   -1.3569    2.1446 N   0  0  0  0  0  0  0  0  0  0  0  0
   -0.3412   -1.5124    2.0508 H   0  0  0  0  0  0  0  0  0  0  0  0
    1.3139   -1.8527    3.3491 C   0  0  0  0  0  0  0  0  0  0  0  0
    1.8396   -1.0334    3.8436 H   0  0  0  0  0  0  0  0  0  0  0  0
    0.5828   -2.2777    4.0383 H   0  0  0  0  0  0  0  0  0  0  0  0
    2.0427   -2.6186    3.0785 H   0  0  0  0  0  0  0  0  0  0  0  0
  5  6  2  0  0  0  0
  5  7  1  0  0  0  0
  2  3  1  0  0  0  0
  2  4  1  0  0  0  0
  2  5  1  0  0  0  0
  1  2  1  0  0  0  0
 15 16  2  0  0  0  0
 15 17  1  0  0  0  0
 11 12  1  0  0  0  0
 11 13  1  0  0  0  0
 11 14  1  0  0  0  0
  9 10  1  0  0  0  0
  9 11  1  0  0  0  0
  9 15  1  0  0  0  0
  7  8  1  0  0  0  0
  7  9  1  0  0  0  0
 19 20  1  0  0  0  0
 19 21  1  0  0  0  0
 19 22  1  0  0  0  0
 17 18  1  0  0  0  0
 17 19  1  0  0  0  0
M  END
$$$$
default_name
  -OEChem-01062215323D

 22 21  0     1  0  0  0  0  0999 V2000
   -2.5423   -3.6749    0.8058 H   0  0  0  0  0  0  0  0  0  0  0  0
   -2.5063   -2.6779    0.3688 C   0  0  0  0  0  0  0  0  0  0  0  0
   -3.1603   -2.0109    0.9268 H   0  0  0  0  0  0  0  0  0  0  0  0
   -2.8193   -2.7229   -0.6722 H   0  0  0  0  0  0  0  0  0  0  0  0
   -1.0873   -2.1629    0.4418 C   0  0  0  0  0  0  0  0  0  0  0  0
   -0.2073   -2.8549    0.9368 O   0  0  0  0  0  0  0  0  0  0  0  0
   -0.8713   -0.9449   -0.0482 N   0  0  0  0  0  0  0  0  0  0  0  0
   -1.6543   -0.4189   -0.4062 H   0  0  0  0  0  0  0  0  0  0  0  0
    0.4237   -0.2649   -0.0462 C   0  0  1  0  0  0  0  0  0  0  0  0
    0.9626   -0.5298   -0.9574 H   0  0  0  0  0  0  0  0  0  0  0  0
    0.1895    1.2536   -0.0417 C   0  0  0  0  0  0  0  0  0  0  0  0
   -0.3526    1.5432    0.8599 H   0  0  0  0  0  0  0  0  0  0  0  0
    1.1438    1.7785   -0.0700 H   0  0  0  0  0  0  0  0  0  0  0  0
   -0.3937    1.5391   -0.9188 H   0  0  0  0  0  0  0  0  0  0  0  0
    1.2793   -0.7086    1.1564 C   0  0  0  0  0  0  0  0  0  0  0  0
    2.4108   -0.2523    1.3191 O   0  0  0  0  0  0  0  0  0  0  0  0
    0.7400   -1.6099    1.9870 N   0  0  0  0  0  0  0  0  0  0  0  0
   -0.1897   -1.9411    1.7849 H   0  0  0  0  0  0  0  0  0  0  0  0
    1.4193   -2.1420    3.1673 C   0  0  0  0  0  0  0  0  0  0  0  0
    1.7332   -1.3199    3.8136 H   0  0  0  0  0  0  0  0  0  0  0  0
    0.7525   -2.8017    3.7243 H   0  0  0  0  0  0  0  0  0  0  0  0
    2.3060   -2.6998    2.8612 H   0  0  0  0  0  0  0  0  0  0  0  0
  5  6  2  0  0  0  0
  5  7  1  0  0  0  0
  2  3  1  0  0  0  0
  2  4  1  0  0  0  0
  2  5  1  0  0  0  0
  1  2  1  0  0  0  0
 15 16  2  0  0  0  0
 15 17  1  0  0  0  0
 11 12  1  0  0  0  0
 11 13  1  0  0  0  0
 11 14  1  0  0  0  0
  9 10  1  0  0  0  0
  9 11  1  0  0  0  0
  9 15  1  0  0  0  0
  7  8  1  0  0  0  0
  7  9  1  0  0  0  0
 19 20  1  0  0  0  0
 19 21  1  0  0  0  0
 19 22  1  0  0  0  0
 17 18  1  0  0  0  0
 17 19  1  0  0  0  0
M  END
$$$$
default_name
  -OEChem-01062215323D

 22 21  0     1  0  0  0  0  0999 V2000
   -2.5423   -3.6749    0.8058 H   0  0  0  0  0  0  0  0  0  0  0  0
   -2.5063   -2.6779    0.3688 C   0  0  0  0  0  0  0  0  0  0  0  0
   -3.1603   -2.0109    0.9268 H   0  0  0  0  0  0  0  0  0  0  0  0
   -2.8193   -2.7229   -0.6722 H   0  0  0  0  0  0  0  0  0  0  0  0
   -1.0873   -2.1629    0.4418 C   0  0  0  0  0  0  0  0  0  0  0  0
   -0.2073   -2.8549    0.9368 O   0  0  0  0  0  0  0  0  0  0  0  0
   -0.8713   -0.9449   -0.0482 N   0  0  0  0  0  0  0  0  0  0  0  0
   -1.6543   -0.4189   -0.4062 H   0  0  0  0  0  0  0  0  0  0  0  0
    0.4237   -0.2649   -0.0462 C   0  0  1  0  0  0  0  0  0  0  0  0
    0.9626   -0.5298   -0.9574 H   0  0  0  0  0  0  0  0  0  0  0  0
    0.1895    1.2536   -0.0417 C   0  0  0  0  0  0  0  0  0  0  0  0
   -0.3526    1.5432    0.8599 H   0  0  0  0  0  0  0  0  0  0  0  0
    1.1438    1.7785   -0.0700 H   0  0  0  0  0  0  0  0  0  0  0  0
   -0.3937    1.5391   -0.9188 H   0  0  0  0  0  0  0  0  0  0  0  0
    1.2793   -0.7086    1.1564 C   0  0  0  0  0  0  0  0  0  0  0  0
    2.2798   -0.0689    1.4800 O   0  0  0  0  0  0  0  0  0  0  0  0
    0.8900   -1.8134    1.8052 N   0  0  0  0  0  0  0  0  0  0  0  0
    0.0630   -2.2864    1.4777 H   0  0  0  0  0  0  0  0  0  0  0  0
    1.5932   -2.3741    2.9581 C   0  0  0  0  0  0  0  0  0  0  0  0
    1.6905   -1.6137    3.7356 H   0  0  0  0  0  0  0  0  0  0  0  0
    1.0456   -3.2285    3.3583 H   0  0  0  0  0  0  0  0  0  0  0  0
    2.5929   -2.6938    2.6593 H   0  0  0  0  0  0  0  0  0  0  0  0
  5  6  2  0  0  0  0
  5  7  1  0  0  0  0
  2  3  1  0  0  0  0
  2  4  1  0  0  0  0
  2  5  1  0  0  0  0
  1  2  1  0  0  0  0
 15 16  2  0  0  0  0
 15 17  1  0  0  0  0
 11 12  1  0  0  0  0
 11 13  1  0  0  0  0
 11 14  1  0  0  0  0
  9 10  1  0  0  0  0
  9 11  1  0  0  0  0
  9 15  1  0  0  0  0
  7  8  1  0  0  0  0
  7  9  1  0  0  0  0
 19 20  1  0  0  0  0
 19 21  1  0  0  0  0
 19 22  1  0  0  0  0
 17 18  1  0  0  0  0
 17 19  1  0  0  0  0
M  END
$$$$
default_name
  -OEChem-01062215323D

 22 21  0     1  0  0  0  0  0999 V2000
   -2.5423   -3.6749    0.8058 H   0  0  0  0  0  0  0  0  0  0  0  0
   -2.5063   -2.6779    0.3688 C   0  0  0  0  0  0  0  0  0  0  0  0
   -3.1603   -2.0109    0.9268 H   0  0  0  0  0  0  0  0  0  0  0  0
   -2.8193   -2.7229   -0.6722 H   0  0  0  0  0  0  0  0  0  0  0  0
   -1.0873   -2.1629    0.4418 C   0  0  0  0  0  0  0  0  0  0  0  0
   -0.2073   -2.8549    0.9368 O   0  0  0  0  0  0  0  0  0  0  0  0
   -0.8713   -0.9449   -0.0482 N   0  0  0  0  0  0  0  0  0  0  0  0
   -1.6543   -0.4189   -0.4062 H   0  0  0  0  0  0  0  0  0  0  0  0
    0.4237   -0.2649   -0.0462 C   0  0  1  0  0  0  0  0  0  0  0  0
    0.9626   -0.5298   -0.9574 H   0  0  0  0  0  0  0  0  0  0  0  0
    0.1895    1.2536   -0.0417 C   0  0  0  0  0  0  0  0  0  0  0  0
   -0.3526    1.5432    0.8599 H   0  0  0  0  0  0  0  0  0  0  0  0
    1.1438    1.7785   -0.0700 H   0  0  0  0  0  0  0  0  0  0  0  0
   -0.3937    1.5391   -0.9188 H   0  0  0  0  0  0  0  0  0  0  0  0
    1.2793   -0.7086    1.1564 C   0  0  0  0  0  0  0  0  0  0  0  0
    2.1041    0.0588    1.6521 O   0  0  0  0  0  0  0  0  0  0  0  0
    1.0896   -1.9536    1.6115 N   0  0  0  0  0  0  0  0  0  0  0  0
    0.3997   -2.5248    1.1502 H   0  0  0  0  0  0  0  0  0  0  0  0
    1.8235   -2.5330    2.7355 C   0  0  0  0  0  0  0  0  0  0  0  0
    1.7144   -1.8950    3.6148 H   0  0  0  0  0  0  0  0  0  0  0  0
    1.4421   -3.5289    2.9653 H   0  0  0  0  0  0  0  0  0  0  0  0
    2.8839   -2.6011    2.4865 H   0  0  0  0  0  0  0  0  0  0  0  0
  5  6  2  0  0  0  0
  5  7  1  0  0  0  0
  2  3  1  0  0  0  0
  2  4  1  0  0  0  0
  2  5  1  0  0  0  0
  1  2  1  0  0  0  0
 15 16  2  0  0  0  0
 15 17  1  0  0  0  0
 11 12  1  0  0  0  0
 11 13  1  0  0  0  0
 11 14  1  0  0  0  0
  9 10  1  0  0  0  0
  9 11  1  0  0  0  0
  9 15  1  0  0  0  0
  7  8  1  0  0  0  0
  7  9  1  0  0  0  0
 19 20  1  0  0  0  0
 19 21  1  0  0  0  0
 19 22  1  0  0  0  0
 17 18  1  0  0  0  0
 17 19  1  0  0  0  0
M  END
$$$$
default_name
  -OEChem-01062215323D

 22 21  0     1  0  0  0  0  0999 V2000
   -2.5423   -3.6749    0.8058 H   0  0  0  0  0  0  0  0  0  0  0  0
   -2.5063   -2.6779    0.3688 C   0  0  0  0  0  0  0  0  0  0  0  0
   -3.1603   -2.0109    0.9268 H   0  0  0  0  0  0  0  0  0  0  0  0
   -2.8193   -2.7229   -0.6722 H   0  0  0  0  0  0  0  0  0  0  0  0
   -1.0873   -2.1629    0.4418 C   0  0  0  0  0  0  0  0  0  0  0  0
   -0.2073   -2.8549    0.9368 O   0  0  0  0  0  0  0  0  0  0  0  0
   -0.8713   -0.9449   -0.0482 N   0  0  0  0  0  0  0  0  0  0  0  0
   -1.6543   -0.4189   -0.4062 H   0  0  0  0  0  0  0  0  0  0  0  0
    0.4237   -0.2649   -0.0462 C   0  0  1  0  0  0  0  0  0  0  0  0
    0.9626   -0.5298   -0.9574 H   0  0  0  0  0  0  0  0  0  0  0  0
    0.1895    1.2536   -0.0417 C   0  0  0  0  0  0  0  0  0  0  0  0
   -0.3526    1.5432    0.8599 H   0  0  0  0  0  0  0  0  0  0  0  0
    1.1438    1.7785   -0.0700 H   0  0  0  0  0  0  0  0  0  0  0  0
   -0.3937    1.5391   -0.9188 H   0  0  0  0  0  0  0  0  0  0  0  0
    1.2793   -0.7086    1.1564 C   0  0  0  0  0  0  0  0  0  0  0  0
    1.8959    0.1218    1.8235 O   0  0  0  0  0  0  0  0  0  0  0  0
    1.3251   -2.0209    1.4191 N   0  0  0  0  0  0  0  0  0  0  0  0
    0.7975   -2.6399    0.8247 H   0  0  0  0  0  0  0  0  0  0  0  0
    2.0947   -2.6081    2.5149 C   0  0  0  0  0  0  0  0  0  0  0  0
    1.8033   -2.1445    3.4595 H   0  0  0  0  0  0  0  0  0  0  0  0
    1.9152   -3.6826    2.5721 H   0  0  0  0  0  0  0  0  0  0  0  0
    3.1591   -2.4279    2.3546 H   0  0  0  0  0  0  0  0  0  0  0  0
  5  6  2  0  0  0  0
  5  7  1  0  0  0  0
  2  3  1  0  0  0  0
  2  4  1  0  0  0  0
  2  5  1  0  0  0  0
  1  2  1  0  0  0  0
 15 16  2  0  0  0  0
 15 17  1  0  0  0  0
 11 12  1  0  0  0  0
 11 13  1  0  0  0  0
 11 14  1  0  0  0  0
  9 10  1  0  0  0  0
  9 11  1  0  0  0  0
  9 15  1  0  0  0  0
  7  8  1  0  0  0  0
  7  9  1  0  0  0  0
 19 20  1  0  0  0  0
 19 21  1  0  0  0  0
 19 22  1  0  0  0  0
 17 18  1  0  0  0  0
 17 19  1  0  0  0  0
M  END
$$$$
default_name
  -OEChem-01062215323D

 22 21  0     1  0  0  0  0  0999 V2000
   -2.5423   -3.6749    0.8058 H   0  0  0  0  0  0  0  0  0  0  0  0
   -2.5063   -2.6779    0.3688 C   0  0  0  0  0  0  0  0  0  0  0  0
   -3.1603   -2.0109    0.9268 H   0  0  0  0  0  0  0  0  0  0  0  0
   -2.8193   -2.7229   -0.6722 H   0  0  0  0  0  0  0  0  0  0  0  0
   -1.0873   -2.1629    0.4418 C   0  0  0  0  0  0  0  0  0  0  0  0
   -0.2073   -2.8549    0.9368 O   0  0  0  0  0  0  0  0  0  0  0  0
   -0.8713   -0.9449   -0.0482 N   0  0  0  0  0  0  0  0  0  0  0  0
   -1.6543   -0.4189   -0.4062 H   0  0  0  0  0  0  0  0  0  0  0  0
    0.4237   -0.2649   -0.0462 C   0  0  1  0  0  0  0  0  0  0  0  0
    0.9626   -0.5298   -0.9574 H   0  0  0  0  0  0  0  0  0  0  0  0
    0.1895    1.2536   -0.0417 C   0  0  0  0  0  0  0  0  0  0  0  0
   -0.3526    1.5432    0.8599 H   0  0  0  0  0  0  0  0  0  0  0  0
    1.1438    1.7785   -0.0700 H   0  0  0  0  0  0  0  0  0  0  0  0
   -0.3937    1.5391   -0.9188 H   0  0  0  0  0  0  0  0  0  0  0  0
    1.2793   -0.7086    1.1564 C   0  0  0  0  0  0  0  0  0  0  0  0
    1.6693    0.1161    1.9826 O   0  0  0  0  0  0  0  0  0  0  0  0
    1.5805   -2.0106    1.2412 N   0  0  0  0  0  0  0  0  0  0  0  0
    1.2292   -2.6241    0.5233 H   0  0  0  0  0  0  0  0  0  0  0  0
    2.3883   -2.5941    2.3112 C   0  0  0  0  0  0  0  0  0  0  0  0
    1.9512   -2.3452    3.2802 H   0  0  0  0  0  0  0  0  0  0  0  0
    2.4324   -3.6789    2.2054 H   0  0  0  0  0  0  0  0  0  0  0  0
    3.3998   -2.1861    2.2725 H   0  0  0  0  0  0  0  0  0  0  0  0
  5  6  2  0  0  0  0
  5  7  1  0  0  0  0
  2  3  1  0  0  0  0
  2  4  1  0  0  0  0
  2  5  1  0  0  0  0
  1  2  1  0  0  0  0
 15 16  2  0  0  0  0
 15 17  1  0  0  0  0
 11 12  1  0  0  0  0
 11 13  1  0  0  0  0
 11 14  1  0  0  0  0
  9 10  1  0  0  0  0
  9 11  1  0  0  0  0
  9 15  1  0  0  0  0
  7  8  1  0  0  0  0
  7  9  1  0  0  0  0
 19 20  1  0  0  0  0
 19 21  1  0  0  0  0
 19 22  1  0  0  0  0
 17 18  1  0  0  0  0
 17 19  1  0  0  0  0
M  END
$$$$
default_name
  -OEChem-01062215323D

 22 21  0     1  0  0  0  0  0999 V2000
   -2.5423   -3.6749    0.8058 H   0  0  0  0  0  0  0  0  0  0  0  0
   -2.5063   -2.6779    0.3688 C   0  0  0  0  0  0  0  0  0  0  0  0
   -3.1603   -2.0109    0.9268 H   0  0  0  0  0  0  0  0  0  0  0  0
   -2.8193   -2.7229   -0.6722 H   0  0  0  0  0  0  0  0  0  0  0  0
   -1.0873   -2.1629    0.4418 C   0  0  0  0  0  0  0  0  0  0  0  0
   -0.2073   -2.8549    0.9368 O   0  0  0  0  0  0  0  0  0  0  0  0
   -0.8713   -0.9449   -0.0482 N   0  0  0  0  0  0  0  0  0  0  0  0
   -1.6543   -0.4189   -0.4062 H   0  0  0  0  0  0  0  0  0  0  0  0
    0.4237   -0.2649   -0.0462 C   0  0  1  0  0  0  0  0  0  0  0  0
    0.9626   -0.5298   -0.9574 H   0  0  0  0  0  0  0  0  0  0  0  0
    0.1895    1.2536   -0.0417 C   0  0  0  0  0  0  0  0  0  0  0  0
   -0.3526    1.5432    0.8599 H   0  0  0  0  0  0  0  0  0  0  0  0
    1.1438    1.7785   -0.0700 H   0  0  0  0  0  0  0  0  0  0  0  0
   -0.3937    1.5391   -0.9188 H   0  0  0  0  0  0  0  0  0  0  0  0
    1.2793   -0.7086    1.1564 C   0  0  0  0  0  0  0  0  0  0  0  0
    1.4396    0.0419    2.1186 O   0  0  0  0  0  0  0  0  0  0  0  0
    1.8383   -1.9236    1.0898 N   0  0  0  0  0  0  0  0  0  0  0  0
    1.6655   -2.4783    0.2667 H   0  0  0  0  0  0  0  0  0  0  0  0
    2.6842   -2.4920    2.1383 C   0  0  0  0  0  0  0  0  0  0  0  0
    2.1478   -2.4835    3.0893 H   0  0  0  0  0  0  0  0  0  0  0  0
    2.9586   -3.5183    1.8903 H   0  0  0  0  0  0  0  0  0  0  0  0
    3.5896   -1.8922    2.2460 H   0  0  0  0  0  0  0  0  0  0  0  0
  5  6  2  0  0  0  0
  5  7  1  0  0  0  0
  2  3  1  0  0  0  0
  2  4  1  0  0  0  0
  2  5  1  0  0  0  0
  1  2  1  0  0  0  0
 15 16  2  0  0  0  0
 15 17  1  0  0  0  0
 11 12  1  0  0  0  0
 11 13  1  0  0  0  0
 11 14  1  0  0  0  0
  9 10  1  0  0  0  0
  9 11  1  0  0  0  0
  9 15  1  0  0  0  0
  7  8  1  0  0  0  0
  7  9  1  0  0  0  0
 19 20  1  0  0  0  0
 19 21  1  0  0  0  0
 19 22  1  0  0  0  0
 17 18  1  0  0  0  0
 17 19  1  0  0  0  0
M  END
$$$$
default_name
  -OEChem-01062215323D

 22 21  0     1  0  0  0  0  0999 V2000
   -2.5423   -3.6749    0.8058 H   0  0  0  0  0  0  0  0  0  0  0  0
   -2.5063   -2.6779    0.3688 C   0  0  0  0  0  0  0  0  0  0  0  0
   -3.1603   -2.0109    0.9268 H   0  0  0  0  0  0  0  0  0  0  0  0
   -2.8193   -2.7229   -0.6722 H   0  0  0  0  0  0  0  0  0  0  0  0
   -1.0873   -2.1629    0.4418 C   0  0  0  0  0  0  0  0  0  0  0  0
   -0.2073   -2.8549    0.9368 O   0  0  0  0  0  0  0  0  0  0  0  0
   -0.8713   -0.9449   -0.0482 N   0  0  0  0  0  0  0  0  0  0  0  0
   -1.6543   -0.4189   -0.4062 H   0  0  0  0  0  0  0  0  0  0  0  0
    0.4237   -0.2649   -0.0462 C   0  0  1  0  0  0  0  0  0  0  0  0
    0.9626   -0.5298   -0.9574 H   0  0  0  0  0  0  0  0  0  0  0  0
    0.1895    1.2536   -0.0417 C   0  0  0  0  0  0  0  0  0  0  0  0
   -0.3526    1.5432    0.8599 H   0  0  0  0  0  0  0  0  0  0  0  0
    1.1438    1.7785   -0.0700 H   0  0  0  0  0  0  0  0  0  0  0  0
   -0.3937    1.5391   -0.9188 H   0  0  0  0  0  0  0  0  0  0  0  0
    1.2793   -0.7086    1.1564 C   0  0  0  0  0  0  0  0  0  0  0  0
    1.2227   -0.0957    2.2222 O   0  0  0  0  0  0  0  0  0  0  0  0
    2.0811   -1.7657    0.9754 N   0  0  0  0  0  0  0  0  0  0  0  0
    2.0766   -2.2124    0.0723 H   0  0  0  0  0  0  0  0  0  0  0  0
    2.9623   -2.3088    2.0081 C   0  0  0  0  0  0  0  0  0  0  0  0
    2.3800   -2.5499    2.8996 H   0  0  0  0  0  0  0  0  0  0  0  0
    3.4579   -3.2116    1.6483 H   0  0  0  0  0  0  0  0  0  0  0  0
    3.7155   -1.5661    2.2767 H   0  0  0  0  0  0  0  0  0  0  0  0
  5  6  2  0  0  0  0
  5  7  1  0  0  0  0
  2  3  1  0  0  0  0
  2  4  1  0  0  0  0
  2  5  1  0  0  0  0
  1  2  1  0  0  0  0
 15 16  2  0  0  0  0
 15 17  1  0  0  0  0
 11 12  1  0  0  0  0
 11 13  1  0  0  0  0
 11 14  1  0  0  0  0
  9 10  1  0  0  0  0
  9 11  1  0  0  0  0
  9 15  1  0  0  0  0
  7  8  1  0  0  0  0
  7  9  1  0  0  0  0
 19 20  1  0  0  0  0
 19 21  1  0  0  0  0
 19 22  1  0  0  0  0
 17 18  1  0  0  0  0
 17 19  1  0  0  0  0
M  END
$$$$
default_name
  -OEChem-01062215323D

 22 21  0     1  0  0  0  0  0999 V2000
   -2.5423   -3.6749    0.8058 H   0  0  0  0  0  0  0  0  0  0  0  0
   -2.5063   -2.6779    0.3688 C   0  0  0  0  0  0  0  0  0  0  0  0
   -3.1603   -2.0109    0.9268 H   0  0  0  0  0  0  0  0  0  0  0  0
   -2.8193   -2.7229   -0.6722 H   0  0  0  0  0  0  0  0  0  0  0  0
   -1.0873   -2.1629    0.4418 C   0  0  0  0  0  0  0  0  0  0  0  0
   -0.2073   -2.8549    0.9368 O   0  0  0  0  0  0  0  0  0  0  0  0
   -0.8713   -0.9449   -0.0482 N   0  0  0  0  0  0  0  0  0  0  0  0
   -1.6543   -0.4189   -0.4062 H   0  0  0  0  0  0  0  0  0  0  0  0
    0.4237   -0.2649   -0.0462 C   0  0  1  0  0  0  0  0  0  0  0  0
    0.9626   -0.5298   -0.9574 H   0  0  0  0  0  0  0  0  0  0  0  0
    0.1895    1.2536   -0.0417 C   0  0  0  0  0  0  0  0  0  0  0  0
   -0.3526    1.5432    0.8599 H   0  0  0  0  0  0  0  0  0  0  0  0
    1.1438    1.7785   -0.0700 H   0  0  0  0  0  0  0  0  0  0  0  0
   -0.3937    1.5391   -0.9188 H   0  0  0  0  0  0  0  0  0  0  0  0
    1.2793   -0.7086    1.1564 C   0  0  0  0  0  0  0  0  0  0  0  0
    1.0332   -0.2873    2.2863 O   0  0  0  0  0  0  0  0  0  0  0  0
    2.2923   -1.5477    0.9055 N   0  0  0  0  0  0  0  0  0  0  0  0
    2.4345   -1.8447   -0.0466 H   0  0  0  0  0  0  0  0  0  0  0  0
    3.2036   -2.0570    1.9293 C   0  0  0  0  0  0  0  0  0  0  0  0
    2.6318   -2.5399    2.7242 H   0  0  0  0  0  0  0  0  0  0  0  0
    3.8963   -2.7797    1.4957 H   0  0  0  0  0  0  0  0  0  0  0  0
    3.7689   -1.2301    2.3626 H   0  0  0  0  0  0  0  0  0  0  0  0
  5  6  2  0  0  0  0
  5  7  1  0  0  0  0
  2  3  1  0  0  0  0
  2  4  1  0  0  0  0
  2  5  1  0  0  0  0
  1  2  1  0  0  0  0
 15 16  2  0  0  0  0
 15 17  1  0  0  0  0
 11 12  1  0  0  0  0
 11 13  1  0  0  0  0
 11 14  1  0  0  0  0
  9 10  1  0  0  0  0
  9 11  1  0  0  0  0
  9 15  1  0  0  0  0
  7  8  1  0  0  0  0
  7  9  1  0  0  0  0
 19 20  1  0  0  0  0
 19 21  1  0  0  0  0
 19 22  1  0  0  0  0
 17 18  1  0  0  0  0
 17 19  1  0  0  0  0
M  END
$$$$
default_name
  -OEChem-01062215323D

 22 21  0     1  0  0  0  0  0999 V2000
   -2.5423   -3.6749    0.8058 H   0  0  0  0  0  0  0  0  0  0  0  0
   -2.5063   -2.6779    0.3688 C   0  0  0  0  0  0  0  0  0  0  0  0
   -3.1603   -2.0109    0.9268 H   0  0  0  0  0  0  0  0  0  0  0  0
   -2.8193   -2.7229   -0.6722 H   0  0  0  0  0  0  0  0  0  0  0  0
   -1.0873   -2.1629    0.4418 C   0  0  0  0  0  0  0  0  0  0  0  0
   -0.2073   -2.8549    0.9368 O   0  0  0  0  0  0  0  0  0  0  0  0
   -0.8713   -0.9449   -0.0482 N   0  0  0  0  0  0  0  0  0  0  0  0
   -1.6543   -0.4189   -0.4062 H   0  0  0  0  0  0  0  0  0  0  0  0
    0.4237   -0.2649   -0.0462 C   0  0  1  0  0  0  0  0  0  0  0  0
    0.9626   -0.5298   -0.9574 H   0  0  0  0  0  0  0  0  0  0  0  0
    0.1895    1.2536   -0.0417 C   0  0  0  0  0  0  0  0  0  0  0  0
   -0.3526    1.5432    0.8599 H   0  0  0  0  0  0  0  0  0  0  0  0
    1.1438    1.7785   -0.0700 H   0  0  0  0  0  0  0  0  0  0  0  0
   -0.3937    1.5391   -0.9188 H   0  0  0  0  0  0  0  0  0  0  0  0
    1.2793   -0.7086    1.1564 C   0  0  0  0  0  0  0  0  0  0  0  0
    0.8841   -0.5198    2.3066 O   0  0  0  0  0  0  0  0  0  0  0  0
    2.4574   -1.2845    0.8852 N   0  0  0  0  0  0  0  0  0  0  0  0
    2.7148   -1.4001   -0.0820 H   0  0  0  0  0  0  0  0  0  0  0  0
    3.3917   -1.7536    1.9074 C   0  0  0  0  0  0  0  0  0  0  0  0
    2.8860   -2.4541    2.5749 H   0  0  0  0  0  0  0  0  0  0  0  0
    4.2439   -2.2521    1.4431 H   0  0  0  0  0  0  0  0  0  0  0  0
    3.7463   -0.9071    2.4979 H   0  0  0  0  0  0  0  0  0  0  0  0
  5  6  2  0  0  0  0
  5  7  1  0  0  0  0
  2  3  1  0  0  0  0
  2  4  1  0  0  0  0
  2  5  1  0  0  0  0
  1  2  1  0  0  0  0
 15 16  2  0  0  0  0
 15 17  1  0  0  0  0
 11 12  1  0  0  0  0
 11 13  1  0  0  0  0
 11 14  1  0  0  0  0
  9 10  1  0  0  0  0
  9 11  1  0  0  0  0
  9 15  1  0  0  0  0
  7  8  1  0  0  0  0
  7  9  1  0  0  0  0
 19 20  1  0  0  0  0
 19 21  1  0  0  0  0
 19 22  1  0  0  0  0
 17 18  1  0  0  0  0
 17 19  1  0  0  0  0
M  END
$$$$
default_name
  -OEChem-01062215323D

 22 21  0     1  0  0  0  0  0999 V2000
   -2.5423   -3.6749    0.8058 H   0  0  0  0  0  0  0  0  0  0  0  0
   -2.5063   -2.6779    0.3688 C   0  0  0  0  0  0  0  0  0  0  0  0
   -3.1603   -2.0109    0.9268 H   0  0  0  0  0  0  0  0  0  0  0  0
   -2.8193   -2.7229   -0.6722 H   0  0  0  0  0  0  0  0  0  0  0  0
   -1.0873   -2.1629    0.4418 C   0  0  0  0  0  0  0  0  0  0  0  0
   -0.2073   -2.8549    0.9368 O   0  0  0  0  0  0  0  0  0  0  0  0
   -0.8713   -0.9449   -0.0482 N   0  0  0  0  0  0  0  0  0  0  0  0
   -1.6543   -0.4189   -0.4062 H   0  0  0  0  0  0  0  0  0  0  0  0
    0.4237   -0.2649   -0.0462 C   0  0  1  0  0  0  0  0  0  0  0  0
    0.9626   -0.5298   -0.9574 H   0  0  0  0  0  0  0  0  0  0  0  0
    0.1895    1.2536   -0.0417 C   0  0  0  0  0  0  0  0  0  0  0  0
   -0.3526    1.5432    0.8599 H   0  0  0  0  0  0  0  0  0  0  0  0
    1.1438    1.7785   -0.0700 H   0  0  0  0  0  0  0  0  0  0  0  0
   -0.3937    1.5391   -0.9188 H   0  0  0  0  0  0  0  0  0  0  0  0
    1.2793   -0.7086    1.1564 C   0  0  0  0  0  0  0  0  0  0  0  0
    0.7855   -0.7774    2.2817 O   0  0  0  0  0  0  0  0  0  0  0  0
    2.5653   -0.9939    0.9156 N   0  0  0  0  0  0  0  0  0  0  0  0
    2.8984   -0.9090   -0.0314 H   0  0  0  0  0  0  0  0  0  0  0  0
    3.5138   -1.4195    1.9438 C   0  0  0  0  0  0  0  0  0  0  0  0
    3.1254   -2.2986    2.4620 H   0  0  0  0  0  0  0  0  0  0  0  0
    4.4770   -1.6647    1.4940 H   0  0  0  0  0  0  0  0  0  0  0  0
    3.6492   -0.6192    2.6733 H   0  0  0  0  0  0  0  0  0  0  0  0
  5  6  2  0  0  0  0
  5  7  1  0  0  0  0
  2  3  1  0  0  0  0
  2  4  1  0  0  0  0
  2  5  1  0  0  0  0
  1  2  1  0  0  0  0
 15 16  2  0  0  0  0
 15 17  1  0  0  0  0
 11 12  1  0  0  0  0
 11 13  1  0  0  0  0
 11 14  1  0  0  0  0
  9 10  1  0  0  0  0
  9 11  1  0  0  0  0
  9 15  1  0  0  0  0
  7  8  1  0  0  0  0
  7  9  1  0  0  0  0
 19 20  1  0  0  0  0
 19 21  1  0  0  0  0
 19 22  1  0  0  0  0
 17 18  1  0  0  0  0
 17 19  1  0  0  0  0
M  END
$$$$
default_name
  -OEChem-01062215323D

 22 21  0     1  0  0  0  0  0999 V2000
   -2.5423   -3.6749    0.8058 H   0  0  0  0  0  0  0  0  0  0  0  0
   -2.5063   -2.6779    0.3688 C   0  0  0  0  0  0  0  0  0  0  0  0
   -3.1603   -2.0109    0.9268 H   0  0  0  0  0  0  0  0  0  0  0  0
   -2.8193   -2.7229   -0.6722 H   0  0  0  0  0  0  0  0  0  0  0  0
   -1.0873   -2.1629    0.4418 C   0  0  0  0  0  0  0  0  0  0  0  0
   -0.2073   -2.8549    0.9368 O   0  0  0  0  0  0  0  0  0  0  0  0
   -0.8713   -0.9449   -0.0482 N   0  0  0  0  0  0  0  0  0  0  0  0
   -1.6543   -0.4189   -0.4062 H   0  0  0  0  0  0  0  0  0  0  0  0
    0.4237   -0.2649   -0.0462 C   0  0  1  0  0  0  0  0  0  0  0  0
    0.9626   -0.5298   -0.9574 H   0  0  0  0  0  0  0  0  0  0  0  0
    0.1895    1.2536   -0.0417 C   0  0  0  0  0  0  0  0  0  0  0  0
   -0.3526    1.5432    0.8599 H   0  0  0  0  0  0  0  0  0  0  0  0
    1.1438    1.7785   -0.0700 H   0  0  0  0  0  0  0  0  0  0  0  0
   -0.3937    1.5391   -0.9188 H   0  0  0  0  0  0  0  0  0  0  0  0
    1.2793   -0.7086    1.1564 C   0  0  0  0  0  0  0  0  0  0  0  0
    0.7442   -1.0426    2.2132 O   0  0  0  0  0  0  0  0  0  0  0  0
    2.6086   -0.6959    0.9949 N   0  0  0  0  0  0  0  0  0  0  0  0
    2.9727   -0.4048    0.1017 H   0  0  0  0  0  0  0  0  0  0  0  0
    3.5615   -1.0774    2.0361 C   0  0  0  0  0  0  0  0  0  0  0  0
    3.3336   -2.0837    2.3932 H   0  0  0  0  0  0  0  0  0  0  0  0
    4.5797   -1.0575    1.6449 H   0  0  0  0  0  0  0  0  0  0  0  0
    3.4841   -0.3858    2.8768 H   0  0  0  0  0  0  0  0  0  0  0  0
  5  6  2  0  0  0  0
  5  7  1  0  0  0  0
  2  3  1  0  0  0  0
  2  4  1  0  0  0  0
  2  5  1  0  0  0  0
  1  2  1  0  0  0  0
 15 16  2  0  0  0  0
 15 17  1  0  0  0  0
 11 12  1  0  0  0  0
 11 13  1  0  0  0  0
 11 14  1  0  0  0  0
  9 10  1  0  0  0  0
  9 11  1  0  0  0  0
  9 15  1  0  0  0  0
  7  8  1  0  0  0  0
  7  9  1  0  0  0  0
 19 20  1  0  0  0  0
 19 21  1  0  0  0  0
 19 22  1  0  0  0  0
 17 18  1  0  0  0  0
 17 19  1  0  0  0  0
M  END
$$$$
default_name
  -OEChem-01062215323D

 22 21  0     1  0  0  0  0  0999 V2000
   -2.5423   -3.6749    0.8058 H   0  0  0  0  0  0  0  0  0  0  0  0
   -2.5063   -2.6779    0.3688 C   0  0  0  0  0  0  0  0  0  0  0  0
   -3.1603   -2.0109    0.9268 H   0  0  0  0  0  0  0  0  0  0  0  0
   -2.8193   -2.7229   -0.6722 H   0  0  0  0  0  0  0  0  0  0  0  0
   -1.0873   -2.1629    0.4418 C   0  0  0  0  0  0  0  0  0  0  0  0
   -0.2073   -2.8549    0.9368 O   0  0  0  0  0  0  0  0  0  0  0  0
   -0.8713   -0.9449   -0.0482 N   0  0  0  0  0  0  0  0  0  0  0  0
   -1.6543   -0.4189   -0.4062 H   0  0  0  0  0  0  0  0  0  0  0  0
    0.4237   -0.2649   -0.0462 C   0  0  1  0  0  0  0  0  0  0  0  0
    0.9626   -0.5298   -0.9574 H   0  0  0  0  0  0  0  0  0  0  0  0
    0.1895    1.2536   -0.0417 C   0  0  0  0  0  0  0  0  0  0  0  0
   -0.3526    1.5432    0.8599 H   0  0  0  0  0  0  0  0  0  0  0  0
    1.1438    1.7785   -0.0700 H   0  0  0  0  0  0  0  0  0  0  0  0
   -0.3937    1.5391   -0.9188 H   0  0  0  0  0  0  0  0  0  0  0  0
    1.2793   -0.7086    1.1564 C   0  0  0  0  0  0  0  0  0  0  0  0
    0.7629   -1.2973    2.1059 O   0  0  0  0  0  0  0  0  0  0  0  0
    2.5842   -0.4106    1.1174 N   0  0  0  0  0  0  0  0  0  0  0  0
    2.9328    0.0781    0.3083 H   0  0  0  0  0  0  0  0  0  0  0  0
    3.5316   -0.7505    2.1780 C   0  0  0  0  0  0  0  0  0  0  0  0
    3.4965   -1.8242    2.3730 H   0  0  0  0  0  0  0  0  0  0  0  0
    4.5451   -0.4720    1.8856 H   0  0  0  0  0  0  0  0  0  0  0  0
    3.2624   -0.2230    3.0946 H   0  0  0  0  0  0  0  0  0  0  0  0
  5  6  2  0  0  0  0
  5  7  1  0  0  0  0
  2  3  1  0  0  0  0
  2  4  1  0  0  0  0
  2  5  1  0  0  0  0
  1  2  1  0  0  0  0
 15 16  2  0  0  0  0
 15 17  1  0  0  0  0
 11 12  1  0  0  0  0
 11 13  1  0  0  0  0
 11 14  1  0  0  0  0
  9 10  1  0  0  0  0
  9 11  1  0  0  0  0
  9 15  1  0  0  0  0
  7  8  1  0  0  0  0
  7  9  1  0  0  0  0
 19 20  1  0  0  0  0
 19 21  1  0  0  0  0
 19 22  1  0  0  0  0
 17 18  1  0  0  0  0
 17 19  1  0  0  0  0
M  END
$$$$
default_name
  -OEChem-01062215323D

 22 21  0     1  0  0  0  0  0999 V2000
   -2.5423   -3.6749    0.8058 H   0  0  0  0  0  0  0  0  0  0  0  0
   -2.5063   -2.6779    0.3688 C   0  0  0  0  0  0  0  0  0  0  0  0
   -3.1603   -2.0109    0.9268 H   0  0  0  0  0  0  0  0  0  0  0  0
   -2.8193   -2.7229   -0.6722 H   0  0  0  0  0  0  0  0  0  0  0  0
   -1.0873   -2.1629    0.4418 C   0  0  0  0  0  0  0  0  0  0  0  0
   -0.2073   -2.8549    0.9368 O   0  0  0  0  0  0  0  0  0  0  0  0
   -0.8713   -0.9449   -0.0482 N   0  0  0  0  0  0  0  0  0  0  0  0
   -1.6543   -0.4189   -0.4062 H   0  0  0  0  0  0  0  0  0  0  0  0
    0.4237   -0.2649   -0.0462 C   0  0  1  0  0  0  0  0  0  0  0  0
    0.8453   -0.3063   -1.0519 H   0  0  0  0  0  0  0  0  0  0  0  0
    0.2125    1.2086    0.3343 C   0  0  0  0  0  0  0  0  0  0  0  0
   -0.2131    1.2761    1.3368 H   0  0  0  0  0  0  0  0  0  0  0  0
    1.1636    1.7397    0.3125 H   0  0  0  0  0  0  0  0  0  0  0  0
   -0.4681    1.6791   -0.3774 H   0  0  0  0  0  0  0  0  0  0  0  0
    1.4117   -0.9600    0.9108 C   0  0  0  0  0  0  0  0  0  0  0  0
    1.0625   -1.9458    1.5598 O   0  0  0  0  0  0  0  0  0  0  0  0
    2.6392   -0.4334    1.0055 N   0  0  0  0  0  0  0  0  0  0  0  0
    2.8492    0.3779    0.4463 H   0  0  0  0  0  0  0  0  0  0  0  0
    3.6910   -0.9641    1.8716 C   0  0  0  0  0  0  0  0  0  0  0  0
    3.8569   -2.0193    1.6454 H   0  0  0  0  0  0  0  0  0  0  0  0
    4.6210   -0.4142    1.7204 H   0  0  0  0  0  0  0  0  0  0  0  0
    3.3860   -0.8775    2.9159 H   0  0  0  0  0  0  0  0  0  0  0  0
  5  6  2  0  0  0  0
  5  7  1  0  0  0  0
  2  3  1  0  0  0  0
  2  4  1  0  0  0  0
  2  5  1  0  0  0  0
  1  2  1  0  0  0  0
 15 16  2  0  0  0  0
 15 17  1  0  0  0  0
 11 12  1  0  0  0  0
 11 13  1  0  0  0  0
 11 14  1  0  0  0  0
  9 10  1  0  0  0  0
  9 11  1  0  0  0  0
  9 15  1  0  0  0  0
  7  8  1  0  0  0  0
  7  9  1  0  0  0  0
 19 20  1  0  0  0  0
 19 21  1  0  0  0  0
 19 22  1  0  0  0  0
 17 18  1  0  0  0  0
 17 19  1  0  0  0  0
M  END
$$$$
default_name
  -OEChem-01062215323D

 22 21  0     1  0  0  0  0  0999 V2000
   -2.5423   -3.6749    0.8058 H   0  0  0  0  0  0  0  0  0  0  0  0
   -2.5063   -2.6779    0.3688 C   0  0  0  0  0  0  0  0  0  0  0  0
   -3.1603   -2.0109    0.9268 H   0  0  0  0  0  0  0  0  0  0  0  0
   -2.8193   -2.7229   -0.6722 H   0  0  0  0  0  0  0  0  0  0  0  0
   -1.0873   -2.1629    0.4418 C   0  0  0  0  0  0  0  0  0  0  0  0
   -0.2073   -2.8549    0.9368 O   0  0  0  0  0  0  0  0  0  0  0  0
   -0.8713   -0.9449   -0.0482 N   0  0  0  0  0  0  0  0  0  0  0  0
   -1.6543   -0.4189   -0.4062 H   0  0  0  0  0  0  0  0  0  0  0  0
    0.4237   -0.2649   -0.0462 C   0  0  1  0  0  0  0  0  0  0  0  0
    0.8453   -0.3063   -1.0519 H   0  0  0  0  0  0  0  0  0  0  0  0
    0.2125    1.2086    0.3343 C   0  0  0  0  0  0  0  0  0  0  0  0
   -0.2131    1.2761    1.3368 H   0  0  0  0  0  0  0  0  0  0  0  0
    1.1636    1.7397    0.3125 H   0  0  0  0  0  0  0  0  0  0  0  0
   -0.4681    1.6791   -0.3774 H   0  0  0  0  0  0  0  0  0  0  0  0
    1.4117   -0.9600    0.9108 C   0  0  0  0  0  0  0  0  0  0  0  0
    1.1707   -2.0856    1.3466 O   0  0  0  0  0  0  0  0  0  0  0  0
    2.5150   -0.2791    1.2458 N   0  0  0  0  0  0  0  0  0  0  0  0
    2.6401    0.6399    0.8526 H   0  0  0  0  0  0  0  0  0  0  0  0
    3.5468   -0.7887    2.1479 C   0  0  0  0  0  0  0  0  0  0  0  0
    3.9127   -1.7505    1.7830 H   0  0  0  0  0  0  0  0  0  0  0  0
    4.3799   -0.0869    2.2070 H   0  0  0  0  0  0  0  0  0  0  0  0
    3.1255   -0.9337    3.1441 H   0  0  0  0  0  0  0  0  0  0  0  0
  5  6  2  0  0  0  0
  5  7  1  0  0  0  0
  2  3  1  0  0  0  0
  2  4  1  0  0  0  0
  2  5  1  0  0  0  0
  1  2  1  0  0  0  0
 15 16  2  0  0  0  0
 15 17  1  0  0  0  0
 11 12  1  0  0  0  0
 11 13  1  0  0  0  0
 11 14  1  0  0  0  0
  9 10  1  0  0  0  0
  9 11  1  0  0  0  0
  9 15  1  0  0  0  0
  7  8  1  0  0  0  0
  7  9  1  0  0  0  0
 19 20  1  0  0  0  0
 19 21  1  0  0  0  0
 19 22  1  0  0  0  0
 17 18  1  0  0  0  0
 17 19  1  0  0  0  0
M  END
$$$$
default_name
  -OEChem-01062215323D

 22 21  0     1  0  0  0  0  0999 V2000
   -2.5423   -3.6749    0.8058 H   0  0  0  0  0  0  0  0  0  0  0  0
   -2.5063   -2.6779    0.3688 C   0  0  0  0  0  0  0  0  0  0  0  0
   -3.1603   -2.0109    0.9268 H   0  0  0  0  0  0  0  0  0  0  0  0
   -2.8193   -2.7229   -0.6722 H   0  0  0  0  0  0  0  0  0  0  0  0
   -1.0873   -2.1629    0.4418 C   0  0  0  0  0  0  0  0  0  0  0  0
   -0.2073   -2.8549    0.9368 O   0  0  0  0  0  0  0  0  0  0  0  0
   -0.8713   -0.9449   -0.0482 N   0  0  0  0  0  0  0  0  0  0  0  0
   -1.6543   -0.4189   -0.4062 H   0  0  0  0  0  0  0  0  0  0  0  0
    0.4237   -0.2649   -0.0462 C   0  0  1  0  0  0  0  0  0  0  0  0
    0.8453   -0.3063   -1.0519 H   0  0  0  0  0  0  0  0  0  0  0  0
    0.2125    1.2086    0.3343 C   0  0  0  0  0  0  0  0  0  0  0  0
   -0.2131    1.2761    1.3368 H   0  0  0  0  0  0  0  0  0  0  0  0
    1.1636    1.7397    0.3125 H   0  0  0  0  0  0  0  0  0  0  0  0
   -0.4681    1.6791   -0.3774 H   0  0  0  0  0  0  0  0  0  0  0  0
    1.4117   -0.9600    0.9108 C   0  0  0  0  0  0  0  0  0  0  0  0
    1.3226   -2.1679    1.1300 O   0  0  0  0  0  0  0  0  0  0  0  0
    2.3421   -0.1900    1.4891 N   0  0  0  0  0  0  0  0  0  0  0  0
    2.3485    0.7920    1.2641 H   0  0  0  0  0  0  0  0  0  0  0  0
    3.3471   -0.6883    2.4270 C   0  0  0  0  0  0  0  0  0  0  0  0
    3.9073   -1.5048    1.9670 H   0  0  0  0  0  0  0  0  0  0  0  0
    4.0377    0.1098    2.7032 H   0  0  0  0  0  0  0  0  0  0  0  0
    2.8562   -1.0677    3.3247 H   0  0  0  0  0  0  0  0  0  0  0  0
  5  6  2  0  0  0  0
  5  7  1  0  0  0  0
  2  3  1  0  0  0  0
  2  4  1  0  0  0  0
  2  5  1  0  0  0  0
  1  2  1  0  0  0  0
 15 16  2  0  0  0  0
 15 17  1  0  0  0  0
 11 12  1  0  0  0  0
 11 13  1  0  0  0  0
 11 14  1  0  0  0  0
  9 10  1  0  0  0  0
  9 11  1  0  0  0  0
  9 15  1  0  0  0  0
  7  8  1  0  0  0  0
  7  9  1  0  0  0  0
 19 20  1  0  0  0  0
 19 21  1  0  0  0  0
 19 22  1  0  0  0  0
 17 18  1  0  0  0  0
 17 19  1  0  0  0  0
M  END
$$$$
default_name
  -OEChem-01062215323D

 22 21  0     1  0  0  0  0  0999 V2000
   -2.5423   -3.6749    0.8058 H   0  0  0  0  0  0  0  0  0  0  0  0
   -2.5063   -2.6779    0.3688 C   0  0  0  0  0  0  0  0  0  0  0  0
   -3.1603   -2.0109    0.9268 H   0  0  0  0  0  0  0  0  0  0  0  0
   -2.8193   -2.7229   -0.6722 H   0  0  0  0  0  0  0  0  0  0  0  0
   -1.0873   -2.1629    0.4418 C   0  0  0  0  0  0  0  0  0  0  0  0
   -0.2073   -2.8549    0.9368 O   0  0  0  0  0  0  0  0  0  0  0  0
   -0.8713   -0.9449   -0.0482 N   0  0  0  0  0  0  0  0  0  0  0  0
   -1.6543   -0.4189   -0.4062 H   0  0  0  0  0  0  0  0  0  0  0  0
    0.4237   -0.2649   -0.0462 C   0  0  1  0  0  0  0  0  0  0  0  0
    0.8453   -0.3063   -1.0519 H   0  0  0  0  0  0  0  0  0  0  0  0
    0.2125    1.2086    0.3343 C   0  0  0  0  0  0  0  0  0  0  0  0
   -0.2131    1.2761    1.3368 H   0  0  0  0  0  0  0  0  0  0  0  0
    1.1636    1.7397    0.3125 H   0  0  0  0  0  0  0  0  0  0  0  0
   -0.4681    1.6791   -0.3774 H   0  0  0  0  0  0  0  0  0  0  0  0
    1.4117   -0.9600    0.9108 C   0  0  0  0  0  0  0  0  0  0  0  0
    1.5078   -2.1870    0.9249 O   0  0  0  0  0  0  0  0  0  0  0  0
    2.1325   -0.1720    1.7186 N   0  0  0  0  0  0  0  0  0  0  0  0
    1.9944    0.8238    1.6527 H   0  0  0  0  0  0  0  0  0  0  0  0
    3.1055   -0.6697    2.6899 C   0  0  0  0  0  0  0  0  0  0  0  0
    3.8412   -1.2988    2.1849 H   0  0  0  0  0  0  0  0  0  0  0  0
    3.6176    0.1624    3.1751 H   0  0  0  0  0  0  0  0  0  0  0  0
    2.5965   -1.2705    3.4456 H   0  0  0  0  0  0  0  0  0  0  0  0
  5  6  2  0  0  0  0
  5  7  1  0  0  0  0
  2  3  1  0  0  0  0
  2  4  1  0  0  0  0
  2  5  1  0  0  0  0
  1  2  1  0  0  0  0
 15 16  2  0  0  0  0
 15 17  1  0  0  0  0
 11 12  1  0  0  0  0
 11 13  1  0  0  0  0
 11 14  1  0  0  0  0
  9 10  1  0  0  0  0
  9 11  1  0  0  0  0
  9 15  1  0  0  0  0
  7  8  1  0  0  0  0
  7  9  1  0  0  0  0
 19 20  1  0  0  0  0
 19 21  1  0  0  0  0
 19 22  1  0  0  0  0
 17 18  1  0  0  0  0
 17 19  1  0  0  0  0
M  END
$$$$
default_name
  -OEChem-01062215323D

 22 21  0     1  0  0  0  0  0999 V2000
   -2.5423   -3.6749    0.8058 H   0  0  0  0  0  0  0  0  0  0  0  0
   -2.5063   -2.6779    0.3688 C   0  0  0  0  0  0  0  0  0  0  0  0
   -3.1603   -2.0109    0.9268 H   0  0  0  0  0  0  0  0  0  0  0  0
   -2.8193   -2.7229   -0.6722 H   0  0  0  0  0  0  0  0  0  0  0  0
   -1.0873   -2.1629    0.4418 C   0  0  0  0  0  0  0  0  0  0  0  0
   -0.2073   -2.8549    0.9368 O   0  0  0  0  0  0  0  0  0  0  0  0
   -0.8713   -0.9449   -0.0482 N   0  0  0  0  0  0  0  0  0  0  0  0
   -1.6543   -0.4189   -0.4062 H   0  0  0  0  0  0  0  0  0  0  0  0
    0.4237   -0.2649   -0.0462 C   0  0  1  0  0  0  0  0  0  0  0  0
    0.8453   -0.3063   -1.0519 H   0  0  0  0  0  0  0  0  0  0  0  0
    0.2125    1.2086    0.3343 C   0  0  0  0  0  0  0  0  0  0  0  0
   -0.2131    1.2761    1.3368 H   0  0  0  0  0  0  0  0  0  0  0  0
    1.1636    1.7397    0.3125 H   0  0  0  0  0  0  0  0  0  0  0  0
   -0.4681    1.6791   -0.3774 H   0  0  0  0  0  0  0  0  0  0  0  0
    1.4117   -0.9600    0.9108 C   0  0  0  0  0  0  0  0  0  0  0  0
    1.7137   -2.1417    0.7453 O   0  0  0  0  0  0  0  0  0  0  0  0
    1.9002   -0.2263    1.9188 N   0  0  0  0  0  0  0  0  0  0  0  0
    1.6019    0.7332    1.9921 H   0  0  0  0  0  0  0  0  0  0  0  0
    2.8384   -0.7342    2.9187 C   0  0  0  0  0  0  0  0  0  0  0  0
    3.7188   -1.1467    2.4218 H   0  0  0  0  0  0  0  0  0  0  0  0
    3.1483    0.0674    3.5906 H   0  0  0  0  0  0  0  0  0  0  0  0
    2.3642   -1.5281    3.4983 H   0  0  0  0  0  0  0  0  0  0  0  0
  5  6  2  0  0  0  0
  5  7  1  0  0  0  0
  2  3  1  0  0  0  0
  2  4  1  0  0  0  0
  2  5  1  0  0  0  0
  1  2  1  0  0  0  0
 15 16  2  0  0  0  0
 15 17  1  0  0  0  0
 11 12  1  0  0  0  0
 11 13  1  0  0  0  0
 11 14  1  0  0  0  0
  9 10  1  0  0  0  0
  9 11  1  0  0  0  0
  9 15  1  0  0  0  0
  7  8  1  0  0  0  0
  7  9  1  0  0  0  0
 19 20  1  0  0  0  0
 19 21  1  0  0  0  0
 19 22  1  0  0  0  0
 17 18  1  0  0  0  0
 17 19  1  0  0  0  0
M  END
$$$$
default_name
  -OEChem-01062215323D

 22 21  0     1  0  0  0  0  0999 V2000
   -2.5423   -3.6749    0.8058 H   0  0  0  0  0  0  0  0  0  0  0  0
   -2.5063   -2.6779    0.3688 C   0  0  0  0  0  0  0  0  0  0  0  0
   -3.1603   -2.0109    0.9268 H   0  0  0  0  0  0  0  0  0  0  0  0
   -2.8193   -2.7229   -0.6722 H   0  0  0  0  0  0  0  0  0  0  0  0
   -1.0873   -2.1629    0.4418 C   0  0  0  0  0  0  0  0  0  0  0  0
   -0.2073   -2.8549    0.9368 O   0  0  0  0  0  0  0  0  0  0  0  0
   -0.8713   -0.9449   -0.0482 N   0  0  0  0  0  0  0  0  0  0  0  0
   -1.6543   -0.4189   -0.4062 H   0  0  0  0  0  0  0  0  0  0  0  0
    0.4237   -0.2649   -0.0462 C   0  0  1  0  0  0  0  0  0  0  0  0
    0.8453   -0.3063   -1.0519 H   0  0  0  0  0  0  0  0  0  0  0  0
    0.2125    1.2086    0.3343 C   0  0  0  0  0  0  0  0  0  0  0  0
   -0.2131    1.2761    1.3368 H   0  0  0  0  0  0  0  0  0  0  0  0
    1.1636    1.7397    0.3125 H   0  0  0  0  0  0  0  0  0  0  0  0
   -0.4681    1.6791   -0.3774 H   0  0  0  0  0  0  0  0  0  0  0  0
    1.4117   -0.9600    0.9108 C   0  0  0  0  0  0  0  0  0  0  0  0
    1.9262   -2.0350    0.6033 O   0  0  0  0  0  0  0  0  0  0  0  0
    1.6613   -0.3494    2.0761 N   0  0  0  0  0  0  0  0  0  0  0  0
    1.1977    0.5262    2.2590 H   0  0  0  0  0  0  0  0  0  0  0  0
    2.5641   -0.8774    3.0979 C   0  0  0  0  0  0  0  0  0  0  0  0
    3.5484   -1.0587    2.6616 H   0  0  0  0  0  0  0  0  0  0  0  0
    2.6617   -0.1687    3.9215 H   0  0  0  0  0  0  0  0  0  0  0  0
    2.1750   -1.8230    3.4795 H   0  0  0  0  0  0  0  0  0  0  0  0
  5  6  2  0  0  0  0
  5  7  1  0  0  0  0
  2  3  1  0  0  0  0
  2  4  1  0  0  0  0
  2  5  1  0  0  0  0
  1  2  1  0  0  0  0
 15 16  2  0  0  0  0
 15 17  1  0  0  0  0
 11 12  1  0  0  0  0
 11 13  1  0  0  0  0
 11 14  1  0  0  0  0
  9 10  1  0  0  0  0
  9 11  1  0  0  0  0
  9 15  1  0  0  0  0
  7  8  1  0  0  0  0
  7  9  1  0  0  0  0
 19 20  1  0  0  0  0
 19 21  1  0  0  0  0
 19 22  1  0  0  0  0
 17 18  1  0  0  0  0
 17 19  1  0  0  0  0
M  END
$$$$
default_name
  -OEChem-01062215323D

 22 21  0     1  0  0  0  0  0999 V2000
   -2.5423   -3.6749    0.8058 H   0  0  0  0  0  0  0  0  0  0  0  0
   -2.5063   -2.6779    0.3688 C   0  0  0  0  0  0  0  0  0  0  0  0
   -3.1603   -2.0109    0.9268 H   0  0  0  0  0  0  0  0  0  0  0  0
   -2.8193   -2.7229   -0.6722 H   0  0  0  0  0  0  0  0  0  0  0  0
   -1.0873   -2.1629    0.4418 C   0  0  0  0  0  0  0  0  0  0  0  0
   -0.2073   -2.8549    0.9368 O   0  0  0  0  0  0  0  0  0  0  0  0
   -0.8713   -0.9449   -0.0482 N   0  0  0  0  0  0  0  0  0  0  0  0
   -1.6543   -0.4189   -0.4062 H   0  0  0  0  0  0  0  0  0  0  0  0
    0.4237   -0.2649   -0.0462 C   0  0  1  0  0  0  0  0  0  0  0  0
    0.8453   -0.3063   -1.0519 H   0  0  0  0  0  0  0  0  0  0  0  0
    0.2125    1.2086    0.3343 C   0  0  0  0  0  0  0  0  0  0  0  0
   -0.2131    1.2761    1.3368 H   0  0  0  0  0  0  0  0  0  0  0  0
    1.1636    1.7397    0.3125 H   0  0  0  0  0  0  0  0  0  0  0  0
   -0.4681    1.6791   -0.3774 H   0  0  0  0  0  0  0  0  0  0  0  0
    1.4117   -0.9600    0.9108 C   0  0  0  0  0  0  0  0  0  0  0  0
    2.1310   -1.8743    0.5087 O   0  0  0  0  0  0  0  0  0  0  0  0
    1.4319   -0.5328    2.1797 N   0  0  0  0  0  0  0  0  0  0  0  0
    0.8094    0.2170    2.4353 H   0  0  0  0  0  0  0  0  0  0  0  0
    2.3012   -1.0896    3.2152 C   0  0  0  0  0  0  0  0  0  0  0  0
    3.3417   -1.0408    2.8879 H   0  0  0  0  0  0  0  0  0  0  0  0
    2.1910   -0.5299    4.1451 H   0  0  0  0  0  0  0  0  0  0  0  0
    2.0418   -2.1351    3.3902 H   0  0  0  0  0  0  0  0  0  0  0  0
  5  6  2  0  0  0  0
  5  7  1  0  0  0  0
  2  3  1  0  0  0  0
  2  4  1  0  0  0  0
  2  5  1  0  0  0  0
  1  2  1  0  0  0  0
 15 16  2  0  0  0  0
 15 17  1  0  0  0  0
 11 12  1  0  0  0  0
 11 13  1  0  0  0  0
 11 14  1  0  0  0  0
  9 10  1  0  0  0  0
  9 11  1  0  0  0  0
  9 15  1  0  0  0  0
  7  8  1  0  0  0  0
  7  9  1  0  0  0  0
 19 20  1  0  0  0  0
 19 21  1  0  0  0  0
 19 22  1  0  0  0  0
 17 18  1  0  0  0  0
 17 19  1  0  0  0  0
M  END
$$$$
default_name
  -OEChem-01062215323D

 22 21  0     1  0  0  0  0  0999 V2000
   -2.5423   -3.6749    0.8058 H   0  0  0  0  0  0  0  0  0  0  0  0
   -2.5063   -2.6779    0.3688 C   0  0  0  0  0  0  0  0  0  0  0  0
   -3.1603   -2.0109    0.9268 H   0  0  0  0  0  0  0  0  0  0  0  0
   -2.8193   -2.7229   -0.6722 H   0  0  0  0  0  0  0  0  0  0  0  0
   -1.0873   -2.1629    0.4418 C   0  0  0  0  0  0  0  0  0  0  0  0
   -0.2073   -2.8549    0.9368 O   0  0  0  0  0  0  0  0  0  0  0  0
   -0.8713   -0.9449   -0.0482 N   0  0  0  0  0  0  0  0  0  0  0  0
   -1.6543   -0.4189   -0.4062 H   0  0  0  0  0  0  0  0  0  0  0  0
    0.4237   -0.2649   -0.0462 C   0  0  1  0  0  0  0  0  0  0  0  0
    0.8453   -0.3063   -1.0519 H   0  0  0  0  0  0  0  0  0  0  0  0
    0.2125    1.2086    0.3343 C   0  0  0  0  0  0  0  0  0  0  0  0
   -0.2131    1.2761    1.3368 H   0  0  0  0  0  0  0  0  0  0  0  0
    1.1636    1.7397    0.3125 H   0  0  0  0  0  0  0  0  0  0  0  0
   -0.4681    1.6791   -0.3774 H   0  0  0  0  0  0  0  0  0  0  0  0
    1.4117   -0.9600    0.9108 C   0  0  0  0  0  0  0  0  0  0  0  0
    2.3140   -1.6704    0.4679 O   0  0  0  0  0  0  0  0  0  0  0  0
    1.2277   -0.7640    2.2226 N   0  0  0  0  0  0  0  0  0  0  0  0
    0.4635   -0.1733    2.5089 H   0  0  0  0  0  0  0  0  0  0  0  0
    2.0677   -1.3562    3.2626 C   0  0  0  0  0  0  0  0  0  0  0  0
    3.1128   -1.0944    3.0854 H   0  0  0  0  0  0  0  0  0  0  0  0
    1.7683   -0.9915    4.2462 H   0  0  0  0  0  0  0  0  0  0  0  0
    1.9738   -2.4432    3.2366 H   0  0  0  0  0  0  0  0  0  0  0  0
  5  6  2  0  0  0  0
  5  7  1  0  0  0  0
  2  3  1  0  0  0  0
  2  4  1  0  0  0  0
  2  5  1  0  0  0  0
  1  2  1  0  0  0  0
 15 16  2  0  0  0  0
 15 17  1  0  0  0  0
 11 12  1  0  0  0  0
 11 13  1  0  0  0  0
 11 14  1  0  0  0  0
  9 10  1  0  0  0  0
  9 11  1  0  0  0  0
  9 15  1  0  0  0  0
  7  8  1  0  0  0  0
  7  9  1  0  0  0  0
 19 20  1  0  0  0  0
 19 21  1  0  0  0  0
 19 22  1  0  0  0  0
 17 18  1  0  0  0  0
 17 19  1  0  0  0  0
M  END
$$$$
default_name
  -OEChem-01062215323D

 22 21  0     1  0  0  0  0  0999 V2000
   -2.5423   -3.6749    0.8058 H   0  0  0  0  0  0  0  0  0  0  0  0
   -2.5063   -2.6779    0.3688 C   0  0  0  0  0  0  0  0  0  0  0  0
   -3.1603   -2.0109    0.9268 H   0  0  0  0  0  0  0  0  0  0  0  0
   -2.8193   -2.7229   -0.6722 H   0  0  0  0  0  0  0  0  0  0  0  0
   -1.0873   -2.1629    0.4418 C   0  0  0  0  0  0  0  0  0  0  0  0
   -0.2073   -2.8549    0.9368 O   0  0  0  0  0  0  0  0  0  0  0  0
   -0.8713   -0.9449   -0.0482 N   0  0  0  0  0  0  0  0  0  0  0  0
   -1.6543   -0.4189   -0.4062 H   0  0  0  0  0  0  0  0  0  0  0  0
    0.4237   -0.2649   -0.0462 C   0  0  1  0  0  0  0  0  0  0  0  0
    0.8453   -0.3063   -1.0519 H   0  0  0  0  0  0  0  0  0  0  0  0
    0.2125    1.2086    0.3343 C   0  0  0  0  0  0  0  0  0  0  0  0
   -0.2131    1.2761    1.3368 H   0  0  0  0  0  0  0  0  0  0  0  0
    1.1636    1.7397    0.3125 H   0  0  0  0  0  0  0  0  0  0  0  0
   -0.4681    1.6791   -0.3774 H   0  0  0  0  0  0  0  0  0  0  0  0
    1.4117   -0.9600    0.9108 C   0  0  0  0  0  0  0  0  0  0  0  0
    2.4627   -1.4373    0.4836 O   0  0  0  0  0  0  0  0  0  0  0  0
    1.0626   -1.0273    2.2018 N   0  0  0  0  0  0  0  0  0  0  0  0
    0.1834   -0.6181    2.4750 H   0  0  0  0  0  0  0  0  0  0  0  0
    1.8795   -1.6591    3.2369 C   0  0  0  0  0  0  0  0  0  0  0  0
    2.8772   -1.2157    3.2405 H   0  0  0  0  0  0  0  0  0  0  0  0
    1.4224   -1.5221    4.2179 H   0  0  0  0  0  0  0  0  0  0  0  0
    1.9756   -2.7262    3.0293 H   0  0  0  0  0  0  0  0  0  0  0  0
  5  6  2  0  0  0  0
  5  7  1  0  0  0  0
  2  3  1  0  0  0  0
  2  4  1  0  0  0  0
  2  5  1  0  0  0  0
  1  2  1  0  0  0  0
 15 16  2  0  0  0  0
 15 17  1  0  0  0  0
 11 12  1  0  0  0  0
 11 13  1  0  0  0  0
 11 14  1  0  0  0  0
  9 10  1  0  0  0  0
  9 11  1  0  0  0  0
  9 15  1  0  0  0  0
  7  8  1  0  0  0  0
  7  9  1  0  0  0  0
 19 20  1  0  0  0  0
 19 21  1  0  0  0  0
 19 22  1  0  0  0  0
 17 18  1  0  0  0  0
 17 19  1  0  0  0  0
M  END
$$$$
default_name
  -OEChem-01062215323D

 22 21  0     1  0  0  0  0  0999 V2000
   -2.5423   -3.6749    0.8058 H   0  0  0  0  0  0  0  0  0  0  0  0
   -2.5063   -2.6779    0.3688 C   0  0  0  0  0  0  0  0  0  0  0  0
   -3.1603   -2.0109    0.9268 H   0  0  0  0  0  0  0  0  0  0  0  0
   -2.8193   -2.7229   -0.6722 H   0  0  0  0  0  0  0  0  0  0  0  0
   -1.0873   -2.1629    0.4418 C   0  0  0  0  0  0  0  0  0  0  0  0
   -0.2073   -2.8549    0.9368 O   0  0  0  0  0  0  0  0  0  0  0  0
   -0.8713   -0.9449   -0.0482 N   0  0  0  0  0  0  0  0  0  0  0  0
   -1.6543   -0.4189   -0.4062 H   0  0  0  0  0  0  0  0  0  0  0  0
    0.4237   -0.2649   -0.0462 C   0  0  1  0  0  0  0  0  0  0  0  0
    0.8453   -0.3063   -1.0519 H   0  0  0  0  0  0  0  0  0  0  0  0
    0.2125    1.2086    0.3343 C   0  0  0  0  0  0  0  0  0  0  0  0
   -0.2131    1.2761    1.3368 H   0  0  0  0  0  0  0  0  0  0  0  0
    1.1636    1.7397    0.3125 H   0  0  0  0  0  0  0  0  0  0  0  0
   -0.4681    1.6791   -0.3774 H   0  0  0  0  0  0  0  0  0  0  0  0
    1.4117   -0.9600    0.9108 C   0  0  0  0  0  0  0  0  0  0  0  0
    2.5671   -1.1908    0.5549 O   0  0  0  0  0  0  0  0  0  0  0  0
    0.9479   -1.3047    2.1188 N   0  0  0  0  0  0  0  0  0  0  0  0
   -0.0116   -1.0872    2.3356 H   0  0  0  0  0  0  0  0  0  0  0  0
    1.7494   -1.9777    3.1398 C   0  0  0  0  0  0  0  0  0  0  0  0
    2.6510   -1.3964    3.3427 H   0  0  0  0  0  0  0  0  0  0  0  0
    1.1768   -2.0855    4.0622 H   0  0  0  0  0  0  0  0  0  0  0  0
    2.0469   -2.9649    2.7822 H   0  0  0  0  0  0  0  0  0  0  0  0
  5  6  2  0  0  0  0
  5  7  1  0  0  0  0
  2  3  1  0  0  0  0
  2  4  1  0  0  0  0
  2  5  1  0  0  0  0
  1  2  1  0  0  0  0
 15 16  2  0  0  0  0
 15 17  1  0  0  0  0
 11 12  1  0  0  0  0
 11 13  1  0  0  0  0
 11 14  1  0  0  0  0
  9 10  1  0  0  0  0
  9 11  1  0  0  0  0
  9 15  1  0  0  0  0
  7  8  1  0  0  0  0
  7  9  1  0  0  0  0
 19 20  1  0  0  0  0
 19 21  1  0  0  0  0
 19 22  1  0  0  0  0
 17 18  1  0  0  0  0
 17 19  1  0  0  0  0
M  END
$$$$
default_name
  -OEChem-01062215323D

 22 21  0     1  0  0  0  0  0999 V2000
   -2.5423   -3.6749    0.8058 H   0  0  0  0  0  0  0  0  0  0  0  0
   -2.5063   -2.6779    0.3688 C   0  0  0  0  0  0  0  0  0  0  0  0
   -3.1603   -2.0109    0.9268 H   0  0  0  0  0  0  0  0  0  0  0  0
   -2.8193   -2.7229   -0.6722 H   0  0  0  0  0  0  0  0  0  0  0  0
   -1.0873   -2.1629    0.4418 C   0  0  0  0  0  0  0  0  0  0  0  0
   -0.2073   -2.8549    0.9368 O   0  0  0  0  0  0  0  0  0  0  0  0
   -0.8713   -0.9449   -0.0482 N   0  0  0  0  0  0  0  0  0  0  0  0
   -1.6543   -0.4189   -0.4062 H   0  0  0  0  0  0  0  0  0  0  0  0
    0.4237   -0.2649   -0.0462 C   0  0  1  0  0  0  0  0  0  0  0  0
    0.8453   -0.3063   -1.0519 H   0  0  0  0  0  0  0  0  0  0  0  0
    0.2125    1.2086    0.3343 C   0  0  0  0  0  0  0  0  0  0  0  0
   -0.2131    1.2761    1.3368 H   0  0  0  0  0  0  0  0  0  0  0  0
    1.1636    1.7397    0.3125 H   0  0  0  0  0  0  0  0  0  0  0  0
   -0.4681    1.6791   -0.3774 H   0  0  0  0  0  0  0  0  0  0  0  0
    1.4117   -0.9600    0.9108 C   0  0  0  0  0  0  0  0  0  0  0  0
    2.6200   -0.9478    0.6768 O   0  0  0  0  0  0  0  0  0  0  0  0
    0.8914   -1.5772    1.9791 N   0  0  0  0  0  0  0  0  0  0  0  0
   -0.1083   -1.5485    2.1005 H   0  0  0  0  0  0  0  0  0  0  0  0
    1.6862   -2.2903    2.9780 C   0  0  0  0  0  0  0  0  0  0  0  0
    2.4497   -1.6243    3.3850 H   0  0  0  0  0  0  0  0  0  0  0  0
    1.0484   -2.6433    3.7896 H   0  0  0  0  0  0  0  0  0  0  0  0
    2.1831   -3.1430    2.5123 H   0  0  0  0  0  0  0  0  0  0  0  0
  5  6  2  0  0  0  0
  5  7  1  0  0  0  0
  2  3  1  0  0  0  0
  2  4  1  0  0  0  0
  2  5  1  0  0  0  0
  1  2  1  0  0  0  0
 15 16  2  0  0  0  0
 15 17  1  0  0  0  0
 11 12  1  0  0  0  0
 11 13  1  0  0  0  0
 11 14  1  0  0  0  0
  9 10  1  0  0  0  0
  9 11  1  0  0  0  0
  9 15  1  0  0  0  0
  7  8  1  0  0  0  0
  7  9  1  0  0  0  0
 19 20  1  0  0  0  0
 19 21  1  0  0  0  0
 19 22  1  0  0  0  0
 17 18  1  0  0  0  0
 17 19  1  0  0  0  0
M  END
$$$$
default_name
  -OEChem-01062215323D

 22 21  0     1  0  0  0  0  0999 V2000
   -2.5423   -3.6749    0.8058 H   0  0  0  0  0  0  0  0  0  0  0  0
   -2.5063   -2.6779    0.3688 C   0  0  0  0  0  0  0  0  0  0  0  0
   -3.1603   -2.0109    0.9268 H   0  0  0  0  0  0  0  0  0  0  0  0
   -2.8193   -2.7229   -0.6722 H   0  0  0  0  0  0  0  0  0  0  0  0
   -1.0873   -2.1629    0.4418 C   0  0  0  0  0  0  0  0  0  0  0  0
   -0.2073   -2.8549    0.9368 O   0  0  0  0  0  0  0  0  0  0  0  0
   -0.8713   -0.9449   -0.0482 N   0  0  0  0  0  0  0  0  0  0  0  0
   -1.6543   -0.4189   -0.4062 H   0  0  0  0  0  0  0  0  0  0  0  0
    0.4237   -0.2649   -0.0462 C   0  0  1  0  0  0  0  0  0  0  0  0
    0.8453   -0.3063   -1.0519 H   0  0  0  0  0  0  0  0  0  0  0  0
    0.2125    1.2086    0.3343 C   0  0  0  0  0  0  0  0  0  0  0  0
   -0.2131    1.2761    1.3368 H   0  0  0  0  0  0  0  0  0  0  0  0
    1.1636    1.7397    0.3125 H   0  0  0  0  0  0  0  0  0  0  0  0
   -0.4681    1.6791   -0.3774 H   0  0  0  0  0  0  0  0  0  0  0  0
    1.4117   -0.9600    0.9108 C   0  0  0  0  0  0  0  0  0  0  0  0
    2.6178   -0.7247    0.8410 O   0  0  0  0  0  0  0  0  0  0  0  0
    0.8969   -1.8264    1.7925 N   0  0  0  0  0  0  0  0  0  0  0  0
   -0.1002   -1.9706    1.7855 H   0  0  0  0  0  0  0  0  0  0  0  0
    1.6943   -2.5755    2.7625 C   0  0  0  0  0  0  0  0  0  0  0  0
    2.2869   -1.8838    3.3646 H   0  0  0  0  0  0  0  0  0  0  0  0
    1.0458   -3.1575    3.4187 H   0  0  0  0  0  0  0  0  0  0  0  0
    2.3748   -3.2484    2.2379 H   0  0  0  0  0  0  0  0  0  0  0  0
  5  6  2  0  0  0  0
  5  7  1  0  0  0  0
  2  3  1  0  0  0  0
  2  4  1  0  0  0  0
  2  5  1  0  0  0  0
  1  2  1  0  0  0  0
 15 16  2  0  0  0  0
 15 17  1  0  0  0  0
 11 12  1  0  0  0  0
 11 13  1  0  0  0  0
 11 14  1  0  0  0  0
  9 10  1  0  0  0  0
  9 11  1  0  0  0  0
  9 15  1  0  0  0  0
  7  8  1  0  0  0  0
  7  9  1  0  0  0  0
 19 20  1  0  0  0  0
 19 21  1  0  0  0  0
 19 22  1  0  0  0  0
 17 18  1  0  0  0  0
 17 19  1  0  0  0  0
M  END
$$$$
default_name
  -OEChem-01062215323D

 22 21  0     1  0  0  0  0  0999 V2000
   -2.5423   -3.6749    0.8058 H   0  0  0  0  0  0  0  0  0  0  0  0
   -2.5063   -2.6779    0.3688 C   0  0  0  0  0  0  0  0  0  0  0  0
   -3.1603   -2.0109    0.9268 H   0  0  0  0  0  0  0  0  0  0  0  0
   -2.8193   -2.7229   -0.6722 H   0  0  0  0  0  0  0  0  0  0  0  0
   -1.0873   -2.1629    0.4418 C   0  0  0  0  0  0  0  0  0  0  0  0
   -0.2073   -2.8549    0.9368 O   0  0  0  0  0  0  0  0  0  0  0  0
   -0.8713   -0.9449   -0.0482 N   0  0  0  0  0  0  0  0  0  0  0  0
   -1.6543   -0.4189   -0.4062 H   0  0  0  0  0  0  0  0  0  0  0  0
    0.4237   -0.2649   -0.0462 C   0  0  1  0  0  0  0  0  0  0  0  0
    0.8453   -0.3063   -1.0519 H   0  0  0  0  0  0  0  0  0  0  0  0
    0.2125    1.2086    0.3343 C   0  0  0  0  0  0  0  0  0  0  0  0
   -0.2131    1.2761    1.3368 H   0  0  0  0  0  0  0  0  0  0  0  0
    1.1636    1.7397    0.3125 H   0  0  0  0  0  0  0  0  0  0  0  0
   -0.4681    1.6791   -0.3774 H   0  0  0  0  0  0  0  0  0  0  0  0
    1.4117   -0.9600    0.9108 C   0  0  0  0  0  0  0  0  0  0  0  0
    2.5607   -0.5369    1.0365 O   0  0  0  0  0  0  0  0  0  0  0  0
    0.9640   -2.0353    1.5714 N   0  0  0  0  0  0  0  0  0  0  0  0
    0.0123   -2.3247    1.4121 H   0  0  0  0  0  0  0  0  0  0  0  0
    1.7732   -2.8139    2.5079 C   0  0  0  0  0  0  0  0  0  0  0  0
    2.1737   -2.1573    3.2828 H   0  0  0  0  0  0  0  0  0  0  0  0
    1.1692   -3.5932    2.9749 H   0  0  0  0  0  0  0  0  0  0  0  0
    2.6088   -3.2739    1.9777 H   0  0  0  0  0  0  0  0  0  0  0  0
  5  6  2  0  0  0  0
  5  7  1  0  0  0  0
  2  3  1  0  0  0  0
  2  4  1  0  0  0  0
  2  5  1  0  0  0  0
  1  2  1  0  0  0  0
 15 16  2  0  0  0  0
 15 17  1  0  0  0  0
 11 12  1  0  0  0  0
 11 13  1  0  0  0  0
 11 14  1  0  0  0  0
  9 10  1  0  0  0  0
  9 11  1  0  0  0  0
  9 15  1  0  0  0  0
  7  8  1  0  0  0  0
  7  9  1  0  0  0  0
 19 20  1  0  0  0  0
 19 21  1  0  0  0  0
 19 22  1  0  0  0  0
 17 18  1  0  0  0  0
 17 19  1  0  0  0  0
M  END
$$$$
default_name
  -OEChem-01062215323D

 22 21  0     1  0  0  0  0  0999 V2000
   -2.5423   -3.6749    0.8058 H   0  0  0  0  0  0  0  0  0  0  0  0
   -2.5063   -2.6779    0.3688 C   0  0  0  0  0  0  0  0  0  0  0  0
   -3.1603   -2.0109    0.9268 H   0  0  0  0  0  0  0  0  0  0  0  0
   -2.8193   -2.7229   -0.6722 H   0  0  0  0  0  0  0  0  0  0  0  0
   -1.0873   -2.1629    0.4418 C   0  0  0  0  0  0  0  0  0  0  0  0
   -0.2073   -2.8549    0.9368 O   0  0  0  0  0  0  0  0  0  0  0  0
   -0.8713   -0.9449   -0.0482 N   0  0  0  0  0  0  0  0  0  0  0  0
   -1.6543   -0.4189   -0.4062 H   0  0  0  0  0  0  0  0  0  0  0  0
    0.4237   -0.2649   -0.0462 C   0  0  1  0  0  0  0  0  0  0  0  0
    0.8453   -0.3063   -1.0519 H   0  0  0  0  0  0  0  0  0  0  0  0
    0.2125    1.2086    0.3343 C   0  0  0  0  0  0  0  0  0  0  0  0
   -0.2131    1.2761    1.3368 H   0  0  0  0  0  0  0  0  0  0  0  0
    1.1636    1.7397    0.3125 H   0  0  0  0  0  0  0  0  0  0  0  0
   -0.4681    1.6791   -0.3774 H   0  0  0  0  0  0  0  0  0  0  0  0
    1.4117   -0.9600    0.9108 C   0  0  0  0  0  0  0  0  0  0  0  0
    2.4525   -0.3971    1.2497 O   0  0  0  0  0  0  0  0  0  0  0  0
    1.0883   -2.1896    1.3311 N   0  0  0  0  0  0  0  0  0  0  0  0
    0.2214   -2.5868    1.0059 H   0  0  0  0  0  0  0  0  0  0  0  0
    1.9173   -2.9893    2.2317 C   0  0  0  0  0  0  0  0  0  0  0  0
    2.1179   -2.4260    3.1452 H   0  0  0  0  0  0  0  0  0  0  0  0
    1.4103   -3.9205    2.4883 H   0  0  0  0  0  0  0  0  0  0  0  0
    2.8694   -3.2176    1.7495 H   0  0  0  0  0  0  0  0  0  0  0  0
  5  6  2  0  0  0  0
  5  7  1  0  0  0  0
  2  3  1  0  0  0  0
  2  4  1  0  0  0  0
  2  5  1  0  0  0  0
  1  2  1  0  0  0  0
 15 16  2  0  0  0  0
 15 17  1  0  0  0  0
 11 12  1  0  0  0  0
 11 13  1  0  0  0  0
 11 14  1  0  0  0  0
  9 10  1  0  0  0  0
  9 11  1  0  0  0  0
  9 15  1  0  0  0  0
  7  8  1  0  0  0  0
  7  9  1  0  0  0  0
 19 20  1  0  0  0  0
 19 21  1  0  0  0  0
 19 22  1  0  0  0  0
 17 18  1  0  0  0  0
 17 19  1  0  0  0  0
M  END
$$$$
default_name
  -OEChem-01062215323D

 22 21  0     1  0  0  0  0  0999 V2000
   -2.5423   -3.6749    0.8058 H   0  0  0  0  0  0  0  0  0  0  0  0
   -2.5063   -2.6779    0.3688 C   0  0  0  0  0  0  0  0  0  0  0  0
   -3.1603   -2.0109    0.9268 H   0  0  0  0  0  0  0  0  0  0  0  0
   -2.8193   -2.7229   -0.6722 H   0  0  0  0  0  0  0  0  0  0  0  0
   -1.0873   -2.1629    0.4418 C   0  0  0  0  0  0  0  0  0  0  0  0
   -0.2073   -2.8549    0.9368 O   0  0  0  0  0  0  0  0  0  0  0  0
   -0.8713   -0.9449   -0.0482 N   0  0  0  0  0  0  0  0  0  0  0  0
   -1.6543   -0.4189   -0.4062 H   0  0  0  0  0  0  0  0  0  0  0  0
    0.4237   -0.2649   -0.0462 C   0  0  1  0  0  0  0  0  0  0  0  0
    0.8453   -0.3063   -1.0519 H   0  0  0  0  0  0  0  0  0  0  0  0
    0.2125    1.2086    0.3343 C   0  0  0  0  0  0  0  0  0  0  0  0
   -0.2131    1.2761    1.3368 H   0  0  0  0  0  0  0  0  0  0  0  0
    1.1636    1.7397    0.3125 H   0  0  0  0  0  0  0  0  0  0  0  0
   -0.4681    1.6791   -0.3774 H   0  0  0  0  0  0  0  0  0  0  0  0
    1.4117   -0.9600    0.9108 C   0  0  0  0  0  0  0  0  0  0  0  0
    2.3006   -0.3148    1.4662 O   0  0  0  0  0  0  0  0  0  0  0  0
    1.2611   -2.2787    1.0879 N   0  0  0  0  0  0  0  0  0  0  0  0
    0.5130   -2.7389    0.5944 H   0  0  0  0  0  0  0  0  0  0  0  0
    2.1171   -3.0897    1.9526 C   0  0  0  0  0  0  0  0  0  0  0  0
    2.1233   -2.6717    2.9612 H   0  0  0  0  0  0  0  0  0  0  0  0
    1.7525   -4.1171    1.9922 H   0  0  0  0  0  0  0  0  0  0  0  0
    3.1387   -3.0836    1.5689 H   0  0  0  0  0  0  0  0  0  0  0  0
  5  6  2  0  0  0  0
  5  7  1  0  0  0  0
  2  3  1  0  0  0  0
  2  4  1  0  0  0  0
  2  5  1  0  0  0  0
  1  2  1  0  0  0  0
 15 16  2  0  0  0  0
 15 17  1  0  0  0  0
 11 12  1  0  0  0  0
 11 13  1  0  0  0  0
 11 14  1  0  0  0  0
  9 10  1  0  0  0  0
  9 11  1  0  0  0  0
  9 15  1  0  0  0  0
  7  8  1  0  0  0  0
  7  9  1  0  0  0  0
 19 20  1  0  0  0  0
 19 21  1  0  0  0  0
 19 22  1  0  0  0  0
 17 18  1  0  0  0  0
 17 19  1  0  0  0  0
M  END
$$$$
default_name
  -OEChem-01062215323D

 22 21  0     1  0  0  0  0  0999 V2000
   -2.5423   -3.6749    0.8058 H   0  0  0  0  0  0  0  0  0  0  0  0
   -2.5063   -2.6779    0.3688 C   0  0  0  0  0  0  0  0  0  0  0  0
   -3.1603   -2.0109    0.9268 H   0  0  0  0  0  0  0  0  0  0  0  0
   -2.8193   -2.7229   -0.6722 H   0  0  0  0  0  0  0  0  0  0  0  0
   -1.0873   -2.1629    0.4418 C   0  0  0  0  0  0  0  0  0  0  0  0
   -0.2073   -2.8549    0.9368 O   0  0  0  0  0  0  0  0  0  0  0  0
   -0.8713   -0.9449   -0.0482 N   0  0  0  0  0  0  0  0  0  0  0  0
   -1.6543   -0.4189   -0.4062 H   0  0  0  0  0  0  0  0  0  0  0  0
    0.4237   -0.2649   -0.0462 C   0  0  1  0  0  0  0  0  0  0  0  0
    0.8453   -0.3063   -1.0519 H   0  0  0  0  0  0  0  0  0  0  0  0
    0.2125    1.2086    0.3343 C   0  0  0  0  0  0  0  0  0  0  0  0
   -0.2131    1.2761    1.3368 H   0  0  0  0  0  0  0  0  0  0  0  0
    1.1636    1.7397    0.3125 H   0  0  0  0  0  0  0  0  0  0  0  0
   -0.4681    1.6791   -0.3774 H   0  0  0  0  0  0  0  0  0  0  0  0
    1.4117   -0.9600    0.9108 C   0  0  0  0  0  0  0  0  0  0  0  0
    2.1154   -0.2957    1.6713 O   0  0  0  0  0  0  0  0  0  0  0  0
    1.4708   -2.2967    0.8584 N   0  0  0  0  0  0  0  0  0  0  0  0
    0.8671   -2.7707    0.2057 H   0  0  0  0  0  0  0  0  0  0  0  0
    2.3587   -3.1083    1.6896 C   0  0  0  0  0  0  0  0  0  0  0  0
    2.1894   -2.8777    2.7433 H   0  0  0  0  0  0  0  0  0  0  0  0
    2.1726   -4.1698    1.5203 H   0  0  0  0  0  0  0  0  0  0  0  0
    3.3984   -2.8809    1.4480 H   0  0  0  0  0  0  0  0  0  0  0  0
  5  6  2  0  0  0  0
  5  7  1  0  0  0  0
  2  3  1  0  0  0  0
  2  4  1  0  0  0  0
  2  5  1  0  0  0  0
  1  2  1  0  0  0  0
 15 16  2  0  0  0  0
 15 17  1  0  0  0  0
 11 12  1  0  0  0  0
 11 13  1  0  0  0  0
 11 14  1  0  0  0  0
  9 10  1  0  0  0  0
  9 11  1  0  0  0  0
  9 15  1  0  0  0  0
  7  8  1  0  0  0  0
  7  9  1  0  0  0  0
 19 20  1  0  0  0  0
 19 21  1  0  0  0  0
 19 22  1  0  0  0  0
 17 18  1  0  0  0  0
 17 19  1  0  0  0  0
M  END
$$$$
default_name
  -OEChem-01062215323D

 22 21  0     1  0  0  0  0  0999 V2000
   -2.5423   -3.6749    0.8058 H   0  0  0  0  0  0  0  0  0  0  0  0
   -2.5063   -2.6779    0.3688 C   0  0  0  0  0  0  0  0  0  0  0  0
   -3.1603   -2.0109    0.9268 H   0  0  0  0  0  0  0  0  0  0  0  0
   -2.8193   -2.7229   -0.6722 H   0  0  0  0  0  0  0  0  0  0  0  0
   -1.0873   -2.1629    0.4418 C   0  0  0  0  0  0  0  0  0  0  0  0
   -0.2073   -2.8549    0.9368 O   0  0  0  0  0  0  0  0  0  0  0  0
   -0.8713   -0.9449   -0.0482 N   0  0  0  0  0  0  0  0  0  0  0  0
   -1.6543   -0.4189   -0.4062 H   0  0  0  0  0  0  0  0  0  0  0  0
    0.4237   -0.2649   -0.0462 C   0  0  1  0  0  0  0  0  0  0  0  0
    0.8453   -0.3063   -1.0519 H   0  0  0  0  0  0  0  0  0  0  0  0
    0.2125    1.2086    0.3343 C   0  0  0  0  0  0  0  0  0  0  0  0
   -0.2131    1.2761    1.3368 H   0  0  0  0  0  0  0  0  0  0  0  0
    1.1636    1.7397    0.3125 H   0  0  0  0  0  0  0  0  0  0  0  0
   -0.4681    1.6791   -0.3774 H   0  0  0  0  0  0  0  0  0  0  0  0
    1.4117   -0.9600    0.9108 C   0  0  0  0  0  0  0  0  0  0  0  0
    1.9095   -0.3410    1.8510 O   0  0  0  0  0  0  0  0  0  0  0  0
    1.7030   -2.2424    0.6581 N   0  0  0  0  0  0  0  0  0  0  0  0
    1.2596   -2.6800   -0.1336 H   0  0  0  0  0  0  0  0  0  0  0  0
    2.6257   -3.0437    1.4608 C   0  0  0  0  0  0  0  0  0  0  0  0
    2.3119   -3.0299    2.5064 H   0  0  0  0  0  0  0  0  0  0  0  0
    2.6419   -4.0748    1.1047 H   0  0  0  0  0  0  0  0  0  0  0  0
    3.6307   -2.6233    1.3953 H   0  0  0  0  0  0  0  0  0  0  0  0
  5  6  2  0  0  0  0
  5  7  1  0  0  0  0
  2  3  1  0  0  0  0
  2  4  1  0  0  0  0
  2  5  1  0  0  0  0
  1  2  1  0  0  0  0
 15 16  2  0  0  0  0
 15 17  1  0  0  0  0
 11 12  1  0  0  0  0
 11 13  1  0  0  0  0
 11 14  1  0  0  0  0
  9 10  1  0  0  0  0
  9 11  1  0  0  0  0
  9 15  1  0  0  0  0
  7  8  1  0  0  0  0
  7  9  1  0  0  0  0
 19 20  1  0  0  0  0
 19 21  1  0  0  0  0
 19 22  1  0  0  0  0
 17 18  1  0  0  0  0
 17 19  1  0  0  0  0
M  END
$$$$
default_name
  -OEChem-01062215323D

 22 21  0     1  0  0  0  0  0999 V2000
   -2.5423   -3.6749    0.8058 H   0  0  0  0  0  0  0  0  0  0  0  0
   -2.5063   -2.6779    0.3688 C   0  0  0  0  0  0  0  0  0  0  0  0
   -3.1603   -2.0109    0.9268 H   0  0  0  0  0  0  0  0  0  0  0  0
   -2.8193   -2.7229   -0.6722 H   0  0  0  0  0  0  0  0  0  0  0  0
   -1.0873   -2.1629    0.4418 C   0  0  0  0  0  0  0  0  0  0  0  0
   -0.2073   -2.8549    0.9368 O   0  0  0  0  0  0  0  0  0  0  0  0
   -0.8713   -0.9449   -0.0482 N   0  0  0  0  0  0  0  0  0  0  0  0
   -1.6543   -0.4189   -0.4062 H   0  0  0  0  0  0  0  0  0  0  0  0
    0.4237   -0.2649   -0.0462 C   0  0  1  0  0  0  0  0  0  0  0  0
    0.8453   -0.3063   -1.0519 H   0  0  0  0  0  0  0  0  0  0  0  0
    0.2125    1.2086    0.3343 C   0  0  0  0  0  0  0  0  0  0  0  0
   -0.2131    1.2761    1.3368 H   0  0  0  0  0  0  0  0  0  0  0  0
    1.1636    1.7397    0.3125 H   0  0  0  0  0  0  0  0  0  0  0  0
   -0.4681    1.6791   -0.3774 H   0  0  0  0  0  0  0  0  0  0  0  0
    1.4117   -0.9600    0.9108 C   0  0  0  0  0  0  0  0  0  0  0  0
    1.6969   -0.4477    1.9929 O   0  0  0  0  0  0  0  0  0  0  0  0
    1.9420   -2.1193    0.5008 N   0  0  0  0  0  0  0  0  0  0  0  0
    1.6638   -2.4730   -0.4005 H   0  0  0  0  0  0  0  0  0  0  0  0
    2.9001   -2.9005    1.2816 C   0  0  0  0  0  0  0  0  0  0  0  0
    2.4822   -3.1179    2.2666 H   0  0  0  0  0  0  0  0  0  0  0  0
    3.1285   -3.8387    0.7739 H   0  0  0  0  0  0  0  0  0  0  0  0
    3.8199   -2.3284    1.4142 H   0  0  0  0  0  0  0  0  0  0  0  0
  5  6  2  0  0  0  0
  5  7  1  0  0  0  0
  2  3  1  0  0  0  0
  2  4  1  0  0  0  0
  2  5  1  0  0  0  0
  1  2  1  0  0  0  0
 15 16  2  0  0  0  0
 15 17  1  0  0  0  0
 11 12  1  0  0  0  0
 11 13  1  0  0  0  0
 11 14  1  0  0  0  0
  9 10  1  0  0  0  0
  9 11  1  0  0  0  0
  9 15  1  0  0  0  0
  7  8  1  0  0  0  0
  7  9  1  0  0  0  0
 19 20  1  0  0  0  0
 19 21  1  0  0  0  0
 19 22  1  0  0  0  0
 17 18  1  0  0  0  0
 17 19  1  0  0  0  0
M  END
$$$$
default_name
  -OEChem-01062215323D

 22 21  0     1  0  0  0  0  0999 V2000
   -2.5423   -3.6749    0.8058 H   0  0  0  0  0  0  0  0  0  0  0  0
   -2.5063   -2.6779    0.3688 C   0  0  0  0  0  0  0  0  0  0  0  0
   -3.1603   -2.0109    0.9268 H   0  0  0  0  0  0  0  0  0  0  0  0
   -2.8193   -2.7229   -0.6722 H   0  0  0  0  0  0  0  0  0  0  0  0
   -1.0873   -2.1629    0.4418 C   0  0  0  0  0  0  0  0  0  0  0  0
   -0.2073   -2.8549    0.9368 O   0  0  0  0  0  0  0  0  0  0  0  0
   -0.8713   -0.9449   -0.0482 N   0  0  0  0  0  0  0  0  0  0  0  0
   -1.6543   -0.4189   -0.4062 H   0  0  0  0  0  0  0  0  0  0  0  0
    0.4237   -0.2649   -0.0462 C   0  0  1  0  0  0  0  0  0  0  0  0
    0.8453   -0.3063   -1.0519 H   0  0  0  0  0  0  0  0  0  0  0  0
    0.2125    1.2086    0.3343 C   0  0  0  0  0  0  0  0  0  0  0  0
   -0.2131    1.2761    1.3368 H   0  0  0  0  0  0  0  0  0  0  0  0
    1.1636    1.7397    0.3125 H   0  0  0  0  0  0  0  0  0  0  0  0
   -0.4681    1.6791   -0.3774 H   0  0  0  0  0  0  0  0  0  0  0  0
    1.4117   -0.9600    0.9108 C   0  0  0  0  0  0  0  0  0  0  0  0
    1.4922   -0.6085    2.0876 O   0  0  0  0  0  0  0  0  0  0  0  0
    2.1714   -1.9359    0.3972 N   0  0  0  0  0  0  0  0  0  0  0  0
    2.0521   -2.1638   -0.5768 H   0  0  0  0  0  0  0  0  0  0  0  0
    3.1629   -2.6884    1.1643 C   0  0  0  0  0  0  0  0  0  0  0  0
    2.6889   -3.1357    2.0403 H   0  0  0  0  0  0  0  0  0  0  0  0
    3.5992   -3.4775    0.5503 H   0  0  0  0  0  0  0  0  0  0  0  0
    3.9530   -2.0163    1.5034 H   0  0  0  0  0  0  0  0  0  0  0  0
  5  6  2  0  0  0  0
  5  7  1  0  0  0  0
  2  3  1  0  0  0  0
  2  4  1  0  0  0  0
  2  5  1  0  0  0  0
  1  2  1  0  0  0  0
 15 16  2  0  0  0  0
 15 17  1  0  0  0  0
 11 12  1  0  0  0  0
 11 13  1  0  0  0  0
 11 14  1  0  0  0  0
  9 10  1  0  0  0  0
  9 11  1  0  0  0  0
  9 15  1  0  0  0  0
  7  8  1  0  0  0  0
  7  9  1  0  0  0  0
 19 20  1  0  0  0  0
 19 21  1  0  0  0  0
 19 22  1  0  0  0  0
 17 18  1  0  0  0  0
 17 19  1  0  0  0  0
M  END
$$$$
default_name
  -OEChem-01062215323D

 22 21  0     1  0  0  0  0  0999 V2000
   -2.5423   -3.6749    0.8058 H   0  0  0  0  0  0  0  0  0  0  0  0
   -2.5063   -2.6779    0.3688 C   0  0  0  0  0  0  0  0  0  0  0  0
   -3.1603   -2.0109    0.9268 H   0  0  0  0  0  0  0  0  0  0  0  0
   -2.8193   -2.7229   -0.6722 H   0  0  0  0  0  0  0  0  0  0  0  0
   -1.0873   -2.1629    0.4418 C   0  0  0  0  0  0  0  0  0  0  0  0
   -0.2073   -2.8549    0.9368 O   0  0  0  0  0  0  0  0  0  0  0  0
   -0.8713   -0.9449   -0.0482 N   0  0  0  0  0  0  0  0  0  0  0  0
   -1.6543   -0.4189   -0.4062 H   0  0  0  0  0  0  0  0  0  0  0  0
    0.4237   -0.2649   -0.0462 C   0  0  1  0  0  0  0  0  0  0  0  0
    0.8453   -0.3063   -1.0519 H   0  0  0  0  0  0  0  0  0  0  0  0
    0.2125    1.2086    0.3343 C   0  0  0  0  0  0  0  0  0  0  0  0
   -0.2131    1.2761    1.3368 H   0  0  0  0  0  0  0  0  0  0  0  0
    1.1636    1.7397    0.3125 H   0  0  0  0  0  0  0  0  0  0  0  0
   -0.4681    1.6791   -0.3774 H   0  0  0  0  0  0  0  0  0  0  0  0
    1.4117   -0.9600    0.9108 C   0  0  0  0  0  0  0  0  0  0  0  0
    1.3092   -0.8123    2.1284 O   0  0  0  0  0  0  0  0  0  0  0  0
    2.3756   -1.7047    0.3544 N   0  0  0  0  0  0  0  0  0  0  0  0
    2.3980   -1.7735   -0.6505 H   0  0  0  0  0  0  0  0  0  0  0  0
    3.3964   -2.4218    1.1169 C   0  0  0  0  0  0  0  0  0  0  0  0
    2.9179   -3.0821    1.8429 H   0  0  0  0  0  0  0  0  0  0  0  0
    4.0219   -3.0159    0.4492 H   0  0  0  0  0  0  0  0  0  0  0  0
    4.0211   -1.7082    1.6570 H   0  0  0  0  0  0  0  0  0  0  0  0
  5  6  2  0  0  0  0
  5  7  1  0  0  0  0
  2  3  1  0  0  0  0
  2  4  1  0  0  0  0
  2  5  1  0  0  0  0
  1  2  1  0  0  0  0
 15 16  2  0  0  0  0
 15 17  1  0  0  0  0
 11 12  1  0  0  0  0
 11 13  1  0  0  0  0
 11 14  1  0  0  0  0
  9 10  1  0  0  0  0
  9 11  1  0  0  0  0
  9 15  1  0  0  0  0
  7  8  1  0  0  0  0
  7  9  1  0  0  0  0
 19 20  1  0  0  0  0
 19 21  1  0  0  0  0
 19 22  1  0  0  0  0
 17 18  1  0  0  0  0
 17 19  1  0  0  0  0
M  END
$$$$
default_name
  -OEChem-01062215323D

 22 21  0     1  0  0  0  0  0999 V2000
   -2.5423   -3.6749    0.8058 H   0  0  0  0  0  0  0  0  0  0  0  0
   -2.5063   -2.6779    0.3688 C   0  0  0  0  0  0  0  0  0  0  0  0
   -3.1603   -2.0109    0.9268 H   0  0  0  0  0  0  0  0  0  0  0  0
   -2.8193   -2.7229   -0.6722 H   0  0  0  0  0  0  0  0  0  0  0  0
   -1.0873   -2.1629    0.4418 C   0  0  0  0  0  0  0  0  0  0  0  0
   -0.2073   -2.8549    0.9368 O   0  0  0  0  0  0  0  0  0  0  0  0
   -0.8713   -0.9449   -0.0482 N   0  0  0  0  0  0  0  0  0  0  0  0
   -1.6543   -0.4189   -0.4062 H   0  0  0  0  0  0  0  0  0  0  0  0
    0.4237   -0.2649   -0.0462 C   0  0  1  0  0  0  0  0  0  0  0  0
    0.8453   -0.3063   -1.0519 H   0  0  0  0  0  0  0  0  0  0  0  0
    0.2125    1.2086    0.3343 C   0  0  0  0  0  0  0  0  0  0  0  0
   -0.2131    1.2761    1.3368 H   0  0  0  0  0  0  0  0  0  0  0  0
    1.1636    1.7397    0.3125 H   0  0  0  0  0  0  0  0  0  0  0  0
   -0.4681    1.6791   -0.3774 H   0  0  0  0  0  0  0  0  0  0  0  0
    1.4117   -0.9600    0.9108 C   0  0  0  0  0  0  0  0  0  0  0  0
    1.1604   -1.0455    2.1126 O   0  0  0  0  0  0  0  0  0  0  0  0
    2.5406   -1.4414    0.3752 N   0  0  0  0  0  0  0  0  0  0  0  0
    2.6781   -1.3287   -0.6165 H   0  0  0  0  0  0  0  0  0  0  0  0
    3.5847   -2.1188    1.1426 C   0  0  0  0  0  0  0  0  0  0  0  0
    3.1534   -2.9609    1.6878 H   0  0  0  0  0  0  0  0  0  0  0  0
    4.3678   -2.4853    0.4775 H   0  0  0  0  0  0  0  0  0  0  0  0
    4.0193   -1.4251    1.8644 H   0  0  0  0  0  0  0  0  0  0  0  0
  5  6  2  0  0  0  0
  5  7  1  0  0  0  0
  2  3  1  0  0  0  0
  2  4  1  0  0  0  0
  2  5  1  0  0  0  0
  1  2  1  0  0  0  0
 15 16  2  0  0  0  0
 15 17  1  0  0  0  0
 11 12  1  0  0  0  0
 11 13  1  0  0  0  0
 11 14  1  0  0  0  0
  9 10  1  0  0  0  0
  9 11  1  0  0  0  0
  9 15  1  0  0  0  0
  7  8  1  0  0  0  0
  7  9  1  0  0  0  0
 19 20  1  0  0  0  0
 19 21  1  0  0  0  0
 19 22  1  0  0  0  0
 17 18  1  0  0  0  0
 17 19  1  0  0  0  0
M  END
$$$$
default_name
  -OEChem-01062215323D

 22 21  0     1  0  0  0  0  0999 V2000
   -2.5423   -3.6749    0.8058 H   0  0  0  0  0  0  0  0  0  0  0  0
   -2.5063   -2.6779    0.3688 C   0  0  0  0  0  0  0  0  0  0  0  0
   -3.1603   -2.0109    0.9268 H   0  0  0  0  0  0  0  0  0  0  0  0
   -2.8193   -2.7229   -0.6722 H   0  0  0  0  0  0  0  0  0  0  0  0
   -1.0873   -2.1629    0.4418 C   0  0  0  0  0  0  0  0  0  0  0  0
   -0.2073   -2.8549    0.9368 O   0  0  0  0  0  0  0  0  0  0  0  0
   -0.8713   -0.9449   -0.0482 N   0  0  0  0  0  0  0  0  0  0  0  0
   -1.6543   -0.4189   -0.4062 H   0  0  0  0  0  0  0  0  0  0  0  0
    0.4237   -0.2649   -0.0462 C   0  0  1  0  0  0  0  0  0  0  0  0
    0.8453   -0.3063   -1.0519 H   0  0  0  0  0  0  0  0  0  0  0  0
    0.2125    1.2086    0.3343 C   0  0  0  0  0  0  0  0  0  0  0  0
   -0.2131    1.2761    1.3368 H   0  0  0  0  0  0  0  0  0  0  0  0
    1.1636    1.7397    0.3125 H   0  0  0  0  0  0  0  0  0  0  0  0
   -0.4681    1.6791   -0.3774 H   0  0  0  0  0  0  0  0  0  0  0  0
    1.4117   -0.9600    0.9108 C   0  0  0  0  0  0  0  0  0  0  0  0
    1.0560   -1.2919    2.0414 O   0  0  0  0  0  0  0  0  0  0  0  0
    2.6553   -1.1640    0.4582 N   0  0  0  0  0  0  0  0  0  0  0  0
    2.8731   -0.8596   -0.4772 H   0  0  0  0  0  0  0  0  0  0  0  0
    3.7148   -1.8002    1.2397 C   0  0  0  0  0  0  0  0  0  0  0  0
    3.3796   -2.7801    1.5855 H   0  0  0  0  0  0  0  0  0  0  0  0
    4.6134   -1.9219    0.6332 H   0  0  0  0  0  0  0  0  0  0  0  0
    3.9479   -1.1864    2.1114 H   0  0  0  0  0  0  0  0  0  0  0  0
  5  6  2  0  0  0  0
  5  7  1  0  0  0  0
  2  3  1  0  0  0  0
  2  4  1  0  0  0  0
  2  5  1  0  0  0  0
  1  2  1  0  0  0  0
 15 16  2  0  0  0  0
 15 17  1  0  0  0  0
 11 12  1  0  0  0  0
 11 13  1  0  0  0  0
 11 14  1  0  0  0  0
  9 10  1  0  0  0  0
  9 11  1  0  0  0  0
  9 15  1  0  0  0  0
  7  8  1  0  0  0  0
  7  9  1  0  0  0  0
 19 20  1  0  0  0  0
 19 21  1  0  0  0  0
 19 22  1  0  0  0  0
 17 18  1  0  0  0  0
 17 19  1  0  0  0  0
M  END
$$$$
default_name
  -OEChem-01062215323D

 22 21  0     1  0  0  0  0  0999 V2000
   -2.5423   -3.6749    0.8058 H   0  0  0  0  0  0  0  0  0  0  0  0
   -2.5063   -2.6779    0.3688 C   0  0  0  0  0  0  0  0  0  0  0  0
   -3.1603   -2.0109    0.9268 H   0  0  0  0  0  0  0  0  0  0  0  0
   -2.8193   -2.7229   -0.6722 H   0  0  0  0  0  0  0  0  0  0  0  0
   -1.0873   -2.1629    0.4418 C   0  0  0  0  0  0  0  0  0  0  0  0
   -0.2073   -2.8549    0.9368 O   0  0  0  0  0  0  0  0  0  0  0  0
   -0.8713   -0.9449   -0.0482 N   0  0  0  0  0  0  0  0  0  0  0  0
   -1.6543   -0.4189   -0.4062 H   0  0  0  0  0  0  0  0  0  0  0  0
    0.4237   -0.2649   -0.0462 C   0  0  1  0  0  0  0  0  0  0  0  0
    0.8453   -0.3063   -1.0519 H   0  0  0  0  0  0  0  0  0  0  0  0
    0.2125    1.2086    0.3343 C   0  0  0  0  0  0  0  0  0  0  0  0
   -0.2131    1.2761    1.3368 H   0  0  0  0  0  0  0  0  0  0  0  0
    1.1636    1.7397    0.3125 H   0  0  0  0  0  0  0  0  0  0  0  0
   -0.4681    1.6791   -0.3774 H   0  0  0  0  0  0  0  0  0  0  0  0
    1.4117   -0.9600    0.9108 C   0  0  0  0  0  0  0  0  0  0  0  0
    1.0032   -1.5350    1.9195 O   0  0  0  0  0  0  0  0  0  0  0  0
    2.7119   -0.8915    0.5978 N   0  0  0  0  0  0  0  0  0  0  0  0
    2.9699   -0.3984   -0.2420 H   0  0  0  0  0  0  0  0  0  0  0  0
    3.7779   -1.4877    1.4015 C   0  0  0  0  0  0  0  0  0  0  0  0
    3.5809   -2.5522    1.5432 H   0  0  0  0  0  0  0  0  0  0  0  0
    4.7418   -1.3641    0.9058 H   0  0  0  0  0  0  0  0  0  0  0  0
    3.8118   -1.0083    2.3814 H   0  0  0  0  0  0  0  0  0  0  0  0
  5  6  2  0  0  0  0
  5  7  1  0  0  0  0
  2  3  1  0  0  0  0
  2  4  1  0  0  0  0
  2  5  1  0  0  0  0
  1  2  1  0  0  0  0
 15 16  2  0  0  0  0
 15 17  1  0  0  0  0
 11 12  1  0  0  0  0
 11 13  1  0  0  0  0
 11 14  1  0  0  0  0
  9 10  1  0  0  0  0
  9 11  1  0  0  0  0
  9 15  1  0  0  0  0
  7  8  1  0  0  0  0
  7  9  1  0  0  0  0
 19 20  1  0  0  0  0
 19 21  1  0  0  0  0
 19 22  1  0  0  0  0
 17 18  1  0  0  0  0
 17 19  1  0  0  0  0
M  END
$$$$
default_name
  -OEChem-01062215323D

 22 21  0     1  0  0  0  0  0999 V2000
   -2.5423   -3.6749    0.8058 H   0  0  0  0  0  0  0  0  0  0  0  0
   -2.5063   -2.6779    0.3688 C   0  0  0  0  0  0  0  0  0  0  0  0
   -3.1603   -2.0109    0.9268 H   0  0  0  0  0  0  0  0  0  0  0  0
   -2.8193   -2.7229   -0.6722 H   0  0  0  0  0  0  0  0  0  0  0  0
   -1.0873   -2.1629    0.4418 C   0  0  0  0  0  0  0  0  0  0  0  0
   -0.2073   -2.8549    0.9368 O   0  0  0  0  0  0  0  0  0  0  0  0
   -0.8713   -0.9449   -0.0482 N   0  0  0  0  0  0  0  0  0  0  0  0
   -1.6543   -0.4189   -0.4062 H   0  0  0  0  0  0  0  0  0  0  0  0
    0.4237   -0.2649   -0.0462 C   0  0  1  0  0  0  0  0  0  0  0  0
    0.8453   -0.3063   -1.0519 H   0  0  0  0  0  0  0  0  0  0  0  0
    0.2125    1.2086    0.3343 C   0  0  0  0  0  0  0  0  0  0  0  0
   -0.2131    1.2761    1.3368 H   0  0  0  0  0  0  0  0  0  0  0  0
    1.1636    1.7397    0.3125 H   0  0  0  0  0  0  0  0  0  0  0  0
   -0.4681    1.6791   -0.3774 H   0  0  0  0  0  0  0  0  0  0  0  0
    1.4117   -0.9600    0.9108 C   0  0  0  0  0  0  0  0  0  0  0  0
    1.0054   -1.7580    1.7552 O   0  0  0  0  0  0  0  0  0  0  0  0
    2.7064   -0.6423    0.7845 N   0  0  0  0  0  0  0  0  0  0  0  0
    2.9617    0.0237    0.0730 H   0  0  0  0  0  0  0  0  0  0  0  0
    3.7698   -1.2025    1.6170 C   0  0  0  0  0  0  0  0  0  0  0  0
    3.7437   -2.2927    1.5636 H   0  0  0  0  0  0  0  0  0  0  0  0
    4.7444   -0.8498    1.2766 H   0  0  0  0  0  0  0  0  0  0  0  0
    3.6201   -0.9030    2.6558 H   0  0  0  0  0  0  0  0  0  0  0  0
  5  6  2  0  0  0  0
  5  7  1  0  0  0  0
  2  3  1  0  0  0  0
  2  4  1  0  0  0  0
  2  5  1  0  0  0  0
  1  2  1  0  0  0  0
 15 16  2  0  0  0  0
 15 17  1  0  0  0  0
 11 12  1  0  0  0  0
 11 13  1  0  0  0  0
 11 14  1  0  0  0  0
  9 10  1  0  0  0  0
  9 11  1  0  0  0  0
  9 15  1  0  0  0  0
  7  8  1  0  0  0  0
  7  9  1  0  0  0  0
 19 20  1  0  0  0  0
 19 21  1  0  0  0  0
 19 22  1  0  0  0  0
 17 18  1  0  0  0  0
 17 19  1  0  0  0  0
M  END
$$$$
default_name
  -OEChem-01062215323D

 22 21  0     1  0  0  0  0  0999 V2000
   -2.5423   -3.6749    0.8058 H   0  0  0  0  0  0  0  0  0  0  0  0
   -2.5063   -2.6779    0.3688 C   0  0  0  0  0  0  0  0  0  0  0  0
   -3.1603   -2.0109    0.9268 H   0  0  0  0  0  0  0  0  0  0  0  0
   -2.8193   -2.7229   -0.6722 H   0  0  0  0  0  0  0  0  0  0  0  0
   -1.0873   -2.1629    0.4418 C   0  0  0  0  0  0  0  0  0  0  0  0
   -0.2073   -2.8549    0.9368 O   0  0  0  0  0  0  0  0  0  0  0  0
   -0.8713   -0.9449   -0.0482 N   0  0  0  0  0  0  0  0  0  0  0  0
   -1.6543   -0.4189   -0.4062 H   0  0  0  0  0  0  0  0  0  0  0  0
    0.4237   -0.2649   -0.0462 C   0  0  1  0  0  0  0  0  0  0  0  0
    0.7206   -0.0687   -1.0778 H   0  0  0  0  0  0  0  0  0  0  0  0
    0.2800    1.0790    0.6844 C   0  0  0  0  0  0  0  0  0  0  0  0
   -0.0209    0.9089    1.7194 H   0  0  0  0  0  0  0  0  0  0  0  0
    1.2287    1.6146    0.6707 H   0  0  0  0  0  0  0  0  0  0  0  0
   -0.4748    1.6902    0.1867 H   0  0  0  0  0  0  0  0  0  0  0  0
    1.5101   -1.1465    0.6001 C   0  0  0  0  0  0  0  0  0  0  0  0
    1.2281   -2.2597    1.0430 O   0  0  0  0  0  0  0  0  0  0  0  0
    2.7472   -0.6380    0.6646 N   0  0  0  0  0  0  0  0  0  0  0  0
    2.8994    0.2827    0.2851 H   0  0  0  0  0  0  0  0  0  0  0  0
    3.8882   -1.3378    1.2530 C   0  0  0  0  0  0  0  0  0  0  0  0
    4.0112   -2.3106    0.7728 H   0  0  0  0  0  0  0  0  0  0  0  0
    4.8007   -0.7547    1.1212 H   0  0  0  0  0  0  0  0  0  0  0  0
    3.7124   -1.4973    2.3183 H   0  0  0  0  0  0  0  0  0  0  0  0
  5  6  2  0  0  0  0
  5  7  1  0  0  0  0
  2  3  1  0  0  0  0
  2  4  1  0  0  0  0
  2  5  1  0  0  0  0
  1  2  1  0  0  0  0
 15 16  2  0  0  0  0
 15 17  1  0  0  0  0
 11 12  1  0  0  0  0
 11 13  1  0  0  0  0
 11 14  1  0  0  0  0
  9 10  1  0  0  0  0
  9 11  1  0  0  0  0
  9 15  1  0  0  0  0
  7  8  1  0  0  0  0
  7  9  1  0  0  0  0
 19 20  1  0  0  0  0
 19 21  1  0  0  0  0
 19 22  1  0  0  0  0
 17 18  1  0  0  0  0
 17 19  1  0  0  0  0
M  END
$$$$
default_name
  -OEChem-01062215323D

 22 21  0     1  0  0  0  0  0999 V2000
   -2.5423   -3.6749    0.8058 H   0  0  0  0  0  0  0  0  0  0  0  0
   -2.5063   -2.6779    0.3688 C   0  0  0  0  0  0  0  0  0  0  0  0
   -3.1603   -2.0109    0.9268 H   0  0  0  0  0  0  0  0  0  0  0  0
   -2.8193   -2.7229   -0.6722 H   0  0  0  0  0  0  0  0  0  0  0  0
   -1.0873   -2.1629    0.4418 C   0  0  0  0  0  0  0  0  0  0  0  0
   -0.2073   -2.8549    0.9368 O   0  0  0  0  0  0  0  0  0  0  0  0
   -0.8713   -0.9449   -0.0482 N   0  0  0  0  0  0  0  0  0  0  0  0
   -1.6543   -0.4189   -0.4062 H   0  0  0  0  0  0  0  0  0  0  0  0
    0.4237   -0.2649   -0.0462 C   0  0  1  0  0  0  0  0  0  0  0  0
    0.7206   -0.0687   -1.0778 H   0  0  0  0  0  0  0  0  0  0  0  0
    0.2800    1.0790    0.6844 C   0  0  0  0  0  0  0  0  0  0  0  0
   -0.0209    0.9089    1.7194 H   0  0  0  0  0  0  0  0  0  0  0  0
    1.2287    1.6146    0.6707 H   0  0  0  0  0  0  0  0  0  0  0  0
   -0.4748    1.6902    0.1867 H   0  0  0  0  0  0  0  0  0  0  0  0
    1.5101   -1.1465    0.6001 C   0  0  0  0  0  0  0  0  0  0  0  0
    1.3080   -2.3453    0.7920 O   0  0  0  0  0  0  0  0  0  0  0  0
    2.6549   -0.5447    0.9470 N   0  0  0  0  0  0  0  0  0  0  0  0
    2.7443    0.4417    0.7627 H   0  0  0  0  0  0  0  0  0  0  0  0
    3.7807   -1.2325    1.5774 C   0  0  0  0  0  0  0  0  0  0  0  0
    4.0869   -2.0798    0.9606 H   0  0  0  0  0  0  0  0  0  0  0  0
    4.6244   -0.5511    1.6952 H   0  0  0  0  0  0  0  0  0  0  0  0
    3.4804   -1.6080    2.5571 H   0  0  0  0  0  0  0  0  0  0  0  0
  5  6  2  0  0  0  0
  5  7  1  0  0  0  0
  2  3  1  0  0  0  0
  2  4  1  0  0  0  0
  2  5  1  0  0  0  0
  1  2  1  0  0  0  0
 15 16  2  0  0  0  0
 15 17  1  0  0  0  0
 11 12  1  0  0  0  0
 11 13  1  0  0  0  0
 11 14  1  0  0  0  0
  9 10  1  0  0  0  0
  9 11  1  0  0  0  0
  9 15  1  0  0  0  0
  7  8  1  0  0  0  0
  7  9  1  0  0  0  0
 19 20  1  0  0  0  0
 19 21  1  0  0  0  0
 19 22  1  0  0  0  0
 17 18  1  0  0  0  0
 17 19  1  0  0  0  0
M  END
$$$$
default_name
  -OEChem-01062215323D

 22 21  0     1  0  0  0  0  0999 V2000
   -2.5423   -3.6749    0.8058 H   0  0  0  0  0  0  0  0  0  0  0  0
   -2.5063   -2.6779    0.3688 C   0  0  0  0  0  0  0  0  0  0  0  0
   -3.1603   -2.0109    0.9268 H   0  0  0  0  0  0  0  0  0  0  0  0
   -2.8193   -2.7229   -0.6722 H   0  0  0  0  0  0  0  0  0  0  0  0
   -1.0873   -2.1629    0.4418 C   0  0  0  0  0  0  0  0  0  0  0  0
   -0.2073   -2.8549    0.9368 O   0  0  0  0  0  0  0  0  0  0  0  0
   -0.8713   -0.9449   -0.0482 N   0  0  0  0  0  0  0  0  0  0  0  0
   -1.6543   -0.4189   -0.4062 H   0  0  0  0  0  0  0  0  0  0  0  0
    0.4237   -0.2649   -0.0462 C   0  0  1  0  0  0  0  0  0  0  0  0
    0.7206   -0.0687   -1.0778 H   0  0  0  0  0  0  0  0  0  0  0  0
    0.2800    1.0790    0.6844 C   0  0  0  0  0  0  0  0  0  0  0  0
   -0.0209    0.9089    1.7194 H   0  0  0  0  0  0  0  0  0  0  0  0
    1.2287    1.6146    0.6707 H   0  0  0  0  0  0  0  0  0  0  0  0
   -0.4748    1.6902    0.1867 H   0  0  0  0  0  0  0  0  0  0  0  0
    1.5101   -1.1465    0.6001 C   0  0  0  0  0  0  0  0  0  0  0  0
    1.4315   -2.3736    0.5457 O   0  0  0  0  0  0  0  0  0  0  0  0
    2.5138   -0.5161    1.2232 N   0  0  0  0  0  0  0  0  0  0  0  0
    2.5065    0.4913    1.2301 H   0  0  0  0  0  0  0  0  0  0  0  0
    3.6175   -1.2016    1.8940 C   0  0  0  0  0  0  0  0  0  0  0  0
    4.1071   -1.8829    1.1953 H   0  0  0  0  0  0  0  0  0  0  0  0
    4.3471   -0.4782    2.2606 H   0  0  0  0  0  0  0  0  0  0  0  0
    3.2330   -1.7837    2.7333 H   0  0  0  0  0  0  0  0  0  0  0  0
  5  6  2  0  0  0  0
  5  7  1  0  0  0  0
  2  3  1  0  0  0  0
  2  4  1  0  0  0  0
  2  5  1  0  0  0  0
  1  2  1  0  0  0  0
 15 16  2  0  0  0  0
 15 17  1  0  0  0  0
 11 12  1  0  0  0  0
 11 13  1  0  0  0  0
 11 14  1  0  0  0  0
  9 10  1  0  0  0  0
  9 11  1  0  0  0  0
  9 15  1  0  0  0  0
  7  8  1  0  0  0  0
  7  9  1  0  0  0  0
 19 20  1  0  0  0  0
 19 21  1  0  0  0  0
 19 22  1  0  0  0  0
 17 18  1  0  0  0  0
 17 19  1  0  0  0  0
M  END
$$$$
default_name
  -OEChem-01062215323D

 22 21  0     1  0  0  0  0  0999 V2000
   -2.5423   -3.6749    0.8058 H   0  0  0  0  0  0  0  0  0  0  0  0
   -2.5063   -2.6779    0.3688 C   0  0  0  0  0  0  0  0  0  0  0  0
   -3.1603   -2.0109    0.9268 H   0  0  0  0  0  0  0  0  0  0  0  0
   -2.8193   -2.7229   -0.6722 H   0  0  0  0  0  0  0  0  0  0  0  0
   -1.0873   -2.1629    0.4418 C   0  0  0  0  0  0  0  0  0  0  0  0
   -0.2073   -2.8549    0.9368 O   0  0  0  0  0  0  0  0  0  0  0  0
   -0.8713   -0.9449   -0.0482 N   0  0  0  0  0  0  0  0  0  0  0  0
   -1.6543   -0.4189   -0.4062 H   0  0  0  0  0  0  0  0  0  0  0  0
    0.4237   -0.2649   -0.0462 C   0  0  1  0  0  0  0  0  0  0  0  0
    0.7206   -0.0687   -1.0778 H   0  0  0  0  0  0  0  0  0  0  0  0
    0.2800    1.0790    0.6844 C   0  0  0  0  0  0  0  0  0  0  0  0
   -0.0209    0.9089    1.7194 H   0  0  0  0  0  0  0  0  0  0  0  0
    1.2287    1.6146    0.6707 H   0  0  0  0  0  0  0  0  0  0  0  0
   -0.4748    1.6902    0.1867 H   0  0  0  0  0  0  0  0  0  0  0  0
    1.5101   -1.1465    0.6001 C   0  0  0  0  0  0  0  0  0  0  0  0
    1.5904   -2.3426    0.3210 O   0  0  0  0  0  0  0  0  0  0  0  0
    2.3336   -0.5542    1.4742 N   0  0  0  0  0  0  0  0  0  0  0  0
    2.2022    0.4281    1.6554 H   0  0  0  0  0  0  0  0  0  0  0  0
    3.4095   -1.2472    2.1813 C   0  0  0  0  0  0  0  0  0  0  0  0
    4.0705   -1.7333    1.4609 H   0  0  0  0  0  0  0  0  0  0  0  0
    3.9877   -0.5412    2.7791 H   0  0  0  0  0  0  0  0  0  0  0  0
    2.9871   -2.0124    2.8348 H   0  0  0  0  0  0  0  0  0  0  0  0
  5  6  2  0  0  0  0
  5  7  1  0  0  0  0
  2  3  1  0  0  0  0
  2  4  1  0  0  0  0
  2  5  1  0  0  0  0
  1  2  1  0  0  0  0
 15 16  2  0  0  0  0
 15 17  1  0  0  0  0
 11 12  1  0  0  0  0
 11 13  1  0  0  0  0
 11 14  1  0  0  0  0
  9 10  1  0  0  0  0
  9 11  1  0  0  0  0
  9 15  1  0  0  0  0
  7  8  1  0  0  0  0
  7  9  1  0  0  0  0
 19 20  1  0  0  0  0
 19 21  1  0  0  0  0
 19 22  1  0  0  0  0
 17 18  1  0  0  0  0
 17 19  1  0  0  0  0
M  END
$$$$
default_name
  -OEChem-01062215323D

 22 21  0     1  0  0  0  0  0999 V2000
   -2.5423   -3.6749    0.8058 H   0  0  0  0  0  0  0  0  0  0  0  0
   -2.5063   -2.6779    0.3688 C   0  0  0  0  0  0  0  0  0  0  0  0
   -3.1603   -2.0109    0.9268 H   0  0  0  0  0  0  0  0  0  0  0  0
   -2.8193   -2.7229   -0.6722 H   0  0  0  0  0  0  0  0  0  0  0  0
   -1.0873   -2.1629    0.4418 C   0  0  0  0  0  0  0  0  0  0  0  0
   -0.2073   -2.8549    0.9368 O   0  0  0  0  0  0  0  0  0  0  0  0
   -0.8713   -0.9449   -0.0482 N   0  0  0  0  0  0  0  0  0  0  0  0
   -1.6543   -0.4189   -0.4062 H   0  0  0  0  0  0  0  0  0  0  0  0
    0.4237   -0.2649   -0.0462 C   0  0  1  0  0  0  0  0  0  0  0  0
    0.7206   -0.0687   -1.0778 H   0  0  0  0  0  0  0  0  0  0  0  0
    0.2800    1.0790    0.6844 C   0  0  0  0  0  0  0  0  0  0  0  0
   -0.0209    0.9089    1.7194 H   0  0  0  0  0  0  0  0  0  0  0  0
    1.2287    1.6146    0.6707 H   0  0  0  0  0  0  0  0  0  0  0  0
   -0.4748    1.6902    0.1867 H   0  0  0  0  0  0  0  0  0  0  0  0
    1.5101   -1.1465    0.6001 C   0  0  0  0  0  0  0  0  0  0  0  0
    1.7738   -2.2544    0.1331 O   0  0  0  0  0  0  0  0  0  0  0  0
    2.1264   -0.6564    1.6831 N   0  0  0  0  0  0  0  0  0  0  0  0
    1.8522    0.2564    2.0096 H   0  0  0  0  0  0  0  0  0  0  0  0
    3.1711   -1.3663    2.4197 C   0  0  0  0  0  0  0  0  0  0  0  0
    3.9795   -1.6412    1.7393 H   0  0  0  0  0  0  0  0  0  0  0  0
    3.5705   -0.7356    3.2152 H   0  0  0  0  0  0  0  0  0  0  0  0
    2.7593   -2.2786    2.8547 H   0  0  0  0  0  0  0  0  0  0  0  0
  5  6  2  0  0  0  0
  5  7  1  0  0  0  0
  2  3  1  0  0  0  0
  2  4  1  0  0  0  0
  2  5  1  0  0  0  0
  1  2  1  0  0  0  0
 15 16  2  0  0  0  0
 15 17  1  0  0  0  0
 11 12  1  0  0  0  0
 11 13  1  0  0  0  0
 11 14  1  0  0  0  0
  9 10  1  0  0  0  0
  9 11  1  0  0  0  0
  9 15  1  0  0  0  0
  7  8  1  0  0  0  0
  7  9  1  0  0  0  0
 19 20  1  0  0  0  0
 19 21  1  0  0  0  0
 19 22  1  0  0  0  0
 17 18  1  0  0  0  0
 17 19  1  0  0  0  0
M  END
$$$$
default_name
  -OEChem-01062215323D

 22 21  0     1  0  0  0  0  0999 V2000
   -2.5423   -3.6749    0.8058 H   0  0  0  0  0  0  0  0  0  0  0  0
   -2.5063   -2.6779    0.3688 C   0  0  0  0  0  0  0  0  0  0  0  0
   -3.1603   -2.0109    0.9268 H   0  0  0  0  0  0  0  0  0  0  0  0
   -2.8193   -2.7229   -0.6722 H   0  0  0  0  0  0  0  0  0  0  0  0
   -1.0873   -2.1629    0.4418 C   0  0  0  0  0  0  0  0  0  0  0  0
   -0.2073   -2.8549    0.9368 O   0  0  0  0  0  0  0  0  0  0  0  0
   -0.8713   -0.9449   -0.0482 N   0  0  0  0  0  0  0  0  0  0  0  0
   -1.6543   -0.4189   -0.4062 H   0  0  0  0  0  0  0  0  0  0  0  0
    0.4237   -0.2649   -0.0462 C   0  0  1  0  0  0  0  0  0  0  0  0
    0.7206   -0.0687   -1.0778 H   0  0  0  0  0  0  0  0  0  0  0  0
    0.2800    1.0790    0.6844 C   0  0  0  0  0  0  0  0  0  0  0  0
   -0.0209    0.9089    1.7194 H   0  0  0  0  0  0  0  0  0  0  0  0
    1.2287    1.6146    0.6707 H   0  0  0  0  0  0  0  0  0  0  0  0
   -0.4748    1.6902    0.1867 H   0  0  0  0  0  0  0  0  0  0  0  0
    1.5101   -1.1465    0.6001 C   0  0  0  0  0  0  0  0  0  0  0  0
    1.9692   -2.1150   -0.0052 O   0  0  0  0  0  0  0  0  0  0  0  0
    1.9065   -0.8157    1.8356 N   0  0  0  0  0  0  0  0  0  0  0  0
    1.4803   -0.0120    2.2686 H   0  0  0  0  0  0  0  0  0  0  0  0
    2.9184   -1.5507    2.5930 C   0  0  0  0  0  0  0  0  0  0  0  0
    3.8405   -1.6130    2.0116 H   0  0  0  0  0  0  0  0  0  0  0  0
    3.1241   -1.0482    3.5391 H   0  0  0  0  0  0  0  0  0  0  0  0
    2.5652   -2.5640    2.7916 H   0  0  0  0  0  0  0  0  0  0  0  0
  5  6  2  0  0  0  0
  5  7  1  0  0  0  0
  2  3  1  0  0  0  0
  2  4  1  0  0  0  0
  2  5  1  0  0  0  0
  1  2  1  0  0  0  0
 15 16  2  0  0  0  0
 15 17  1  0  0  0  0
 11 12  1  0  0  0  0
 11 13  1  0  0  0  0
 11 14  1  0  0  0  0
  9 10  1  0  0  0  0
  9 11  1  0  0  0  0
  9 15  1  0  0  0  0
  7  8  1  0  0  0  0
  7  9  1  0  0  0  0
 19 20  1  0  0  0  0
 19 21  1  0  0  0  0
 19 22  1  0  0  0  0
 17 18  1  0  0  0  0
 17 19  1  0  0  0  0
M  END
$$$$
default_name
  -OEChem-01062215323D

 22 21  0     1  0  0  0  0  0999 V2000
   -2.5423   -3.6749    0.8058 H   0  0  0  0  0  0  0  0  0  0  0  0
   -2.5063   -2.6779    0.3688 C   0  0  0  0  0  0  0  0  0  0  0  0
   -3.1603   -2.0109    0.9268 H   0  0  0  0  0  0  0  0  0  0  0  0
   -2.8193   -2.7229   -0.6722 H   0  0  0  0  0  0  0  0  0  0  0  0
   -1.0873   -2.1629    0.4418 C   0  0  0  0  0  0  0  0  0  0  0  0
   -0.2073   -2.8549    0.9368 O   0  0  0  0  0  0  0  0  0  0  0  0
   -0.8713   -0.9449   -0.0482 N   0  0  0  0  0  0  0  0  0  0  0  0
   -1.6543   -0.4189   -0.4062 H   0  0  0  0  0  0  0  0  0  0  0  0
    0.4237   -0.2649   -0.0462 C   0  0  1  0  0  0  0  0  0  0  0  0
    0.7206   -0.0687   -1.0778 H   0  0  0  0  0  0  0  0  0  0  0  0
    0.2800    1.0790    0.6844 C   0  0  0  0  0  0  0  0  0  0  0  0
   -0.0209    0.9089    1.7194 H   0  0  0  0  0  0  0  0  0  0  0  0
    1.2287    1.6146    0.6707 H   0  0  0  0  0  0  0  0  0  0  0  0
   -0.4748    1.6902    0.1867 H   0  0  0  0  0  0  0  0  0  0  0  0
    1.5101   -1.1465    0.6001 C   0  0  0  0  0  0  0  0  0  0  0  0
    2.1632   -1.9339   -0.0844 O   0  0  0  0  0  0  0  0  0  0  0  0
    1.6887   -1.0212    1.9212 N   0  0  0  0  0  0  0  0  0  0  0  0
    1.1119   -0.3589    2.4148 H   0  0  0  0  0  0  0  0  0  0  0  0
    2.6687   -1.7878    2.6892 C   0  0  0  0  0  0  0  0  0  0  0  0
    3.6628   -1.6504    2.2592 H   0  0  0  0  0  0  0  0  0  0  0  0
    2.6788   -1.4577    3.7290 H   0  0  0  0  0  0  0  0  0  0  0  0
    2.4180   -2.8493    2.6499 H   0  0  0  0  0  0  0  0  0  0  0  0
  5  6  2  0  0  0  0
  5  7  1  0  0  0  0
  2  3  1  0  0  0  0
  2  4  1  0  0  0  0
  2  5  1  0  0  0  0
  1  2  1  0  0  0  0
 15 16  2  0  0  0  0
 15 17  1  0  0  0  0
 11 12  1  0  0  0  0
 11 13  1  0  0  0  0
 11 14  1  0  0  0  0
  9 10  1  0  0  0  0
  9 11  1  0  0  0  0
  9 15  1  0  0  0  0
  7  8  1  0  0  0  0
  7  9  1  0  0  0  0
 19 20  1  0  0  0  0
 19 21  1  0  0  0  0
 19 22  1  0  0  0  0
 17 18  1  0  0  0  0
 17 19  1  0  0  0  0
M  END
$$$$
default_name
  -OEChem-01062215323D

 22 21  0     1  0  0  0  0  0999 V2000
   -2.5423   -3.6749    0.8058 H   0  0  0  0  0  0  0  0  0  0  0  0
   -2.5063   -2.6779    0.3688 C   0  0  0  0  0  0  0  0  0  0  0  0
   -3.1603   -2.0109    0.9268 H   0  0  0  0  0  0  0  0  0  0  0  0
   -2.8193   -2.7229   -0.6722 H   0  0  0  0  0  0  0  0  0  0  0  0
   -1.0873   -2.1629    0.4418 C   0  0  0  0  0  0  0  0  0  0  0  0
   -0.2073   -2.8549    0.9368 O   0  0  0  0  0  0  0  0  0  0  0  0
   -0.8713   -0.9449   -0.0482 N   0  0  0  0  0  0  0  0  0  0  0  0
   -1.6543   -0.4189   -0.4062 H   0  0  0  0  0  0  0  0  0  0  0  0
    0.4237   -0.2649   -0.0462 C   0  0  1  0  0  0  0  0  0  0  0  0
    0.7206   -0.0687   -1.0778 H   0  0  0  0  0  0  0  0  0  0  0  0
    0.2800    1.0790    0.6844 C   0  0  0  0  0  0  0  0  0  0  0  0
   -0.0209    0.9089    1.7194 H   0  0  0  0  0  0  0  0  0  0  0  0
    1.2287    1.6146    0.6707 H   0  0  0  0  0  0  0  0  0  0  0  0
   -0.4748    1.6902    0.1867 H   0  0  0  0  0  0  0  0  0  0  0  0
    1.5101   -1.1465    0.6001 C   0  0  0  0  0  0  0  0  0  0  0  0
    2.3427   -1.7234   -0.0991 O   0  0  0  0  0  0  0  0  0  0  0  0
    1.4880   -1.2590    1.9342 N   0  0  0  0  0  0  0  0  0  0  0  0
    0.7720   -0.7607    2.4381 H   0  0  0  0  0  0  0  0  0  0  0  0
    2.4390   -2.0615    2.7020 C   0  0  0  0  0  0  0  0  0  0  0  0
    3.4586   -1.7511    2.4651 H   0  0  0  0  0  0  0  0  0  0  0  0
    2.2651   -1.9362    3.7717 H   0  0  0  0  0  0  0  0  0  0  0  0
    2.3278   -3.1149    2.4391 H   0  0  0  0  0  0  0  0  0  0  0  0
  5  6  2  0  0  0  0
  5  7  1  0  0  0  0
  2  3  1  0  0  0  0
  2  4  1  0  0  0  0
  2  5  1  0  0  0  0
  1  2  1  0  0  0  0
 15 16  2  0  0  0  0
 15 17  1  0  0  0  0
 11 12  1  0  0  0  0
 11 13  1  0  0  0  0
 11 14  1  0  0  0  0
  9 10  1  0  0  0  0
  9 11  1  0  0  0  0
  9 15  1  0  0  0  0
  7  8  1  0  0  0  0
  7  9  1  0  0  0  0
 19 20  1  0  0  0  0
 19 21  1  0  0  0  0
 19 22  1  0  0  0  0
 17 18  1  0  0  0  0
 17 19  1  0  0  0  0
M  END
$$$$
default_name
  -OEChem-01062215323D

 22 21  0     1  0  0  0  0  0999 V2000
   -2.5423   -3.6749    0.8058 H   0  0  0  0  0  0  0  0  0  0  0  0
   -2.5063   -2.6779    0.3688 C   0  0  0  0  0  0  0  0  0  0  0  0
   -3.1603   -2.0109    0.9268 H   0  0  0  0  0  0  0  0  0  0  0  0
   -2.8193   -2.7229   -0.6722 H   0  0  0  0  0  0  0  0  0  0  0  0
   -1.0873   -2.1629    0.4418 C   0  0  0  0  0  0  0  0  0  0  0  0
   -0.2073   -2.8549    0.9368 O   0  0  0  0  0  0  0  0  0  0  0  0
   -0.8713   -0.9449   -0.0482 N   0  0  0  0  0  0  0  0  0  0  0  0
   -1.6543   -0.4189   -0.4062 H   0  0  0  0  0  0  0  0  0  0  0  0
    0.4237   -0.2649   -0.0462 C   0  0  1  0  0  0  0  0  0  0  0  0
    0.7206   -0.0687   -1.0778 H   0  0  0  0  0  0  0  0  0  0  0  0
    0.2800    1.0790    0.6844 C   0  0  0  0  0  0  0  0  0  0  0  0
   -0.0209    0.9089    1.7194 H   0  0  0  0  0  0  0  0  0  0  0  0
    1.2287    1.6146    0.6707 H   0  0  0  0  0  0  0  0  0  0  0  0
   -0.4748    1.6902    0.1867 H   0  0  0  0  0  0  0  0  0  0  0  0
    1.5101   -1.1465    0.6001 C   0  0  0  0  0  0  0  0  0  0  0  0
    2.4955   -1.4980   -0.0484 O   0  0  0  0  0  0  0  0  0  0  0  0
    1.3181   -1.5128    1.8736 N   0  0  0  0  0  0  0  0  0  0  0  0
    0.4838   -1.1898    2.3370 H   0  0  0  0  0  0  0  0  0  0  0  0
    2.2449   -2.3532    2.6304 C   0  0  0  0  0  0  0  0  0  0  0  0
    3.2417   -1.9081    2.6155 H   0  0  0  0  0  0  0  0  0  0  0  0
    1.9111   -2.4511    3.6644 H   0  0  0  0  0  0  0  0  0  0  0  0
    2.3007   -3.3428    2.1737 H   0  0  0  0  0  0  0  0  0  0  0  0
  5  6  2  0  0  0  0
  5  7  1  0  0  0  0
  2  3  1  0  0  0  0
  2  4  1  0  0  0  0
  2  5  1  0  0  0  0
  1  2  1  0  0  0  0
 15 16  2  0  0  0  0
 15 17  1  0  0  0  0
 11 12  1  0  0  0  0
 11 13  1  0  0  0  0
 11 14  1  0  0  0  0
  9 10  1  0  0  0  0
  9 11  1  0  0  0  0
  9 15  1  0  0  0  0
  7  8  1  0  0  0  0
  7  9  1  0  0  0  0
 19 20  1  0  0  0  0
 19 21  1  0  0  0  0
 19 22  1  0  0  0  0
 17 18  1  0  0  0  0
 17 19  1  0  0  0  0
M  END
$$$$
default_name
  -OEChem-01062215323D

 22 21  0     1  0  0  0  0  0999 V2000
   -2.5423   -3.6749    0.8058 H   0  0  0  0  0  0  0  0  0  0  0  0
   -2.5063   -2.6779    0.3688 C   0  0  0  0  0  0  0  0  0  0  0  0
   -3.1603   -2.0109    0.9268 H   0  0  0  0  0  0  0  0  0  0  0  0
   -2.8193   -2.7229   -0.6722 H   0  0  0  0  0  0  0  0  0  0  0  0
   -1.0873   -2.1629    0.4418 C   0  0  0  0  0  0  0  0  0  0  0  0
   -0.2073   -2.8549    0.9368 O   0  0  0  0  0  0  0  0  0  0  0  0
   -0.8713   -0.9449   -0.0482 N   0  0  0  0  0  0  0  0  0  0  0  0
   -1.6543   -0.4189   -0.4062 H   0  0  0  0  0  0  0  0  0  0  0  0
    0.4237   -0.2649   -0.0462 C   0  0  1  0  0  0  0  0  0  0  0  0
    0.7206   -0.0687   -1.0778 H   0  0  0  0  0  0  0  0  0  0  0  0
    0.2800    1.0790    0.6844 C   0  0  0  0  0  0  0  0  0  0  0  0
   -0.0209    0.9089    1.7194 H   0  0  0  0  0  0  0  0  0  0  0  0
    1.2287    1.6146    0.6707 H   0  0  0  0  0  0  0  0  0  0  0  0
   -0.4748    1.6902    0.1867 H   0  0  0  0  0  0  0  0  0  0  0  0
    1.5101   -1.1465    0.6001 C   0  0  0  0  0  0  0  0  0  0  0  0
    2.6110   -1.2730    0.0644 O   0  0  0  0  0  0  0  0  0  0  0  0
    1.1904   -1.7654    1.7437 N   0  0  0  0  0  0  0  0  0  0  0  0
    0.2671   -1.6172    2.1184 H   0  0  0  0  0  0  0  0  0  0  0  0
    2.0997   -2.6429    2.4793 C   0  0  0  0  0  0  0  0  0  0  0  0
    3.0271   -2.1107    2.7000 H   0  0  0  0  0  0  0  0  0  0  0  0
    1.6409   -2.9673    3.4144 H   0  0  0  0  0  0  0  0  0  0  0  0
    2.3385   -3.5175    1.8718 H   0  0  0  0  0  0  0  0  0  0  0  0
  5  6  2  0  0  0  0
  5  7  1  0  0  0  0
  2  3  1  0  0  0  0
  2  4  1  0  0  0  0
  2  5  1  0  0  0  0
  1  2  1  0  0  0  0
 15 16  2  0  0  0  0
 15 17  1  0  0  0  0
 11 12  1  0  0  0  0
 11 13  1  0  0  0  0
 11 14  1  0  0  0  0
  9 10  1  0  0  0  0
  9 11  1  0  0  0  0
  9 15  1  0  0  0  0
  7  8  1  0  0  0  0
  7  9  1  0  0  0  0
 19 20  1  0  0  0  0
 19 21  1  0  0  0  0
 19 22  1  0  0  0  0
 17 18  1  0  0  0  0
 17 19  1  0  0  0  0
M  END
$$$$
default_name
  -OEChem-01062215323D

 22 21  0     1  0  0  0  0  0999 V2000
   -2.5423   -3.6749    0.8058 H   0  0  0  0  0  0  0  0  0  0  0  0
   -2.5063   -2.6779    0.3688 C   0  0  0  0  0  0  0  0  0  0  0  0
   -3.1603   -2.0109    0.9268 H   0  0  0  0  0  0  0  0  0  0  0  0
   -2.8193   -2.7229   -0.6722 H   0  0  0  0  0  0  0  0  0  0  0  0
   -1.0873   -2.1629    0.4418 C   0  0  0  0  0  0  0  0  0  0  0  0
   -0.2073   -2.8549    0.9368 O   0  0  0  0  0  0  0  0  0  0  0  0
   -0.8713   -0.9449   -0.0482 N   0  0  0  0  0  0  0  0  0  0  0  0
   -1.6543   -0.4189   -0.4062 H   0  0  0  0  0  0  0  0  0  0  0  0
    0.4237   -0.2649   -0.0462 C   0  0  1  0  0  0  0  0  0  0  0  0
    0.7206   -0.0687   -1.0778 H   0  0  0  0  0  0  0  0  0  0  0  0
    0.2800    1.0790    0.6844 C   0  0  0  0  0  0  0  0  0  0  0  0
   -0.0209    0.9089    1.7194 H   0  0  0  0  0  0  0  0  0  0  0  0
    1.2287    1.6146    0.6707 H   0  0  0  0  0  0  0  0  0  0  0  0
   -0.4748    1.6902    0.1867 H   0  0  0  0  0  0  0  0  0  0  0  0
    1.5101   -1.1465    0.6001 C   0  0  0  0  0  0  0  0  0  0  0  0
    2.6815   -1.0636    0.2315 O   0  0  0  0  0  0  0  0  0  0  0  0
    1.1138   -1.9995    1.5531 N   0  0  0  0  0  0  0  0  0  0  0  0
    0.1364   -2.0137    1.7971 H   0  0  0  0  0  0  0  0  0  0  0  0
    2.0132   -2.9110    2.2589 C   0  0  0  0  0  0  0  0  0  0  0  0
    2.8292   -2.3451    2.7129 H   0  0  0  0  0  0  0  0  0  0  0  0
    1.4730   -3.4497    3.0387 H   0  0  0  0  0  0  0  0  0  0  0  0
    2.4388   -3.6271    1.5539 H   0  0  0  0  0  0  0  0  0  0  0  0
  5  6  2  0  0  0  0
  5  7  1  0  0  0  0
  2  3  1  0  0  0  0
  2  4  1  0  0  0  0
  2  5  1  0  0  0  0
  1  2  1  0  0  0  0
 15 16  2  0  0  0  0
 15 17  1  0  0  0  0
 11 12  1  0  0  0  0
 11 13  1  0  0  0  0
 11 14  1  0  0  0  0
  9 10  1  0  0  0  0
  9 11  1  0  0  0  0
  9 15  1  0  0  0  0
  7  8  1  0  0  0  0
  7  9  1  0  0  0  0
 19 20  1  0  0  0  0
 19 21  1  0  0  0  0
 19 22  1  0  0  0  0
 17 18  1  0  0  0  0
 17 19  1  0  0  0  0
M  END
$$$$
default_name
  -OEChem-01062215323D

 22 21  0     1  0  0  0  0  0999 V2000
   -2.5423   -3.6749    0.8058 H   0  0  0  0  0  0  0  0  0  0  0  0
   -2.5063   -2.6779    0.3688 C   0  0  0  0  0  0  0  0  0  0  0  0
   -3.1603   -2.0109    0.9268 H   0  0  0  0  0  0  0  0  0  0  0  0
   -2.8193   -2.7229   -0.6722 H   0  0  0  0  0  0  0  0  0  0  0  0
   -1.0873   -2.1629    0.4418 C   0  0  0  0  0  0  0  0  0  0  0  0
   -0.2073   -2.8549    0.9368 O   0  0  0  0  0  0  0  0  0  0  0  0
   -0.8713   -0.9449   -0.0482 N   0  0  0  0  0  0  0  0  0  0  0  0
   -1.6543   -0.4189   -0.4062 H   0  0  0  0  0  0  0  0  0  0  0  0
    0.4237   -0.2649   -0.0462 C   0  0  1  0  0  0  0  0  0  0  0  0
    0.7206   -0.0687   -1.0778 H   0  0  0  0  0  0  0  0  0  0  0  0
    0.2800    1.0790    0.6844 C   0  0  0  0  0  0  0  0  0  0  0  0
   -0.0209    0.9089    1.7194 H   0  0  0  0  0  0  0  0  0  0  0  0
    1.2287    1.6146    0.6707 H   0  0  0  0  0  0  0  0  0  0  0  0
   -0.4748    1.6902    0.1867 H   0  0  0  0  0  0  0  0  0  0  0  0
    1.5101   -1.1465    0.6001 C   0  0  0  0  0  0  0  0  0  0  0  0
    2.7022   -0.8842    0.4415 O   0  0  0  0  0  0  0  0  0  0  0  0
    1.0934   -2.1992    1.3150 N   0  0  0  0  0  0  0  0  0  0  0  0
    0.1008   -2.3522    1.3952 H   0  0  0  0  0  0  0  0  0  0  0  0
    1.9914   -3.1390    1.9844 C   0  0  0  0  0  0  0  0  0  0  0  0
    2.6616   -2.5953    2.6533 H   0  0  0  0  0  0  0  0  0  0  0  0
    1.4187   -3.8653    2.5629 H   0  0  0  0  0  0  0  0  0  0  0  0
    2.5945   -3.6640    1.2416 H   0  0  0  0  0  0  0  0  0  0  0  0
  5  6  2  0  0  0  0
  5  7  1  0  0  0  0
  2  3  1  0  0  0  0
  2  4  1  0  0  0  0
  2  5  1  0  0  0  0
  1  2  1  0  0  0  0
 15 16  2  0  0  0  0
 15 17  1  0  0  0  0
 11 12  1  0  0  0  0
 11 13  1  0  0  0  0
 11 14  1  0  0  0  0
  9 10  1  0  0  0  0
  9 11  1  0  0  0  0
  9 15  1  0  0  0  0
  7  8  1  0  0  0  0
  7  9  1  0  0  0  0
 19 20  1  0  0  0  0
 19 21  1  0  0  0  0
 19 22  1  0  0  0  0
 17 18  1  0  0  0  0
 17 19  1  0  0  0  0
M  END
$$$$
default_name
  -OEChem-01062215323D

 22 21  0     1  0  0  0  0  0999 V2000
   -2.5423   -3.6749    0.8058 H   0  0  0  0  0  0  0  0  0  0  0  0
   -2.5063   -2.6779    0.3688 C   0  0  0  0  0  0  0  0  0  0  0  0
   -3.1603   -2.0109    0.9268 H   0  0  0  0  0  0  0  0  0  0  0  0
   -2.8193   -2.7229   -0.6722 H   0  0  0  0  0  0  0  0  0  0  0  0
   -1.0873   -2.1629    0.4418 C   0  0  0  0  0  0  0  0  0  0  0  0
   -0.2073   -2.8549    0.9368 O   0  0  0  0  0  0  0  0  0  0  0  0
   -0.8713   -0.9449   -0.0482 N   0  0  0  0  0  0  0  0  0  0  0  0
   -1.6543   -0.4189   -0.4062 H   0  0  0  0  0  0  0  0  0  0  0  0
    0.4237   -0.2649   -0.0462 C   0  0  1  0  0  0  0  0  0  0  0  0
    0.7206   -0.0687   -1.0778 H   0  0  0  0  0  0  0  0  0  0  0  0
    0.2800    1.0790    0.6844 C   0  0  0  0  0  0  0  0  0  0  0  0
   -0.0209    0.9089    1.7194 H   0  0  0  0  0  0  0  0  0  0  0  0
    1.2287    1.6146    0.6707 H   0  0  0  0  0  0  0  0  0  0  0  0
   -0.4748    1.6902    0.1867 H   0  0  0  0  0  0  0  0  0  0  0  0
    1.5101   -1.1465    0.6001 C   0  0  0  0  0  0  0  0  0  0  0  0
    2.6715   -0.7470    0.6802 O   0  0  0  0  0  0  0  0  0  0  0  0
    1.1306   -2.3509    1.0456 N   0  0  0  0  0  0  0  0  0  0  0  0
    0.1627   -2.6098    0.9399 H   0  0  0  0  0  0  0  0  0  0  0  0
    2.0358   -3.3116    1.6744 C   0  0  0  0  0  0  0  0  0  0  0  0
    2.5357   -2.8443    2.5252 H   0  0  0  0  0  0  0  0  0  0  0  0
    1.4819   -4.1858    2.0196 H   0  0  0  0  0  0  0  0  0  0  0  0
    2.7952   -3.6258    0.9564 H   0  0  0  0  0  0  0  0  0  0  0  0
  5  6  2  0  0  0  0
  5  7  1  0  0  0  0
  2  3  1  0  0  0  0
  2  4  1  0  0  0  0
  2  5  1  0  0  0  0
  1  2  1  0  0  0  0
 15 16  2  0  0  0  0
 15 17  1  0  0  0  0
 11 12  1  0  0  0  0
 11 13  1  0  0  0  0
 11 14  1  0  0  0  0
  9 10  1  0  0  0  0
  9 11  1  0  0  0  0
  9 15  1  0  0  0  0
  7  8  1  0  0  0  0
  7  9  1  0  0  0  0
 19 20  1  0  0  0  0
 19 21  1  0  0  0  0
 19 22  1  0  0  0  0
 17 18  1  0  0  0  0
 17 19  1  0  0  0  0
M  END
$$$$
default_name
  -OEChem-01062215323D

 22 21  0     1  0  0  0  0  0999 V2000
   -2.5423   -3.6749    0.8058 H   0  0  0  0  0  0  0  0  0  0  0  0
   -2.5063   -2.6779    0.3688 C   0  0  0  0  0  0  0  0  0  0  0  0
   -3.1603   -2.0109    0.9268 H   0  0  0  0  0  0  0  0  0  0  0  0
   -2.8193   -2.7229   -0.6722 H   0  0  0  0  0  0  0  0  0  0  0  0
   -1.0873   -2.1629    0.4418 C   0  0  0  0  0  0  0  0  0  0  0  0
   -0.2073   -2.8549    0.9368 O   0  0  0  0  0  0  0  0  0  0  0  0
   -0.8713   -0.9449   -0.0482 N   0  0  0  0  0  0  0  0  0  0  0  0
   -1.6543   -0.4189   -0.4062 H   0  0  0  0  0  0  0  0  0  0  0  0
    0.4237   -0.2649   -0.0462 C   0  0  1  0  0  0  0  0  0  0  0  0
    0.7206   -0.0687   -1.0778 H   0  0  0  0  0  0  0  0  0  0  0  0
    0.2800    1.0790    0.6844 C   0  0  0  0  0  0  0  0  0  0  0  0
   -0.0209    0.9089    1.7194 H   0  0  0  0  0  0  0  0  0  0  0  0
    1.2287    1.6146    0.6707 H   0  0  0  0  0  0  0  0  0  0  0  0
   -0.4748    1.6902    0.1867 H   0  0  0  0  0  0  0  0  0  0  0  0
    1.5101   -1.1465    0.6001 C   0  0  0  0  0  0  0  0  0  0  0  0
    2.5917   -0.6613    0.9312 O   0  0  0  0  0  0  0  0  0  0  0  0
    1.2228   -2.4442    0.7632 N   0  0  0  0  0  0  0  0  0  0  0  0
    0.3178   -2.7687    0.4623 H   0  0  0  0  0  0  0  0  0  0  0  0
    2.1433   -3.4170    1.3500 C   0  0  0  0  0  0  0  0  0  0  0  0
    2.4601   -3.0752    2.3374 H   0  0  0  0  0  0  0  0  0  0  0  0
    1.6581   -4.3894    1.4456 H   0  0  0  0  0  0  0  0  0  0  0  0
    3.0272   -3.5151    0.7175 H   0  0  0  0  0  0  0  0  0  0  0  0
  5  6  2  0  0  0  0
  5  7  1  0  0  0  0
  2  3  1  0  0  0  0
  2  4  1  0  0  0  0
  2  5  1  0  0  0  0
  1  2  1  0  0  0  0
 15 16  2  0  0  0  0
 15 17  1  0  0  0  0
 11 12  1  0  0  0  0
 11 13  1  0  0  0  0
 11 14  1  0  0  0  0
  9 10  1  0  0  0  0
  9 11  1  0  0  0  0
  9 15  1  0  0  0  0
  7  8  1  0  0  0  0
  7  9  1  0  0  0  0
 19 20  1  0  0  0  0
 19 21  1  0  0  0  0
 19 22  1  0  0  0  0
 17 18  1  0  0  0  0
 17 19  1  0  0  0  0
M  END
$$$$
default_name
  -OEChem-01062215323D

 22 21  0     1  0  0  0  0  0999 V2000
   -2.5423   -3.6749    0.8058 H   0  0  0  0  0  0  0  0  0  0  0  0
   -2.5063   -2.6779    0.3688 C   0  0  0  0  0  0  0  0  0  0  0  0
   -3.1603   -2.0109    0.9268 H   0  0  0  0  0  0  0  0  0  0  0  0
   -2.8193   -2.7229   -0.6722 H   0  0  0  0  0  0  0  0  0  0  0  0
   -1.0873   -2.1629    0.4418 C   0  0  0  0  0  0  0  0  0  0  0  0
   -0.2073   -2.8549    0.9368 O   0  0  0  0  0  0  0  0  0  0  0  0
   -0.8713   -0.9449   -0.0482 N   0  0  0  0  0  0  0  0  0  0  0  0
   -1.6543   -0.4189   -0.4062 H   0  0  0  0  0  0  0  0  0  0  0  0
    0.4237   -0.2649   -0.0462 C   0  0  1  0  0  0  0  0  0  0  0  0
    0.7206   -0.0687   -1.0778 H   0  0  0  0  0  0  0  0  0  0  0  0
    0.2800    1.0790    0.6844 C   0  0  0  0  0  0  0  0  0  0  0  0
   -0.0209    0.9089    1.7194 H   0  0  0  0  0  0  0  0  0  0  0  0
    1.2287    1.6146    0.6707 H   0  0  0  0  0  0  0  0  0  0  0  0
   -0.4748    1.6902    0.1867 H   0  0  0  0  0  0  0  0  0  0  0  0
    1.5101   -1.1465    0.6001 C   0  0  0  0  0  0  0  0  0  0  0  0
    2.4681   -0.6331    1.1775 O   0  0  0  0  0  0  0  0  0  0  0  0
    1.3639   -2.4728    0.4870 N   0  0  0  0  0  0  0  0  0  0  0  0
    0.5556   -2.8183   -0.0051 H   0  0  0  0  0  0  0  0  0  0  0  0
    2.3066   -3.4479    1.0334 C   0  0  0  0  0  0  0  0  0  0  0  0
    2.4399   -3.2721    2.1027 H   0  0  0  0  0  0  0  0  0  0  0  0
    1.9354   -4.4622    0.8801 H   0  0  0  0  0  0  0  0  0  0  0  0
    3.2746   -3.3394    0.5413 H   0  0  0  0  0  0  0  0  0  0  0  0
  5  6  2  0  0  0  0
  5  7  1  0  0  0  0
  2  3  1  0  0  0  0
  2  4  1  0  0  0  0
  2  5  1  0  0  0  0
  1  2  1  0  0  0  0
 15 16  2  0  0  0  0
 15 17  1  0  0  0  0
 11 12  1  0  0  0  0
 11 13  1  0  0  0  0
 11 14  1  0  0  0  0
  9 10  1  0  0  0  0
  9 11  1  0  0  0  0
  9 15  1  0  0  0  0
  7  8  1  0  0  0  0
  7  9  1  0  0  0  0
 19 20  1  0  0  0  0
 19 21  1  0  0  0  0
 19 22  1  0  0  0  0
 17 18  1  0  0  0  0
 17 19  1  0  0  0  0
M  END
$$$$
default_name
  -OEChem-01062215323D

 22 21  0     1  0  0  0  0  0999 V2000
   -2.5423   -3.6749    0.8058 H   0  0  0  0  0  0  0  0  0  0  0  0
   -2.5063   -2.6779    0.3688 C   0  0  0  0  0  0  0  0  0  0  0  0
   -3.1603   -2.0109    0.9268 H   0  0  0  0  0  0  0  0  0  0  0  0
   -2.8193   -2.7229   -0.6722 H   0  0  0  0  0  0  0  0  0  0  0  0
   -1.0873   -2.1629    0.4418 C   0  0  0  0  0  0  0  0  0  0  0  0
   -0.2073   -2.8549    0.9368 O   0  0  0  0  0  0  0  0  0  0  0  0
   -0.8713   -0.9449   -0.0482 N   0  0  0  0  0  0  0  0  0  0  0  0
   -1.6543   -0.4189   -0.4062 H   0  0  0  0  0  0  0  0  0  0  0  0
    0.4237   -0.2649   -0.0462 C   0  0  1  0  0  0  0  0  0  0  0  0
    0.7206   -0.0687   -1.0778 H   0  0  0  0  0  0  0  0  0  0  0  0
    0.2800    1.0790    0.6844 C   0  0  0  0  0  0  0  0  0  0  0  0
   -0.0209    0.9089    1.7194 H   0  0  0  0  0  0  0  0  0  0  0  0
    1.2287    1.6146    0.6707 H   0  0  0  0  0  0  0  0  0  0  0  0
   -0.4748    1.6902    0.1867 H   0  0  0  0  0  0  0  0  0  0  0  0
    1.5101   -1.1465    0.6001 C   0  0  0  0  0  0  0  0  0  0  0  0
    2.3093   -0.6641    1.4023 O   0  0  0  0  0  0  0  0  0  0  0  0
    1.5442   -2.4347    0.2360 N   0  0  0  0  0  0  0  0  0  0  0  0
    0.8599   -2.7551   -0.4304 H   0  0  0  0  0  0  0  0  0  0  0  0
    2.5145   -3.4022    0.7461 C   0  0  0  0  0  0  0  0  0  0  0  0
    2.4765   -3.4217    1.8371 H   0  0  0  0  0  0  0  0  0  0  0  0
    2.2949   -4.3992    0.3616 H   0  0  0  0  0  0  0  0  0  0  0  0
    3.5206   -3.1106    0.4398 H   0  0  0  0  0  0  0  0  0  0  0  0
  5  6  2  0  0  0  0
  5  7  1  0  0  0  0
  2  3  1  0  0  0  0
  2  4  1  0  0  0  0
  2  5  1  0  0  0  0
  1  2  1  0  0  0  0
 15 16  2  0  0  0  0
 15 17  1  0  0  0  0
 11 12  1  0  0  0  0
 11 13  1  0  0  0  0
 11 14  1  0  0  0  0
  9 10  1  0  0  0  0
  9 11  1  0  0  0  0
  9 15  1  0  0  0  0
  7  8  1  0  0  0  0
  7  9  1  0  0  0  0
 19 20  1  0  0  0  0
 19 21  1  0  0  0  0
 19 22  1  0  0  0  0
 17 18  1  0  0  0  0
 17 19  1  0  0  0  0
M  END
$$$$
default_name
  -OEChem-01062215323D

 22 21  0     1  0  0  0  0  0999 V2000
   -2.5423   -3.6749    0.8058 H   0  0  0  0  0  0  0  0  0  0  0  0
   -2.5063   -2.6779    0.3688 C   0  0  0  0  0  0  0  0  0  0  0  0
   -3.1603   -2.0109    0.9268 H   0  0  0  0  0  0  0  0  0  0  0  0
   -2.8193   -2.7229   -0.6722 H   0  0  0  0  0  0  0  0  0  0  0  0
   -1.0873   -2.1629    0.4418 C   0  0  0  0  0  0  0  0  0  0  0  0
   -0.2073   -2.8549    0.9368 O   0  0  0  0  0  0  0  0  0  0  0  0
   -0.8713   -0.9449   -0.0482 N   0  0  0  0  0  0  0  0  0  0  0  0
   -1.6543   -0.4189   -0.4062 H   0  0  0  0  0  0  0  0  0  0  0  0
    0.4237   -0.2649   -0.0462 C   0  0  1  0  0  0  0  0  0  0  0  0
    0.7206   -0.0687   -1.0778 H   0  0  0  0  0  0  0  0  0  0  0  0
    0.2800    1.0790    0.6844 C   0  0  0  0  0  0  0  0  0  0  0  0
   -0.0209    0.9089    1.7194 H   0  0  0  0  0  0  0  0  0  0  0  0
    1.2287    1.6146    0.6707 H   0  0  0  0  0  0  0  0  0  0  0  0
   -0.4748    1.6902    0.1867 H   0  0  0  0  0  0  0  0  0  0  0  0
    1.5101   -1.1465    0.6001 C   0  0  0  0  0  0  0  0  0  0  0  0
    2.1259   -0.7523    1.5902 O   0  0  0  0  0  0  0  0  0  0  0  0
    1.7514   -2.3325    0.0271 N   0  0  0  0  0  0  0  0  0  0  0  0
    1.2099   -2.5834   -0.7846 H   0  0  0  0  0  0  0  0  0  0  0  0
    2.7529   -3.2832    0.5077 C   0  0  0  0  0  0  0  0  0  0  0  0
    2.5674   -3.5137    1.5587 H   0  0  0  0  0  0  0  0  0  0  0  0
    2.7121   -4.2048   -0.0744 H   0  0  0  0  0  0  0  0  0  0  0  0
    3.7484   -2.8445    0.4199 H   0  0  0  0  0  0  0  0  0  0  0  0
  5  6  2  0  0  0  0
  5  7  1  0  0  0  0
  2  3  1  0  0  0  0
  2  4  1  0  0  0  0
  2  5  1  0  0  0  0
  1  2  1  0  0  0  0
 15 16  2  0  0  0  0
 15 17  1  0  0  0  0
 11 12  1  0  0  0  0
 11 13  1  0  0  0  0
 11 14  1  0  0  0  0
  9 10  1  0  0  0  0
  9 11  1  0  0  0  0
  9 15  1  0  0  0  0
  7  8  1  0  0  0  0
  7  9  1  0  0  0  0
 19 20  1  0  0  0  0
 19 21  1  0  0  0  0
 19 22  1  0  0  0  0
 17 18  1  0  0  0  0
 17 19  1  0  0  0  0
M  END
$$$$
default_name
  -OEChem-01062215323D

 22 21  0     1  0  0  0  0  0999 V2000
   -2.5423   -3.6749    0.8058 H   0  0  0  0  0  0  0  0  0  0  0  0
   -2.5063   -2.6779    0.3688 C   0  0  0  0  0  0  0  0  0  0  0  0
   -3.1603   -2.0109    0.9268 H   0  0  0  0  0  0  0  0  0  0  0  0
   -2.8193   -2.7229   -0.6722 H   0  0  0  0  0  0  0  0  0  0  0  0
   -1.0873   -2.1629    0.4418 C   0  0  0  0  0  0  0  0  0  0  0  0
   -0.2073   -2.8549    0.9368 O   0  0  0  0  0  0  0  0  0  0  0  0
   -0.8713   -0.9449   -0.0482 N   0  0  0  0  0  0  0  0  0  0  0  0
   -1.6543   -0.4189   -0.4062 H   0  0  0  0  0  0  0  0  0  0  0  0
    0.4237   -0.2649   -0.0462 C   0  0  1  0  0  0  0  0  0  0  0  0
    0.7206   -0.0687   -1.0778 H   0  0  0  0  0  0  0  0  0  0  0  0
    0.2800    1.0790    0.6844 C   0  0  0  0  0  0  0  0  0  0  0  0
   -0.0209    0.9089    1.7194 H   0  0  0  0  0  0  0  0  0  0  0  0
    1.2287    1.6146    0.6707 H   0  0  0  0  0  0  0  0  0  0  0  0
   -0.4748    1.6902    0.1867 H   0  0  0  0  0  0  0  0  0  0  0  0
    1.5101   -1.1465    0.6001 C   0  0  0  0  0  0  0  0  0  0  0  0
    1.9305   -0.8917    1.7284 O   0  0  0  0  0  0  0  0  0  0  0  0
    1.9713   -2.1733   -0.1254 N   0  0  0  0  0  0  0  0  0  0  0  0
    1.5818   -2.3150   -1.0436 H   0  0  0  0  0  0  0  0  0  0  0  0
    3.0056   -3.0988    0.3345 C   0  0  0  0  0  0  0  0  0  0  0  0
    2.7065   -3.5420    1.2864 H   0  0  0  0  0  0  0  0  0  0  0  0
    3.1585   -3.8922   -0.3984 H   0  0  0  0  0  0  0  0  0  0  0  0
    3.9425   -2.5591    0.4830 H   0  0  0  0  0  0  0  0  0  0  0  0
  5  6  2  0  0  0  0
  5  7  1  0  0  0  0
  2  3  1  0  0  0  0
  2  4  1  0  0  0  0
  2  5  1  0  0  0  0
  1  2  1  0  0  0  0
 15 16  2  0  0  0  0
 15 17  1  0  0  0  0
 11 12  1  0  0  0  0
 11 13  1  0  0  0  0
 11 14  1  0  0  0  0
  9 10  1  0  0  0  0
  9 11  1  0  0  0  0
  9 15  1  0  0  0  0
  7  8  1  0  0  0  0
  7  9  1  0  0  0  0
 19 20  1  0  0  0  0
 19 21  1  0  0  0  0
 19 22  1  0  0  0  0
 17 18  1  0  0  0  0
 17 19  1  0  0  0  0
M  END
$$$$
default_name
  -OEChem-01062215323D

 22 21  0     1  0  0  0  0  0999 V2000
   -2.5423   -3.6749    0.8058 H   0  0  0  0  0  0  0  0  0  0  0  0
   -2.5063   -2.6779    0.3688 C   0  0  0  0  0  0  0  0  0  0  0  0
   -3.1603   -2.0109    0.9268 H   0  0  0  0  0  0  0  0  0  0  0  0
   -2.8193   -2.7229   -0.6722 H   0  0  0  0  0  0  0  0  0  0  0  0
   -1.0873   -2.1629    0.4418 C   0  0  0  0  0  0  0  0  0  0  0  0
   -0.2073   -2.8549    0.9368 O   0  0  0  0  0  0  0  0  0  0  0  0
   -0.8713   -0.9449   -0.0482 N   0  0  0  0  0  0  0  0  0  0  0  0
   -1.6543   -0.4189   -0.4062 H   0  0  0  0  0  0  0  0  0  0  0  0
    0.4237   -0.2649   -0.0462 C   0  0  1  0  0  0  0  0  0  0  0  0
    0.7206   -0.0687   -1.0778 H   0  0  0  0  0  0  0  0  0  0  0  0
    0.2800    1.0790    0.6844 C   0  0  0  0  0  0  0  0  0  0  0  0
   -0.0209    0.9089    1.7194 H   0  0  0  0  0  0  0  0  0  0  0  0
    1.2287    1.6146    0.6707 H   0  0  0  0  0  0  0  0  0  0  0  0
   -0.4748    1.6902    0.1867 H   0  0  0  0  0  0  0  0  0  0  0  0
    1.5101   -1.1465    0.6001 C   0  0  0  0  0  0  0  0  0  0  0  0
    1.7364   -1.0728    1.8076 O   0  0  0  0  0  0  0  0  0  0  0  0
    2.1890   -1.9677   -0.2110 N   0  0  0  0  0  0  0  0  0  0  0  0
    1.9503   -1.9681   -1.1898 H   0  0  0  0  0  0  0  0  0  0  0  0
    3.2553   -2.8616    0.2382 C   0  0  0  0  0  0  0  0  0  0  0  0
    2.8841   -3.5045    1.0389 H   0  0  0  0  0  0  0  0  0  0  0  0
    3.6037   -3.4827   -0.5882 H   0  0  0  0  0  0  0  0  0  0  0  0
    4.0896   -2.2738    0.6248 H   0  0  0  0  0  0  0  0  0  0  0  0
  5  6  2  0  0  0  0
  5  7  1  0  0  0  0
  2  3  1  0  0  0  0
  2  4  1  0  0  0  0
  2  5  1  0  0  0  0
  1  2  1  0  0  0  0
 15 16  2  0  0  0  0
 15 17  1  0  0  0  0
 11 12  1  0  0  0  0
 11 13  1  0  0  0  0
 11 14  1  0  0  0  0
  9 10  1  0  0  0  0
  9 11  1  0  0  0  0
  9 15  1  0  0  0  0
  7  8  1  0  0  0  0
  7  9  1  0  0  0  0
 19 20  1  0  0  0  0
 19 21  1  0  0  0  0
 19 22  1  0  0  0  0
 17 18  1  0  0  0  0
 17 19  1  0  0  0  0
M  END
$$$$
default_name
  -OEChem-01062215323D

 22 21  0     1  0  0  0  0  0999 V2000
   -2.5423   -3.6749    0.8058 H   0  0  0  0  0  0  0  0  0  0  0  0
   -2.5063   -2.6779    0.3688 C   0  0  0  0  0  0  0  0  0  0  0  0
   -3.1603   -2.0109    0.9268 H   0  0  0  0  0  0  0  0  0  0  0  0
   -2.8193   -2.7229   -0.6722 H   0  0  0  0  0  0  0  0  0  0  0  0
   -1.0873   -2.1629    0.4418 C   0  0  0  0  0  0  0  0  0  0  0  0
   -0.2073   -2.8549    0.9368 O   0  0  0  0  0  0  0  0  0  0  0  0
   -0.8713   -0.9449   -0.0482 N   0  0  0  0  0  0  0  0  0  0  0  0
   -1.6543   -0.4189   -0.4062 H   0  0  0  0  0  0  0  0  0  0  0  0
    0.4237   -0.2649   -0.0462 C   0  0  1  0  0  0  0  0  0  0  0  0
    0.7206   -0.0687   -1.0778 H   0  0  0  0  0  0  0  0  0  0  0  0
    0.2800    1.0790    0.6844 C   0  0  0  0  0  0  0  0  0  0  0  0
   -0.0209    0.9089    1.7194 H   0  0  0  0  0  0  0  0  0  0  0  0
    1.2287    1.6146    0.6707 H   0  0  0  0  0  0  0  0  0  0  0  0
   -0.4748    1.6902    0.1867 H   0  0  0  0  0  0  0  0  0  0  0  0
    1.5101   -1.1465    0.6001 C   0  0  0  0  0  0  0  0  0  0  0  0
    1.5569   -1.2832    1.8223 O   0  0  0  0  0  0  0  0  0  0  0  0
    2.3897   -1.7299   -0.2240 N   0  0  0  0  0  0  0  0  0  0  0  0
    2.2901   -1.5664   -1.2131 H   0  0  0  0  0  0  0  0  0  0  0  0
    3.4851   -2.5879    0.2254 C   0  0  0  0  0  0  0  0  0  0  0  0
    3.0884   -3.4039    0.8329 H   0  0  0  0  0  0  0  0  0  0  0  0
    4.0174   -3.0042   -0.6309 H   0  0  0  0  0  0  0  0  0  0  0  0
    4.1798   -2.0082    0.8355 H   0  0  0  0  0  0  0  0  0  0  0  0
  5  6  2  0  0  0  0
  5  7  1  0  0  0  0
  2  3  1  0  0  0  0
  2  4  1  0  0  0  0
  2  5  1  0  0  0  0
  1  2  1  0  0  0  0
 15 16  2  0  0  0  0
 15 17  1  0  0  0  0
 11 12  1  0  0  0  0
 11 13  1  0  0  0  0
 11 14  1  0  0  0  0
  9 10  1  0  0  0  0
  9 11  1  0  0  0  0
  9 15  1  0  0  0  0
  7  8  1  0  0  0  0
  7  9  1  0  0  0  0
 19 20  1  0  0  0  0
 19 21  1  0  0  0  0
 19 22  1  0  0  0  0
 17 18  1  0  0  0  0
 17 19  1  0  0  0  0
M  END
$$$$
default_name
  -OEChem-01062215323D

 22 21  0     1  0  0  0  0  0999 V2000
   -2.5423   -3.6749    0.8058 H   0  0  0  0  0  0  0  0  0  0  0  0
   -2.5063   -2.6779    0.3688 C   0  0  0  0  0  0  0  0  0  0  0  0
   -3.1603   -2.0109    0.9268 H   0  0  0  0  0  0  0  0  0  0  0  0
   -2.8193   -2.7229   -0.6722 H   0  0  0  0  0  0  0  0  0  0  0  0
   -1.0873   -2.1629    0.4418 C   0  0  0  0  0  0  0  0  0  0  0  0
   -0.2073   -2.8549    0.9368 O   0  0  0  0  0  0  0  0  0  0  0  0
   -0.8713   -0.9449   -0.0482 N   0  0  0  0  0  0  0  0  0  0  0  0
   -1.6543   -0.4189   -0.4062 H   0  0  0  0  0  0  0  0  0  0  0  0
    0.4237   -0.2649   -0.0462 C   0  0  1  0  0  0  0  0  0  0  0  0
    0.7206   -0.0687   -1.0778 H   0  0  0  0  0  0  0  0  0  0  0  0
    0.2800    1.0790    0.6844 C   0  0  0  0  0  0  0  0  0  0  0  0
   -0.0209    0.9089    1.7194 H   0  0  0  0  0  0  0  0  0  0  0  0
    1.2287    1.6146    0.6707 H   0  0  0  0  0  0  0  0  0  0  0  0
   -0.4748    1.6902    0.1867 H   0  0  0  0  0  0  0  0  0  0  0  0
    1.5101   -1.1465    0.6001 C   0  0  0  0  0  0  0  0  0  0  0  0
    1.4042   -1.5087    1.7716 O   0  0  0  0  0  0  0  0  0  0  0  0
    2.5597   -1.4761   -0.1634 N   0  0  0  0  0  0  0  0  0  0  0  0
    2.5783   -1.1372   -1.1120 H   0  0  0  0  0  0  0  0  0  0  0  0
    3.6791   -2.2963    0.2971 C   0  0  0  0  0  0  0  0  0  0  0  0
    3.3052   -3.2469    0.6825 H   0  0  0  0  0  0  0  0  0  0  0  0
    4.3715   -2.4893   -0.5236 H   0  0  0  0  0  0  0  0  0  0  0  0
    4.2069   -1.7802    1.1009 H   0  0  0  0  0  0  0  0  0  0  0  0
  5  6  2  0  0  0  0
  5  7  1  0  0  0  0
  2  3  1  0  0  0  0
  2  4  1  0  0  0  0
  2  5  1  0  0  0  0
  1  2  1  0  0  0  0
 15 16  2  0  0  0  0
 15 17  1  0  0  0  0
 11 12  1  0  0  0  0
 11 13  1  0  0  0  0
 11 14  1  0  0  0  0
  9 10  1  0  0  0  0
  9 11  1  0  0  0  0
  9 15  1  0  0  0  0
  7  8  1  0  0  0  0
  7  9  1  0  0  0  0
 19 20  1  0  0  0  0
 19 21  1  0  0  0  0
 19 22  1  0  0  0  0
 17 18  1  0  0  0  0
 17 19  1  0  0  0  0
M  END
$$$$
default_name
  -OEChem-01062215323D

 22 21  0     1  0  0  0  0  0999 V2000
   -2.5423   -3.6749    0.8058 H   0  0  0  0  0  0  0  0  0  0  0  0
   -2.5063   -2.6779    0.3688 C   0  0  0  0  0  0  0  0  0  0  0  0
   -3.1603   -2.0109    0.9268 H   0  0  0  0  0  0  0  0  0  0  0  0
   -2.8193   -2.7229   -0.6722 H   0  0  0  0  0  0  0  0  0  0  0  0
   -1.0873   -2.1629    0.4418 C   0  0  0  0  0  0  0  0  0  0  0  0
   -0.2073   -2.8549    0.9368 O   0  0  0  0  0  0  0  0  0  0  0  0
   -0.8713   -0.9449   -0.0482 N   0  0  0  0  0  0  0  0  0  0  0  0
   -1.6543   -0.4189   -0.4062 H   0  0  0  0  0  0  0  0  0  0  0  0
    0.4237   -0.2649   -0.0462 C   0  0  1  0  0  0  0  0  0  0  0  0
    0.7206   -0.0687   -1.0778 H   0  0  0  0  0  0  0  0  0  0  0  0
    0.2800    1.0790    0.6844 C   0  0  0  0  0  0  0  0  0  0  0  0
   -0.0209    0.9089    1.7194 H   0  0  0  0  0  0  0  0  0  0  0  0
    1.2287    1.6146    0.6707 H   0  0  0  0  0  0  0  0  0  0  0  0
   -0.4748    1.6902    0.1867 H   0  0  0  0  0  0  0  0  0  0  0  0
    1.5101   -1.1465    0.6001 C   0  0  0  0  0  0  0  0  0  0  0  0
    1.2886   -1.7337    1.6588 O   0  0  0  0  0  0  0  0  0  0  0  0
    2.6873   -1.2235   -0.0335 N   0  0  0  0  0  0  0  0  0  0  0  0
    2.7951   -0.7098   -0.8934 H   0  0  0  0  0  0  0  0  0  0  0  0
    3.8243   -2.0065    0.4482 C   0  0  0  0  0  0  0  0  0  0  0  0
    3.5199   -3.0443    0.5980 H   0  0  0  0  0  0  0  0  0  0  0  0
    4.6416   -1.9731   -0.2736 H   0  0  0  0  0  0  0  0  0  0  0  0
    4.1691   -1.6055    1.4028 H   0  0  0  0  0  0  0  0  0  0  0  0
  5  6  2  0  0  0  0
  5  7  1  0  0  0  0
  2  3  1  0  0  0  0
  2  4  1  0  0  0  0
  2  5  1  0  0  0  0
  1  2  1  0  0  0  0
 15 16  2  0  0  0  0
 15 17  1  0  0  0  0
 11 12  1  0  0  0  0
 11 13  1  0  0  0  0
 11 14  1  0  0  0  0
  9 10  1  0  0  0  0
  9 11  1  0  0  0  0
  9 15  1  0  0  0  0
  7  8  1  0  0  0  0
  7  9  1  0  0  0  0
 19 20  1  0  0  0  0
 19 21  1  0  0  0  0
 19 22  1  0  0  0  0
 17 18  1  0  0  0  0
 17 19  1  0  0  0  0
M  END
$$$$
default_name
  -OEChem-01062215323D

 22 21  0     1  0  0  0  0  0999 V2000
   -2.5423   -3.6749    0.8058 H   0  0  0  0  0  0  0  0  0  0  0  0
   -2.5063   -2.6779    0.3688 C   0  0  0  0  0  0  0  0  0  0  0  0
   -3.1603   -2.0109    0.9268 H   0  0  0  0  0  0  0  0  0  0  0  0
   -2.8193   -2.7229   -0.6722 H   0  0  0  0  0  0  0  0  0  0  0  0
   -1.0873   -2.1629    0.4418 C   0  0  0  0  0  0  0  0  0  0  0  0
   -0.2073   -2.8549    0.9368 O   0  0  0  0  0  0  0  0  0  0  0  0
   -0.8713   -0.9449   -0.0482 N   0  0  0  0  0  0  0  0  0  0  0  0
   -1.6543   -0.4189   -0.4062 H   0  0  0  0  0  0  0  0  0  0  0  0
    0.4237   -0.2649   -0.0462 C   0  0  1  0  0  0  0  0  0  0  0  0
    0.7206   -0.0687   -1.0778 H   0  0  0  0  0  0  0  0  0  0  0  0
    0.2800    1.0790    0.6844 C   0  0  0  0  0  0  0  0  0  0  0  0
   -0.0209    0.9089    1.7194 H   0  0  0  0  0  0  0  0  0  0  0  0
    1.2287    1.6146    0.6707 H   0  0  0  0  0  0  0  0  0  0  0  0
   -0.4748    1.6902    0.1867 H   0  0  0  0  0  0  0  0  0  0  0  0
    1.5101   -1.1465    0.6001 C   0  0  0  0  0  0  0  0  0  0  0  0
    1.2181   -1.9431    1.4917 O   0  0  0  0  0  0  0  0  0  0  0  0
    2.7640   -0.9894    0.1571 N   0  0  0  0  0  0  0  0  0  0  0  0
    2.9257   -0.3133   -0.5722 H   0  0  0  0  0  0  0  0  0  0  0  0
    3.9108   -1.7385    0.6685 C   0  0  0  0  0  0  0  0  0  0  0  0
    3.7177   -2.8099    0.5851 H   0  0  0  0  0  0  0  0  0  0  0  0
    4.8096   -1.4907    0.1021 H   0  0  0  0  0  0  0  0  0  0  0  0
    4.0689   -1.4960    1.7208 H   0  0  0  0  0  0  0  0  0  0  0  0
  5  6  2  0  0  0  0
  5  7  1  0  0  0  0
  2  3  1  0  0  0  0
  2  4  1  0  0  0  0
  2  5  1  0  0  0  0
  1  2  1  0  0  0  0
 15 16  2  0  0  0  0
 15 17  1  0  0  0  0
 11 12  1  0  0  0  0
 11 13  1  0  0  0  0
 11 14  1  0  0  0  0
  9 10  1  0  0  0  0
  9 11  1  0  0  0  0
  9 15  1  0  0  0  0
  7  8  1  0  0  0  0
  7  9  1  0  0  0  0
 19 20  1  0  0  0  0
 19 21  1  0  0  0  0
 19 22  1  0  0  0  0
 17 18  1  0  0  0  0
 17 19  1  0  0  0  0
M  END
$$$$
default_name
  -OEChem-01062215323D

 22 21  0     1  0  0  0  0  0999 V2000
   -2.5423   -3.6749    0.8058 H   0  0  0  0  0  0  0  0  0  0  0  0
   -2.5063   -2.6779    0.3688 C   0  0  0  0  0  0  0  0  0  0  0  0
   -3.1603   -2.0109    0.9268 H   0  0  0  0  0  0  0  0  0  0  0  0
   -2.8193   -2.7229   -0.6722 H   0  0  0  0  0  0  0  0  0  0  0  0
   -1.0873   -2.1629    0.4418 C   0  0  0  0  0  0  0  0  0  0  0  0
   -0.2073   -2.8549    0.9368 O   0  0  0  0  0  0  0  0  0  0  0  0
   -0.8713   -0.9449   -0.0482 N   0  0  0  0  0  0  0  0  0  0  0  0
   -1.6543   -0.4189   -0.4062 H   0  0  0  0  0  0  0  0  0  0  0  0
    0.4237   -0.2649   -0.0462 C   0  0  1  0  0  0  0  0  0  0  0  0
    0.7206   -0.0687   -1.0778 H   0  0  0  0  0  0  0  0  0  0  0  0
    0.2800    1.0790    0.6844 C   0  0  0  0  0  0  0  0  0  0  0  0
   -0.0209    0.9089    1.7194 H   0  0  0  0  0  0  0  0  0  0  0  0
    1.2287    1.6146    0.6707 H   0  0  0  0  0  0  0  0  0  0  0  0
   -0.4748    1.6902    0.1867 H   0  0  0  0  0  0  0  0  0  0  0  0
    1.5101   -1.1465    0.6001 C   0  0  0  0  0  0  0  0  0  0  0  0
    1.1975   -2.1225    1.2817 O   0  0  0  0  0  0  0  0  0  0  0  0
    2.7844   -0.7897    0.3951 N   0  0  0  0  0  0  0  0  0  0  0  0
    2.9613    0.0252   -0.1702 H   0  0  0  0  0  0  0  0  0  0  0  0
    3.9326   -1.5104    0.9430 C   0  0  0  0  0  0  0  0  0  0  0  0
    3.8853   -2.5597    0.6447 H   0  0  0  0  0  0  0  0  0  0  0  0
    4.8638   -1.0752    0.5778 H   0  0  0  0  0  0  0  0  0  0  0  0
    3.9131   -1.4591    2.0330 H   0  0  0  0  0  0  0  0  0  0  0  0
  5  6  2  0  0  0  0
  5  7  1  0  0  0  0
  2  3  1  0  0  0  0
  2  4  1  0  0  0  0
  2  5  1  0  0  0  0
  1  2  1  0  0  0  0
 15 16  2  0  0  0  0
 15 17  1  0  0  0  0
 11 12  1  0  0  0  0
 11 13  1  0  0  0  0
 11 14  1  0  0  0  0
  9 10  1  0  0  0  0
  9 11  1  0  0  0  0
  9 15  1  0  0  0  0
  7  8  1  0  0  0  0
  7  9  1  0  0  0  0
 19 20  1  0  0  0  0
 19 21  1  0  0  0  0
 19 22  1  0  0  0  0
 17 18  1  0  0  0  0
 17 19  1  0  0  0  0
M  END
$$$$
default_name
  -OEChem-01062215323D

 22 21  0     1  0  0  0  0  0999 V2000
   -2.5423   -3.6749    0.8058 H   0  0  0  0  0  0  0  0  0  0  0  0
   -2.5063   -2.6779    0.3688 C   0  0  0  0  0  0  0  0  0  0  0  0
   -3.1603   -2.0109    0.9268 H   0  0  0  0  0  0  0  0  0  0  0  0
   -2.8193   -2.7229   -0.6722 H   0  0  0  0  0  0  0  0  0  0  0  0
   -1.0873   -2.1629    0.4418 C   0  0  0  0  0  0  0  0  0  0  0  0
   -0.2073   -2.8549    0.9368 O   0  0  0  0  0  0  0  0  0  0  0  0
   -0.8713   -0.9449   -0.0482 N   0  0  0  0  0  0  0  0  0  0  0  0
   -1.6543   -0.4189   -0.4062 H   0  0  0  0  0  0  0  0  0  0  0  0
    0.4237   -0.2649   -0.0462 C   0  0  1  0  0  0  0  0  0  0  0  0
    0.5969    0.1667   -1.0334 H   0  0  0  0  0  0  0  0  0  0  0  0
    0.3874    0.8737    0.9848 C   0  0  0  0  0  0  0  0  0  0  0  0
    0.2109    0.4666    1.9817 H   0  0  0  0  0  0  0  0  0  0  0  0
    1.3348    1.4118    0.9801 H   0  0  0  0  0  0  0  0  0  0  0  0
   -0.4134    1.5717    0.7349 H   0  0  0  0  0  0  0  0  0  0  0  0
    1.5679   -1.2554    0.2453 C   0  0  0  0  0  0  0  0  0  0  0  0
    1.3260   -2.4444    0.4520 O   0  0  0  0  0  0  0  0  0  0  0  0
    2.8105   -0.7575    0.2754 N   0  0  0  0  0  0  0  0  0  0  0  0
    2.9286    0.2278    0.1015 H   0  0  0  0  0  0  0  0  0  0  0  0
    4.0044   -1.5571    0.5462 C   0  0  0  0  0  0  0  0  0  0  0  0
    4.0554   -2.3921   -0.1554 H   0  0  0  0  0  0  0  0  0  0  0  0
    4.9023   -0.9461    0.4427 H   0  0  0  0  0  0  0  0  0  0  0  0
    3.9559   -1.9588    1.5597 H   0  0  0  0  0  0  0  0  0  0  0  0
  5  6  2  0  0  0  0
  5  7  1  0  0  0  0
  2  3  1  0  0  0  0
  2  4  1  0  0  0  0
  2  5  1  0  0  0  0
  1  2  1  0  0  0  0
 15 16  2  0  0  0  0
 15 17  1  0  0  0  0
 11 12  1  0  0  0  0
 11 13  1  0  0  0  0
 11 14  1  0  0  0  0
  9 10  1  0  0  0  0
  9 11  1  0  0  0  0
  9 15  1  0  0  0  0
  7  8  1  0  0  0  0
  7  9  1  0  0  0  0
 19 20  1  0  0  0  0
 19 21  1  0  0  0  0
 19 22  1  0  0  0  0
 17 18  1  0  0  0  0
 17 19  1  0  0  0  0
M  END
$$$$
default_name
  -OEChem-01062215323D

 22 21  0     1  0  0  0  0  0999 V2000
   -2.5423   -3.6749    0.8058 H   0  0  0  0  0  0  0  0  0  0  0  0
   -2.5063   -2.6779    0.3688 C   0  0  0  0  0  0  0  0  0  0  0  0
   -3.1603   -2.0109    0.9268 H   0  0  0  0  0  0  0  0  0  0  0  0
   -2.8193   -2.7229   -0.6722 H   0  0  0  0  0  0  0  0  0  0  0  0
   -1.0873   -2.1629    0.4418 C   0  0  0  0  0  0  0  0  0  0  0  0
   -0.2073   -2.8549    0.9368 O   0  0  0  0  0  0  0  0  0  0  0  0
   -0.8713   -0.9449   -0.0482 N   0  0  0  0  0  0  0  0  0  0  0  0
   -1.6543   -0.4189   -0.4062 H   0  0  0  0  0  0  0  0  0  0  0  0
    0.4237   -0.2649   -0.0462 C   0  0  1  0  0  0  0  0  0  0  0  0
    0.5969    0.1667   -1.0334 H   0  0  0  0  0  0  0  0  0  0  0  0
    0.3874    0.8737    0.9848 C   0  0  0  0  0  0  0  0  0  0  0  0
    0.2109    0.4666    1.9817 H   0  0  0  0  0  0  0  0  0  0  0  0
    1.3348    1.4118    0.9801 H   0  0  0  0  0  0  0  0  0  0  0  0
   -0.4134    1.5717    0.7349 H   0  0  0  0  0  0  0  0  0  0  0  0
    1.5679   -1.2554    0.2453 C   0  0  0  0  0  0  0  0  0  0  0  0
    1.3739   -2.4691    0.1803 O   0  0  0  0  0  0  0  0  0  0  0  0
    2.7542   -0.7328    0.5807 N   0  0  0  0  0  0  0  0  0  0  0  0
    2.8343    0.2708    0.6180 H   0  0  0  0  0  0  0  0  0  0  0  0
    3.9382   -1.5304    0.8965 C   0  0  0  0  0  0  0  0  0  0  0  0
    4.1563   -2.2093    0.0697 H   0  0  0  0  0  0  0  0  0  0  0  0
    4.7992   -0.8820    1.0650 H   0  0  0  0  0  0  0  0  0  0  0  0
    3.7529   -2.1247    1.7930 H   0  0  0  0  0  0  0  0  0  0  0  0
  5  6  2  0  0  0  0
  5  7  1  0  0  0  0
  2  3  1  0  0  0  0
  2  4  1  0  0  0  0
  2  5  1  0  0  0  0
  1  2  1  0  0  0  0
 15 16  2  0  0  0  0
 15 17  1  0  0  0  0
 11 12  1  0  0  0  0
 11 13  1  0  0  0  0
 11 14  1  0  0  0  0
  9 10  1  0  0  0  0
  9 11  1  0  0  0  0
  9 15  1  0  0  0  0
  7  8  1  0  0  0  0
  7  9  1  0  0  0  0
 19 20  1  0  0  0  0
 19 21  1  0  0  0  0
 19 22  1  0  0  0  0
 17 18  1  0  0  0  0
 17 19  1  0  0  0  0
M  END
$$$$
default_name
  -OEChem-01062215323D

 22 21  0     1  0  0  0  0  0999 V2000
   -2.5423   -3.6749    0.8058 H   0  0  0  0  0  0  0  0  0  0  0  0
   -2.5063   -2.6779    0.3688 C   0  0  0  0  0  0  0  0  0  0  0  0
   -3.1603   -2.0109    0.9268 H   0  0  0  0  0  0  0  0  0  0  0  0
   -2.8193   -2.7229   -0.6722 H   0  0  0  0  0  0  0  0  0  0  0  0
   -1.0873   -2.1629    0.4418 C   0  0  0  0  0  0  0  0  0  0  0  0
   -0.2073   -2.8549    0.9368 O   0  0  0  0  0  0  0  0  0  0  0  0
   -0.8713   -0.9449   -0.0482 N   0  0  0  0  0  0  0  0  0  0  0  0
   -1.6543   -0.4189   -0.4062 H   0  0  0  0  0  0  0  0  0  0  0  0
    0.4237   -0.2649   -0.0462 C   0  0  1  0  0  0  0  0  0  0  0  0
    0.5969    0.1667   -1.0334 H   0  0  0  0  0  0  0  0  0  0  0  0
    0.3874    0.8737    0.9848 C   0  0  0  0  0  0  0  0  0  0  0  0
    0.2109    0.4666    1.9817 H   0  0  0  0  0  0  0  0  0  0  0  0
    1.3348    1.4118    0.9801 H   0  0  0  0  0  0  0  0  0  0  0  0
   -0.4134    1.5717    0.7349 H   0  0  0  0  0  0  0  0  0  0  0  0
    1.5679   -1.2554    0.2453 C   0  0  0  0  0  0  0  0  0  0  0  0
    1.4665   -2.4384   -0.0789 O   0  0  0  0  0  0  0  0  0  0  0  0
    2.6478   -0.7702    0.8709 N   0  0  0  0  0  0  0  0  0  0  0  0
    2.6551    0.2086    1.1094 H   0  0  0  0  0  0  0  0  0  0  0  0
    3.8147   -1.5752    1.2291 C   0  0  0  0  0  0  0  0  0  0  0  0
    4.2073   -2.0712    0.3391 H   0  0  0  0  0  0  0  0  0  0  0  0
    4.5930   -0.9447    1.6612 H   0  0  0  0  0  0  0  0  0  0  0  0
    3.5261   -2.3396    1.9526 H   0  0  0  0  0  0  0  0  0  0  0  0
  5  6  2  0  0  0  0
  5  7  1  0  0  0  0
  2  3  1  0  0  0  0
  2  4  1  0  0  0  0
  2  5  1  0  0  0  0
  1  2  1  0  0  0  0
 15 16  2  0  0  0  0
 15 17  1  0  0  0  0
 11 12  1  0  0  0  0
 11 13  1  0  0  0  0
 11 14  1  0  0  0  0
  9 10  1  0  0  0  0
  9 11  1  0  0  0  0
  9 15  1  0  0  0  0
  7  8  1  0  0  0  0
  7  9  1  0  0  0  0
 19 20  1  0  0  0  0
 19 21  1  0  0  0  0
 19 22  1  0  0  0  0
 17 18  1  0  0  0  0
 17 19  1  0  0  0  0
M  END
$$$$
default_name
  -OEChem-01062215323D

 22 21  0     1  0  0  0  0  0999 V2000
   -2.5423   -3.6749    0.8058 H   0  0  0  0  0  0  0  0  0  0  0  0
   -2.5063   -2.6779    0.3688 C   0  0  0  0  0  0  0  0  0  0  0  0
   -3.1603   -2.0109    0.9268 H   0  0  0  0  0  0  0  0  0  0  0  0
   -2.8193   -2.7229   -0.6722 H   0  0  0  0  0  0  0  0  0  0  0  0
   -1.0873   -2.1629    0.4418 C   0  0  0  0  0  0  0  0  0  0  0  0
   -0.2073   -2.8549    0.9368 O   0  0  0  0  0  0  0  0  0  0  0  0
   -0.8713   -0.9449   -0.0482 N   0  0  0  0  0  0  0  0  0  0  0  0
   -1.6543   -0.4189   -0.4062 H   0  0  0  0  0  0  0  0  0  0  0  0
    0.4237   -0.2649   -0.0462 C   0  0  1  0  0  0  0  0  0  0  0  0
    0.5969    0.1667   -1.0334 H   0  0  0  0  0  0  0  0  0  0  0  0
    0.3874    0.8737    0.9848 C   0  0  0  0  0  0  0  0  0  0  0  0
    0.2109    0.4666    1.9817 H   0  0  0  0  0  0  0  0  0  0  0  0
    1.3348    1.4118    0.9801 H   0  0  0  0  0  0  0  0  0  0  0  0
   -0.4134    1.5717    0.7349 H   0  0  0  0  0  0  0  0  0  0  0  0
    1.5679   -1.2554    0.2453 C   0  0  0  0  0  0  0  0  0  0  0  0
    1.5976   -2.3545   -0.3080 O   0  0  0  0  0  0  0  0  0  0  0  0
    2.4986   -0.8674    1.1264 N   0  0  0  0  0  0  0  0  0  0  0  0
    2.4034    0.0452    1.5423 H   0  0  0  0  0  0  0  0  0  0  0  0
    3.6422   -1.6885    1.5212 C   0  0  0  0  0  0  0  0  0  0  0  0
    4.2049   -1.9869    0.6344 H   0  0  0  0  0  0  0  0  0  0  0  0
    4.2977   -1.1299    2.1908 H   0  0  0  0  0  0  0  0  0  0  0  0
    3.2911   -2.5890    2.0278 H   0  0  0  0  0  0  0  0  0  0  0  0
  5  6  2  0  0  0  0
  5  7  1  0  0  0  0
  2  3  1  0  0  0  0
  2  4  1  0  0  0  0
  2  5  1  0  0  0  0
  1  2  1  0  0  0  0
 15 16  2  0  0  0  0
 15 17  1  0  0  0  0
 11 12  1  0  0  0  0
 11 13  1  0  0  0  0
 11 14  1  0  0  0  0
  9 10  1  0  0  0  0
  9 11  1  0  0  0  0
  9 15  1  0  0  0  0
  7  8  1  0  0  0  0
  7  9  1  0  0  0  0
 19 20  1  0  0  0  0
 19 21  1  0  0  0  0
 19 22  1  0  0  0  0
 17 18  1  0  0  0  0
 17 19  1  0  0  0  0
M  END
$$$$
default_name
  -OEChem-01062215323D

 22 21  0     1  0  0  0  0  0999 V2000
   -2.5423   -3.6749    0.8058 H   0  0  0  0  0  0  0  0  0  0  0  0
   -2.5063   -2.6779    0.3688 C   0  0  0  0  0  0  0  0  0  0  0  0
   -3.1603   -2.0109    0.9268 H   0  0  0  0  0  0  0  0  0  0  0  0
   -2.8193   -2.7229   -0.6722 H   0  0  0  0  0  0  0  0  0  0  0  0
   -1.0873   -2.1629    0.4418 C   0  0  0  0  0  0  0  0  0  0  0  0
   -0.2073   -2.8549    0.9368 O   0  0  0  0  0  0  0  0  0  0  0  0
   -0.8713   -0.9449   -0.0482 N   0  0  0  0  0  0  0  0  0  0  0  0
   -1.6543   -0.4189   -0.4062 H   0  0  0  0  0  0  0  0  0  0  0  0
    0.4237   -0.2649   -0.0462 C   0  0  1  0  0  0  0  0  0  0  0  0
    0.5969    0.1667   -1.0334 H   0  0  0  0  0  0  0  0  0  0  0  0
    0.3874    0.8737    0.9848 C   0  0  0  0  0  0  0  0  0  0  0  0
    0.2109    0.4666    1.9817 H   0  0  0  0  0  0  0  0  0  0  0  0
    1.3348    1.4118    0.9801 H   0  0  0  0  0  0  0  0  0  0  0  0
   -0.4134    1.5717    0.7349 H   0  0  0  0  0  0  0  0  0  0  0  0
    1.5679   -1.2554    0.2453 C   0  0  0  0  0  0  0  0  0  0  0  0
    1.7582   -2.2229   -0.4914 O   0  0  0  0  0  0  0  0  0  0  0  0
    2.3167   -1.0177    1.3297 N   0  0  0  0  0  0  0  0  0  0  0  0
    2.0963   -0.2080    1.8872 H   0  0  0  0  0  0  0  0  0  0  0  0
    3.4326   -1.8624    1.7528 C   0  0  0  0  0  0  0  0  0  0  0  0
    4.1494   -1.9625    0.9354 H   0  0  0  0  0  0  0  0  0  0  0  0
    3.9334   -1.4250    2.6177 H   0  0  0  0  0  0  0  0  0  0  0  0
    3.0637   -2.8559    2.0134 H   0  0  0  0  0  0  0  0  0  0  0  0
  5  6  2  0  0  0  0
  5  7  1  0  0  0  0
  2  3  1  0  0  0  0
  2  4  1  0  0  0  0
  2  5  1  0  0  0  0
  1  2  1  0  0  0  0
 15 16  2  0  0  0  0
 15 17  1  0  0  0  0
 11 12  1  0  0  0  0
 11 13  1  0  0  0  0
 11 14  1  0  0  0  0
  9 10  1  0  0  0  0
  9 11  1  0  0  0  0
  9 15  1  0  0  0  0
  7  8  1  0  0  0  0
  7  9  1  0  0  0  0
 19 20  1  0  0  0  0
 19 21  1  0  0  0  0
 19 22  1  0  0  0  0
 17 18  1  0  0  0  0
 17 19  1  0  0  0  0
M  END
$$$$
default_name
  -OEChem-01062215323D

 22 21  0     1  0  0  0  0  0999 V2000
   -2.5423   -3.6749    0.8058 H   0  0  0  0  0  0  0  0  0  0  0  0
   -2.5063   -2.6779    0.3688 C   0  0  0  0  0  0  0  0  0  0  0  0
   -3.1603   -2.0109    0.9268 H   0  0  0  0  0  0  0  0  0  0  0  0
   -2.8193   -2.7229   -0.6722 H   0  0  0  0  0  0  0  0  0  0  0  0
   -1.0873   -2.1629    0.4418 C   0  0  0  0  0  0  0  0  0  0  0  0
   -0.2073   -2.8549    0.9368 O   0  0  0  0  0  0  0  0  0  0  0  0
   -0.8713   -0.9449   -0.0482 N   0  0  0  0  0  0  0  0  0  0  0  0
   -1.6543   -0.4189   -0.4062 H   0  0  0  0  0  0  0  0  0  0  0  0
    0.4237   -0.2649   -0.0462 C   0  0  1  0  0  0  0  0  0  0  0  0
    0.5969    0.1667   -1.0334 H   0  0  0  0  0  0  0  0  0  0  0  0
    0.3874    0.8737    0.9848 C   0  0  0  0  0  0  0  0  0  0  0  0
    0.2109    0.4666    1.9817 H   0  0  0  0  0  0  0  0  0  0  0  0
    1.3348    1.4118    0.9801 H   0  0  0  0  0  0  0  0  0  0  0  0
   -0.4134    1.5717    0.7349 H   0  0  0  0  0  0  0  0  0  0  0  0
    1.5679   -1.2554    0.2453 C   0  0  0  0  0  0  0  0  0  0  0  0
    1.9374   -2.0527   -0.6165 O   0  0  0  0  0  0  0  0  0  0  0  0
    2.1145   -1.2108    1.4669 N   0  0  0  0  0  0  0  0  0  0  0  0
    1.7546   -0.5340    2.1206 H   0  0  0  0  0  0  0  0  0  0  0  0
    3.2001   -2.0852    1.9083 C   0  0  0  0  0  0  0  0  0  0  0  0
    4.0446   -1.9993    1.2216 H   0  0  0  0  0  0  0  0  0  0  0  0
    3.5250   -1.8099    2.9127 H   0  0  0  0  0  0  0  0  0  0  0  0
    2.8595   -3.1220    1.9105 H   0  0  0  0  0  0  0  0  0  0  0  0
  5  6  2  0  0  0  0
  5  7  1  0  0  0  0
  2  3  1  0  0  0  0
  2  4  1  0  0  0  0
  2  5  1  0  0  0  0
  1  2  1  0  0  0  0
 15 16  2  0  0  0  0
 15 17  1  0  0  0  0
 11 12  1  0  0  0  0
 11 13  1  0  0  0  0
 11 14  1  0  0  0  0
  9 10  1  0  0  0  0
  9 11  1  0  0  0  0
  9 15  1  0  0  0  0
  7  8  1  0  0  0  0
  7  9  1  0  0  0  0
 19 20  1  0  0  0  0
 19 21  1  0  0  0  0
 19 22  1  0  0  0  0
 17 18  1  0  0  0  0
 17 19  1  0  0  0  0
M  END
$$$$
default_name
  -OEChem-01062215323D

 22 21  0     1  0  0  0  0  0999 V2000
   -2.5423   -3.6749    0.8058 H   0  0  0  0  0  0  0  0  0  0  0  0
   -2.5063   -2.6779    0.3688 C   0  0  0  0  0  0  0  0  0  0  0  0
   -3.1603   -2.0109    0.9268 H   0  0  0  0  0  0  0  0  0  0  0  0
   -2.8193   -2.7229   -0.6722 H   0  0  0  0  0  0  0  0  0  0  0  0
   -1.0873   -2.1629    0.4418 C   0  0  0  0  0  0  0  0  0  0  0  0
   -0.2073   -2.8549    0.9368 O   0  0  0  0  0  0  0  0  0  0  0  0
   -0.8713   -0.9449   -0.0482 N   0  0  0  0  0  0  0  0  0  0  0  0
   -1.6543   -0.4189   -0.4062 H   0  0  0  0  0  0  0  0  0  0  0  0
    0.4237   -0.2649   -0.0462 C   0  0  1  0  0  0  0  0  0  0  0  0
    0.5969    0.1667   -1.0334 H   0  0  0  0  0  0  0  0  0  0  0  0
    0.3874    0.8737    0.9848 C   0  0  0  0  0  0  0  0  0  0  0  0
    0.2109    0.4666    1.9817 H   0  0  0  0  0  0  0  0  0  0  0  0
    1.3348    1.4118    0.9801 H   0  0  0  0  0  0  0  0  0  0  0  0
   -0.4134    1.5717    0.7349 H   0  0  0  0  0  0  0  0  0  0  0  0
    1.5679   -1.2554    0.2453 C   0  0  0  0  0  0  0  0  0  0  0  0
    2.1230   -1.8555   -0.6748 O   0  0  0  0  0  0  0  0  0  0  0  0
    1.9059   -1.4336    1.5287 N   0  0  0  0  0  0  0  0  0  0  0  0
    1.4017   -0.9104    2.2266 H   0  0  0  0  0  0  0  0  0  0  0  0
    2.9606   -2.3416    1.9770 C   0  0  0  0  0  0  0  0  0  0  0  0
    3.8975   -2.0951    1.4735 H   0  0  0  0  0  0  0  0  0  0  0  0
    3.1003   -2.2584    3.0557 H   0  0  0  0  0  0  0  0  0  0  0  0
    2.6925   -3.3693    1.7259 H   0  0  0  0  0  0  0  0  0  0  0  0
  5  6  2  0  0  0  0
  5  7  1  0  0  0  0
  2  3  1  0  0  0  0
  2  4  1  0  0  0  0
  2  5  1  0  0  0  0
  1  2  1  0  0  0  0
 15 16  2  0  0  0  0
 15 17  1  0  0  0  0
 11 12  1  0  0  0  0
 11 13  1  0  0  0  0
 11 14  1  0  0  0  0
  9 10  1  0  0  0  0
  9 11  1  0  0  0  0
  9 15  1  0  0  0  0
  7  8  1  0  0  0  0
  7  9  1  0  0  0  0
 19 20  1  0  0  0  0
 19 21  1  0  0  0  0
 19 22  1  0  0  0  0
 17 18  1  0  0  0  0
 17 19  1  0  0  0  0
M  END
$$$$
default_name
  -OEChem-01062215323D

 22 21  0     1  0  0  0  0  0999 V2000
   -2.5423   -3.6749    0.8058 H   0  0  0  0  0  0  0  0  0  0  0  0
   -2.5063   -2.6779    0.3688 C   0  0  0  0  0  0  0  0  0  0  0  0
   -3.1603   -2.0109    0.9268 H   0  0  0  0  0  0  0  0  0  0  0  0
   -2.8193   -2.7229   -0.6722 H   0  0  0  0  0  0  0  0  0  0  0  0
   -1.0873   -2.1629    0.4418 C   0  0  0  0  0  0  0  0  0  0  0  0
   -0.2073   -2.8549    0.9368 O   0  0  0  0  0  0  0  0  0  0  0  0
   -0.8713   -0.9449   -0.0482 N   0  0  0  0  0  0  0  0  0  0  0  0
   -1.6543   -0.4189   -0.4062 H   0  0  0  0  0  0  0  0  0  0  0  0
    0.4237   -0.2649   -0.0462 C   0  0  1  0  0  0  0  0  0  0  0  0
    0.5969    0.1667   -1.0334 H   0  0  0  0  0  0  0  0  0  0  0  0
    0.3874    0.8737    0.9848 C   0  0  0  0  0  0  0  0  0  0  0  0
    0.2109    0.4666    1.9817 H   0  0  0  0  0  0  0  0  0  0  0  0
    1.3348    1.4118    0.9801 H   0  0  0  0  0  0  0  0  0  0  0  0
   -0.4134    1.5717    0.7349 H   0  0  0  0  0  0  0  0  0  0  0  0
    1.5679   -1.2554    0.2453 C   0  0  0  0  0  0  0  0  0  0  0  0
    2.3023   -1.6448   -0.6624 O   0  0  0  0  0  0  0  0  0  0  0  0
    1.7050   -1.6709    1.5109 N   0  0  0  0  0  0  0  0  0  0  0  0
    1.0617   -1.3116    2.1979 H   0  0  0  0  0  0  0  0  0  0  0  0
    2.7304   -2.6143    1.9542 C   0  0  0  0  0  0  0  0  0  0  0  0
    3.7182   -2.2432    1.6739 H   0  0  0  0  0  0  0  0  0  0  0  0
    2.6882   -2.7399    3.0371 H   0  0  0  0  0  0  0  0  0  0  0  0
    2.5739   -3.5809    1.4723 H   0  0  0  0  0  0  0  0  0  0  0  0
  5  6  2  0  0  0  0
  5  7  1  0  0  0  0
  2  3  1  0  0  0  0
  2  4  1  0  0  0  0
  2  5  1  0  0  0  0
  1  2  1  0  0  0  0
 15 16  2  0  0  0  0
 15 17  1  0  0  0  0
 11 12  1  0  0  0  0
 11 13  1  0  0  0  0
 11 14  1  0  0  0  0
  9 10  1  0  0  0  0
  9 11  1  0  0  0  0
  9 15  1  0  0  0  0
  7  8  1  0  0  0  0
  7  9  1  0  0  0  0
 19 20  1  0  0  0  0
 19 21  1  0  0  0  0
 19 22  1  0  0  0  0
 17 18  1  0  0  0  0
 17 19  1  0  0  0  0
M  END
$$$$
default_name
  -OEChem-01062215323D

 22 21  0     1  0  0  0  0  0999 V2000
   -2.5423   -3.6749    0.8058 H   0  0  0  0  0  0  0  0  0  0  0  0
   -2.5063   -2.6779    0.3688 C   0  0  0  0  0  0  0  0  0  0  0  0
   -3.1603   -2.0109    0.9268 H   0  0  0  0  0  0  0  0  0  0  0  0
   -2.8193   -2.7229   -0.6722 H   0  0  0  0  0  0  0  0  0  0  0  0
   -1.0873   -2.1629    0.4418 C   0  0  0  0  0  0  0  0  0  0  0  0
   -0.2073   -2.8549    0.9368 O   0  0  0  0  0  0  0  0  0  0  0  0
   -0.8713   -0.9449   -0.0482 N   0  0  0  0  0  0  0  0  0  0  0  0
   -1.6543   -0.4189   -0.4062 H   0  0  0  0  0  0  0  0  0  0  0  0
    0.4237   -0.2649   -0.0462 C   0  0  1  0  0  0  0  0  0  0  0  0
    0.5969    0.1667   -1.0334 H   0  0  0  0  0  0  0  0  0  0  0  0
    0.3874    0.8737    0.9848 C   0  0  0  0  0  0  0  0  0  0  0  0
    0.2109    0.4666    1.9817 H   0  0  0  0  0  0  0  0  0  0  0  0
    1.3348    1.4118    0.9801 H   0  0  0  0  0  0  0  0  0  0  0  0
   -0.4134    1.5717    0.7349 H   0  0  0  0  0  0  0  0  0  0  0  0
    1.5679   -1.2554    0.2453 C   0  0  0  0  0  0  0  0  0  0  0  0
    2.4631   -1.4348   -0.5801 O   0  0  0  0  0  0  0  0  0  0  0  0
    1.5255   -1.9065    1.4147 N   0  0  0  0  0  0  0  0  0  0  0  0
    0.7576   -1.7103    2.0366 H   0  0  0  0  0  0  0  0  0  0  0  0
    2.5251   -2.8845    1.8416 C   0  0  0  0  0  0  0  0  0  0  0  0
    3.5189   -2.4335    1.8093 H   0  0  0  0  0  0  0  0  0  0  0  0
    2.3169   -3.2216    2.8580 H   0  0  0  0  0  0  0  0  0  0  0  0
    2.5120   -3.7423    1.1670 H   0  0  0  0  0  0  0  0  0  0  0  0
  5  6  2  0  0  0  0
  5  7  1  0  0  0  0
  2  3  1  0  0  0  0
  2  4  1  0  0  0  0
  2  5  1  0  0  0  0
  1  2  1  0  0  0  0
 15 16  2  0  0  0  0
 15 17  1  0  0  0  0
 11 12  1  0  0  0  0
 11 13  1  0  0  0  0
 11 14  1  0  0  0  0
  9 10  1  0  0  0  0
  9 11  1  0  0  0  0
  9 15  1  0  0  0  0
  7  8  1  0  0  0  0
  7  9  1  0  0  0  0
 19 20  1  0  0  0  0
 19 21  1  0  0  0  0
 19 22  1  0  0  0  0
 17 18  1  0  0  0  0
 17 19  1  0  0  0  0
M  END
$$$$
default_name
  -OEChem-01062215323D

 22 21  0     1  0  0  0  0  0999 V2000
   -2.5423   -3.6749    0.8058 H   0  0  0  0  0  0  0  0  0  0  0  0
   -2.5063   -2.6779    0.3688 C   0  0  0  0  0  0  0  0  0  0  0  0
   -3.1603   -2.0109    0.9268 H   0  0  0  0  0  0  0  0  0  0  0  0
   -2.8193   -2.7229   -0.6722 H   0  0  0  0  0  0  0  0  0  0  0  0
   -1.0873   -2.1629    0.4418 C   0  0  0  0  0  0  0  0  0  0  0  0
   -0.2073   -2.8549    0.9368 O   0  0  0  0  0  0  0  0  0  0  0  0
   -0.8713   -0.9449   -0.0482 N   0  0  0  0  0  0  0  0  0  0  0  0
   -1.6543   -0.4189   -0.4062 H   0  0  0  0  0  0  0  0  0  0  0  0
    0.4237   -0.2649   -0.0462 C   0  0  1  0  0  0  0  0  0  0  0  0
    0.5969    0.1667   -1.0334 H   0  0  0  0  0  0  0  0  0  0  0  0
    0.3874    0.8737    0.9848 C   0  0  0  0  0  0  0  0  0  0  0  0
    0.2109    0.4666    1.9817 H   0  0  0  0  0  0  0  0  0  0  0  0
    1.3348    1.4118    0.9801 H   0  0  0  0  0  0  0  0  0  0  0  0
   -0.4134    1.5717    0.7349 H   0  0  0  0  0  0  0  0  0  0  0  0
    1.5679   -1.2554    0.2453 C   0  0  0  0  0  0  0  0  0  0  0  0
    2.5945   -1.2399   -0.4335 O   0  0  0  0  0  0  0  0  0  0  0  0
    1.3797   -2.1244    1.2466 N   0  0  0  0  0  0  0  0  0  0  0  0
    0.5103   -2.0793    1.7536 H   0  0  0  0  0  0  0  0  0  0  0  0
    2.3588   -3.1340    1.6467 C   0  0  0  0  0  0  0  0  0  0  0  0
    3.3132   -2.6532    1.8703 H   0  0  0  0  0  0  0  0  0  0  0  0
    2.0115   -3.6706    2.5307 H   0  0  0  0  0  0  0  0  0  0  0  0
    2.5108   -3.8426    0.8307 H   0  0  0  0  0  0  0  0  0  0  0  0
  5  6  2  0  0  0  0
  5  7  1  0  0  0  0
  2  3  1  0  0  0  0
  2  4  1  0  0  0  0
  2  5  1  0  0  0  0
  1  2  1  0  0  0  0
 15 16  2  0  0  0  0
 15 17  1  0  0  0  0
 11 12  1  0  0  0  0
 11 13  1  0  0  0  0
 11 14  1  0  0  0  0
  9 10  1  0  0  0  0
  9 11  1  0  0  0  0
  9 15  1  0  0  0  0
  7  8  1  0  0  0  0
  7  9  1  0  0  0  0
 19 20  1  0  0  0  0
 19 21  1  0  0  0  0
 19 22  1  0  0  0  0
 17 18  1  0  0  0  0
 17 19  1  0  0  0  0
M  END
$$$$
default_name
  -OEChem-01062215323D

 22 21  0     1  0  0  0  0  0999 V2000
   -2.5423   -3.6749    0.8058 H   0  0  0  0  0  0  0  0  0  0  0  0
   -2.5063   -2.6779    0.3688 C   0  0  0  0  0  0  0  0  0  0  0  0
   -3.1603   -2.0109    0.9268 H   0  0  0  0  0  0  0  0  0  0  0  0
   -2.8193   -2.7229   -0.6722 H   0  0  0  0  0  0  0  0  0  0  0  0
   -1.0873   -2.1629    0.4418 C   0  0  0  0  0  0  0  0  0  0  0  0
   -0.2073   -2.8549    0.9368 O   0  0  0  0  0  0  0  0  0  0  0  0
   -0.8713   -0.9449   -0.0482 N   0  0  0  0  0  0  0  0  0  0  0  0
   -1.6543   -0.4189   -0.4062 H   0  0  0  0  0  0  0  0  0  0  0  0
    0.4237   -0.2649   -0.0462 C   0  0  1  0  0  0  0  0  0  0  0  0
    0.5969    0.1667   -1.0334 H   0  0  0  0  0  0  0  0  0  0  0  0
    0.3874    0.8737    0.9848 C   0  0  0  0  0  0  0  0  0  0  0  0
    0.2109    0.4666    1.9817 H   0  0  0  0  0  0  0  0  0  0  0  0
    1.3348    1.4118    0.9801 H   0  0  0  0  0  0  0  0  0  0  0  0
   -0.4134    1.5717    0.7349 H   0  0  0  0  0  0  0  0  0  0  0  0
    1.5679   -1.2554    0.2453 C   0  0  0  0  0  0  0  0  0  0  0  0
    2.6874   -1.0734   -0.2326 O   0  0  0  0  0  0  0  0  0  0  0  0
    1.2775   -2.3097    1.0181 N   0  0  0  0  0  0  0  0  0  0  0  0
    0.3365   -2.3935    1.3681 H   0  0  0  0  0  0  0  0  0  0  0  0
    2.2428   -3.3456    1.3828 C   0  0  0  0  0  0  0  0  0  0  0  0
    3.1151   -2.8871    1.8528 H   0  0  0  0  0  0  0  0  0  0  0  0
    1.7930   -4.0564    2.0775 H   0  0  0  0  0  0  0  0  0  0  0  0
    2.5705   -3.8749    0.4865 H   0  0  0  0  0  0  0  0  0  0  0  0
  5  6  2  0  0  0  0
  5  7  1  0  0  0  0
  2  3  1  0  0  0  0
  2  4  1  0  0  0  0
  2  5  1  0  0  0  0
  1  2  1  0  0  0  0
 15 16  2  0  0  0  0
 15 17  1  0  0  0  0
 11 12  1  0  0  0  0
 11 13  1  0  0  0  0
 11 14  1  0  0  0  0
  9 10  1  0  0  0  0
  9 11  1  0  0  0  0
  9 15  1  0  0  0  0
  7  8  1  0  0  0  0
  7  9  1  0  0  0  0
 19 20  1  0  0  0  0
 19 21  1  0  0  0  0
 19 22  1  0  0  0  0
 17 18  1  0  0  0  0
 17 19  1  0  0  0  0
M  END
$$$$
default_name
  -OEChem-01062215323D

 22 21  0     1  0  0  0  0  0999 V2000
   -2.5423   -3.6749    0.8058 H   0  0  0  0  0  0  0  0  0  0  0  0
   -2.5063   -2.6779    0.3688 C   0  0  0  0  0  0  0  0  0  0  0  0
   -3.1603   -2.0109    0.9268 H   0  0  0  0  0  0  0  0  0  0  0  0
   -2.8193   -2.7229   -0.6722 H   0  0  0  0  0  0  0  0  0  0  0  0
   -1.0873   -2.1629    0.4418 C   0  0  0  0  0  0  0  0  0  0  0  0
   -0.2073   -2.8549    0.9368 O   0  0  0  0  0  0  0  0  0  0  0  0
   -0.8713   -0.9449   -0.0482 N   0  0  0  0  0  0  0  0  0  0  0  0
   -1.6543   -0.4189   -0.4062 H   0  0  0  0  0  0  0  0  0  0  0  0
    0.4237   -0.2649   -0.0462 C   0  0  1  0  0  0  0  0  0  0  0  0
    0.5969    0.1667   -1.0334 H   0  0  0  0  0  0  0  0  0  0  0  0
    0.3874    0.8737    0.9848 C   0  0  0  0  0  0  0  0  0  0  0  0
    0.2109    0.4666    1.9817 H   0  0  0  0  0  0  0  0  0  0  0  0
    1.3348    1.4118    0.9801 H   0  0  0  0  0  0  0  0  0  0  0  0
   -0.4134    1.5717    0.7349 H   0  0  0  0  0  0  0  0  0  0  0  0
    1.5679   -1.2554    0.2453 C   0  0  0  0  0  0  0  0  0  0  0  0
    2.7356   -0.9467    0.0089 O   0  0  0  0  0  0  0  0  0  0  0  0
    1.2258   -2.4498    0.7448 N   0  0  0  0  0  0  0  0  0  0  0  0
    0.2481   -2.6314    0.9066 H   0  0  0  0  0  0  0  0  0  0  0  0
    2.1850   -3.5050    1.0680 C   0  0  0  0  0  0  0  0  0  0  0  0
    2.9382   -3.1194    1.7581 H   0  0  0  0  0  0  0  0  0  0  0  0
    1.6762   -4.3526    1.5293 H   0  0  0  0  0  0  0  0  0  0  0  0
    2.6871   -3.8371    0.1577 H   0  0  0  0  0  0  0  0  0  0  0  0
  5  6  2  0  0  0  0
  5  7  1  0  0  0  0
  2  3  1  0  0  0  0
  2  4  1  0  0  0  0
  2  5  1  0  0  0  0
  1  2  1  0  0  0  0
 15 16  2  0  0  0  0
 15 17  1  0  0  0  0
 11 12  1  0  0  0  0
 11 13  1  0  0  0  0
 11 14  1  0  0  0  0
  9 10  1  0  0  0  0
  9 11  1  0  0  0  0
  9 15  1  0  0  0  0
  7  8  1  0  0  0  0
  7  9  1  0  0  0  0
 19 20  1  0  0  0  0
 19 21  1  0  0  0  0
 19 22  1  0  0  0  0
 17 18  1  0  0  0  0
 17 19  1  0  0  0  0
M  END
$$$$
default_name
  -OEChem-01062215323D

 22 21  0     1  0  0  0  0  0999 V2000
   -2.5423   -3.6749    0.8058 H   0  0  0  0  0  0  0  0  0  0  0  0
   -2.5063   -2.6779    0.3688 C   0  0  0  0  0  0  0  0  0  0  0  0
   -3.1603   -2.0109    0.9268 H   0  0  0  0  0  0  0  0  0  0  0  0
   -2.8193   -2.7229   -0.6722 H   0  0  0  0  0  0  0  0  0  0  0  0
   -1.0873   -2.1629    0.4418 C   0  0  0  0  0  0  0  0  0  0  0  0
   -0.2073   -2.8549    0.9368 O   0  0  0  0  0  0  0  0  0  0  0  0
   -0.8713   -0.9449   -0.0482 N   0  0  0  0  0  0  0  0  0  0  0  0
   -1.6543   -0.4189   -0.4062 H   0  0  0  0  0  0  0  0  0  0  0  0
    0.4237   -0.2649   -0.0462 C   0  0  1  0  0  0  0  0  0  0  0  0
    0.5969    0.1667   -1.0334 H   0  0  0  0  0  0  0  0  0  0  0  0
    0.3874    0.8737    0.9848 C   0  0  0  0  0  0  0  0  0  0  0  0
    0.2109    0.4666    1.9817 H   0  0  0  0  0  0  0  0  0  0  0  0
    1.3348    1.4118    0.9801 H   0  0  0  0  0  0  0  0  0  0  0  0
   -0.4134    1.5717    0.7349 H   0  0  0  0  0  0  0  0  0  0  0  0
    1.5679   -1.2554    0.2453 C   0  0  0  0  0  0  0  0  0  0  0  0
    2.7358   -0.8682    0.2746 O   0  0  0  0  0  0  0  0  0  0  0  0
    1.2283   -2.5352    0.4453 N   0  0  0  0  0  0  0  0  0  0  0  0
    0.2512   -2.7768    0.4003 H   0  0  0  0  0  0  0  0  0  0  0  0
    2.1894   -3.6013    0.7237 C   0  0  0  0  0  0  0  0  0  0  0  0
    2.7944   -3.3343    1.5924 H   0  0  0  0  0  0  0  0  0  0  0  0
    1.6691   -4.5392    0.9234 H   0  0  0  0  0  0  0  0  0  0  0  0
    2.8525   -3.7317   -0.1333 H   0  0  0  0  0  0  0  0  0  0  0  0
  5  6  2  0  0  0  0
  5  7  1  0  0  0  0
  2  3  1  0  0  0  0
  2  4  1  0  0  0  0
  2  5  1  0  0  0  0
  1  2  1  0  0  0  0
 15 16  2  0  0  0  0
 15 17  1  0  0  0  0
 11 12  1  0  0  0  0
 11 13  1  0  0  0  0
 11 14  1  0  0  0  0
  9 10  1  0  0  0  0
  9 11  1  0  0  0  0
  9 15  1  0  0  0  0
  7  8  1  0  0  0  0
  7  9  1  0  0  0  0
 19 20  1  0  0  0  0
 19 21  1  0  0  0  0
 19 22  1  0  0  0  0
 17 18  1  0  0  0  0
 17 19  1  0  0  0  0
M  END
$$$$
default_name
  -OEChem-01062215323D

 22 21  0     1  0  0  0  0  0999 V2000
   -2.5423   -3.6749    0.8058 H   0  0  0  0  0  0  0  0  0  0  0  0
   -2.5063   -2.6779    0.3688 C   0  0  0  0  0  0  0  0  0  0  0  0
   -3.1603   -2.0109    0.9268 H   0  0  0  0  0  0  0  0  0  0  0  0
   -2.8193   -2.7229   -0.6722 H   0  0  0  0  0  0  0  0  0  0  0  0
   -1.0873   -2.1629    0.4418 C   0  0  0  0  0  0  0  0  0  0  0  0
   -0.2073   -2.8549    0.9368 O   0  0  0  0  0  0  0  0  0  0  0  0
   -0.8713   -0.9449   -0.0482 N   0  0  0  0  0  0  0  0  0  0  0  0
   -1.6543   -0.4189   -0.4062 H   0  0  0  0  0  0  0  0  0  0  0  0
    0.4237   -0.2649   -0.0462 C   0  0  1  0  0  0  0  0  0  0  0  0
    0.5969    0.1667   -1.0334 H   0  0  0  0  0  0  0  0  0  0  0  0
    0.3874    0.8737    0.9848 C   0  0  0  0  0  0  0  0  0  0  0  0
    0.2109    0.4666    1.9817 H   0  0  0  0  0  0  0  0  0  0  0  0
    1.3348    1.4118    0.9801 H   0  0  0  0  0  0  0  0  0  0  0  0
   -0.4134    1.5717    0.7349 H   0  0  0  0  0  0  0  0  0  0  0  0
    1.5679   -1.2554    0.2453 C   0  0  0  0  0  0  0  0  0  0  0  0
    2.6880   -0.8435    0.5463 O   0  0  0  0  0  0  0  0  0  0  0  0
    1.2846   -2.5600    0.1401 N   0  0  0  0  0  0  0  0  0  0  0  0
    0.3456   -2.8199   -0.1161 H   0  0  0  0  0  0  0  0  0  0  0  0
    2.2556   -3.6280    0.3733 C   0  0  0  0  0  0  0  0  0  0  0  0
    2.6936   -3.5170    1.3672 H   0  0  0  0  0  0  0  0  0  0  0  0
    1.7722   -4.6033    0.3011 H   0  0  0  0  0  0  0  0  0  0  0  0
    3.0555   -3.5658   -0.3665 H   0  0  0  0  0  0  0  0  0  0  0  0
  5  6  2  0  0  0  0
  5  7  1  0  0  0  0
  2  3  1  0  0  0  0
  2  4  1  0  0  0  0
  2  5  1  0  0  0  0
  1  2  1  0  0  0  0
 15 16  2  0  0  0  0
 15 17  1  0  0  0  0
 11 12  1  0  0  0  0
 11 13  1  0  0  0  0
 11 14  1  0  0  0  0
  9 10  1  0  0  0  0
  9 11  1  0  0  0  0
  9 15  1  0  0  0  0
  7  8  1  0  0  0  0
  7  9  1  0  0  0  0
 19 20  1  0  0  0  0
 19 21  1  0  0  0  0
 19 22  1  0  0  0  0
 17 18  1  0  0  0  0
 17 19  1  0  0  0  0
M  END
$$$$
default_name
  -OEChem-01062215323D

 22 21  0     1  0  0  0  0  0999 V2000
   -2.5423   -3.6749    0.8058 H   0  0  0  0  0  0  0  0  0  0  0  0
   -2.5063   -2.6779    0.3688 C   0  0  0  0  0  0  0  0  0  0  0  0
   -3.1603   -2.0109    0.9268 H   0  0  0  0  0  0  0  0  0  0  0  0
   -2.8193   -2.7229   -0.6722 H   0  0  0  0  0  0  0  0  0  0  0  0
   -1.0873   -2.1629    0.4418 C   0  0  0  0  0  0  0  0  0  0  0  0
   -0.2073   -2.8549    0.9368 O   0  0  0  0  0  0  0  0  0  0  0  0
   -0.8713   -0.9449   -0.0482 N   0  0  0  0  0  0  0  0  0  0  0  0
   -1.6543   -0.4189   -0.4062 H   0  0  0  0  0  0  0  0  0  0  0  0
    0.4237   -0.2649   -0.0462 C   0  0  1  0  0  0  0  0  0  0  0  0
    0.5969    0.1667   -1.0334 H   0  0  0  0  0  0  0  0  0  0  0  0
    0.3874    0.8737    0.9848 C   0  0  0  0  0  0  0  0  0  0  0  0
    0.2109    0.4666    1.9817 H   0  0  0  0  0  0  0  0  0  0  0  0
    1.3348    1.4118    0.9801 H   0  0  0  0  0  0  0  0  0  0  0  0
   -0.4134    1.5717    0.7349 H   0  0  0  0  0  0  0  0  0  0  0  0
    1.5679   -1.2554    0.2453 C   0  0  0  0  0  0  0  0  0  0  0  0
    2.5954   -0.8742    0.8055 O   0  0  0  0  0  0  0  0  0  0  0  0
    1.3910   -2.5225   -0.1502 N   0  0  0  0  0  0  0  0  0  0  0  0
    0.5247   -2.7576   -0.6075 H   0  0  0  0  0  0  0  0  0  0  0  0
    2.3791   -3.5832    0.0407 C   0  0  0  0  0  0  0  0  0  0  0  0
    2.6426   -3.6552    1.0979 H   0  0  0  0  0  0  0  0  0  0  0  0
    1.9784   -4.5406   -0.2952 H   0  0  0  0  0  0  0  0  0  0  0  0
    3.2823   -3.3509   -0.5262 H   0  0  0  0  0  0  0  0  0  0  0  0
  5  6  2  0  0  0  0
  5  7  1  0  0  0  0
  2  3  1  0  0  0  0
  2  4  1  0  0  0  0
  2  5  1  0  0  0  0
  1  2  1  0  0  0  0
 15 16  2  0  0  0  0
 15 17  1  0  0  0  0
 11 12  1  0  0  0  0
 11 13  1  0  0  0  0
 11 14  1  0  0  0  0
  9 10  1  0  0  0  0
  9 11  1  0  0  0  0
  9 15  1  0  0  0  0
  7  8  1  0  0  0  0
  7  9  1  0  0  0  0
 19 20  1  0  0  0  0
 19 21  1  0  0  0  0
 19 22  1  0  0  0  0
 17 18  1  0  0  0  0
 17 19  1  0  0  0  0
M  END
$$$$
default_name
  -OEChem-01062215323D

 22 21  0     1  0  0  0  0  0999 V2000
   -2.5423   -3.6749    0.8058 H   0  0  0  0  0  0  0  0  0  0  0  0
   -2.5063   -2.6779    0.3688 C   0  0  0  0  0  0  0  0  0  0  0  0
   -3.1603   -2.0109    0.9268 H   0  0  0  0  0  0  0  0  0  0  0  0
   -2.8193   -2.7229   -0.6722 H   0  0  0  0  0  0  0  0  0  0  0  0
   -1.0873   -2.1629    0.4418 C   0  0  0  0  0  0  0  0  0  0  0  0
   -0.2073   -2.8549    0.9368 O   0  0  0  0  0  0  0  0  0  0  0  0
   -0.8713   -0.9449   -0.0482 N   0  0  0  0  0  0  0  0  0  0  0  0
   -1.6543   -0.4189   -0.4062 H   0  0  0  0  0  0  0  0  0  0  0  0
    0.4237   -0.2649   -0.0462 C   0  0  1  0  0  0  0  0  0  0  0  0
    0.5969    0.1667   -1.0334 H   0  0  0  0  0  0  0  0  0  0  0  0
    0.3874    0.8737    0.9848 C   0  0  0  0  0  0  0  0  0  0  0  0
    0.2109    0.4666    1.9817 H   0  0  0  0  0  0  0  0  0  0  0  0
    1.3348    1.4118    0.9801 H   0  0  0  0  0  0  0  0  0  0  0  0
   -0.4134    1.5717    0.7349 H   0  0  0  0  0  0  0  0  0  0  0  0
    1.5679   -1.2554    0.2453 C   0  0  0  0  0  0  0  0  0  0  0  0
    2.4643   -0.9582    1.0346 O   0  0  0  0  0  0  0  0  0  0  0  0
    1.5402   -2.4253   -0.4057 N   0  0  0  0  0  0  0  0  0  0  0  0
    0.7764   -2.5943   -1.0405 H   0  0  0  0  0  0  0  0  0  0  0  0
    2.5516   -3.4699   -0.2513 C   0  0  0  0  0  0  0  0  0  0  0  0
    2.6449   -3.7394    0.8026 H   0  0  0  0  0  0  0  0  0  0  0  0
    2.2737   -4.3554   -0.8248 H   0  0  0  0  0  0  0  0  0  0  0  0
    3.5174   -3.1015   -0.6014 H   0  0  0  0  0  0  0  0  0  0  0  0
  5  6  2  0  0  0  0
  5  7  1  0  0  0  0
  2  3  1  0  0  0  0
  2  4  1  0  0  0  0
  2  5  1  0  0  0  0
  1  2  1  0  0  0  0
 15 16  2  0  0  0  0
 15 17  1  0  0  0  0
 11 12  1  0  0  0  0
 11 13  1  0  0  0  0
 11 14  1  0  0  0  0
  9 10  1  0  0  0  0
  9 11  1  0  0  0  0
  9 15  1  0  0  0  0
  7  8  1  0  0  0  0
  7  9  1  0  0  0  0
 19 20  1  0  0  0  0
 19 21  1  0  0  0  0
 19 22  1  0  0  0  0
 17 18  1  0  0  0  0
 17 19  1  0  0  0  0
M  END
$$$$
default_name
  -OEChem-01062215323D

 22 21  0     1  0  0  0  0  0999 V2000
   -2.5423   -3.6749    0.8058 H   0  0  0  0  0  0  0  0  0  0  0  0
   -2.5063   -2.6779    0.3688 C   0  0  0  0  0  0  0  0  0  0  0  0
   -3.1603   -2.0109    0.9268 H   0  0  0  0  0  0  0  0  0  0  0  0
   -2.8193   -2.7229   -0.6722 H   0  0  0  0  0  0  0  0  0  0  0  0
   -1.0873   -2.1629    0.4418 C   0  0  0  0  0  0  0  0  0  0  0  0
   -0.2073   -2.8549    0.9368 O   0  0  0  0  0  0  0  0  0  0  0  0
   -0.8713   -0.9449   -0.0482 N   0  0  0  0  0  0  0  0  0  0  0  0
   -1.6543   -0.4189   -0.4062 H   0  0  0  0  0  0  0  0  0  0  0  0
    0.4237   -0.2649   -0.0462 C   0  0  1  0  0  0  0  0  0  0  0  0
    0.5969    0.1667   -1.0334 H   0  0  0  0  0  0  0  0  0  0  0  0
    0.3874    0.8737    0.9848 C   0  0  0  0  0  0  0  0  0  0  0  0
    0.2109    0.4666    1.9817 H   0  0  0  0  0  0  0  0  0  0  0  0
    1.3348    1.4118    0.9801 H   0  0  0  0  0  0  0  0  0  0  0  0
   -0.4134    1.5717    0.7349 H   0  0  0  0  0  0  0  0  0  0  0  0
    1.5679   -1.2554    0.2453 C   0  0  0  0  0  0  0  0  0  0  0  0
    2.3037   -1.0898    1.2180 O   0  0  0  0  0  0  0  0  0  0  0  0
    1.7221   -2.2750   -0.6090 N   0  0  0  0  0  0  0  0  0  0  0  0
    1.0835   -2.3410   -1.3854 H   0  0  0  0  0  0  0  0  0  0  0  0
    2.7612   -3.2960   -0.4830 C   0  0  0  0  0  0  0  0  0  0  0  0
    2.7004   -3.7639    0.5016 H   0  0  0  0  0  0  0  0  0  0  0  0
    2.6380   -4.0602   -1.2516 H   0  0  0  0  0  0  0  0  0  0  0  0
    3.7447   -2.8346   -0.5870 H   0  0  0  0  0  0  0  0  0  0  0  0
  5  6  2  0  0  0  0
  5  7  1  0  0  0  0
  2  3  1  0  0  0  0
  2  4  1  0  0  0  0
  2  5  1  0  0  0  0
  1  2  1  0  0  0  0
 15 16  2  0  0  0  0
 15 17  1  0  0  0  0
 11 12  1  0  0  0  0
 11 13  1  0  0  0  0
 11 14  1  0  0  0  0
  9 10  1  0  0  0  0
  9 11  1  0  0  0  0
  9 15  1  0  0  0  0
  7  8  1  0  0  0  0
  7  9  1  0  0  0  0
 19 20  1  0  0  0  0
 19 21  1  0  0  0  0
 19 22  1  0  0  0  0
 17 18  1  0  0  0  0
 17 19  1  0  0  0  0
M  END
$$$$
default_name
  -OEChem-01062215323D

 22 21  0     1  0  0  0  0  0999 V2000
   -2.5423   -3.6749    0.8058 H   0  0  0  0  0  0  0  0  0  0  0  0
   -2.5063   -2.6779    0.3688 C   0  0  0  0  0  0  0  0  0  0  0  0
   -3.1603   -2.0109    0.9268 H   0  0  0  0  0  0  0  0  0  0  0  0
   -2.8193   -2.7229   -0.6722 H   0  0  0  0  0  0  0  0  0  0  0  0
   -1.0873   -2.1629    0.4418 C   0  0  0  0  0  0  0  0  0  0  0  0
   -0.2073   -2.8549    0.9368 O   0  0  0  0  0  0  0  0  0  0  0  0
   -0.8713   -0.9449   -0.0482 N   0  0  0  0  0  0  0  0  0  0  0  0
   -1.6543   -0.4189   -0.4062 H   0  0  0  0  0  0  0  0  0  0  0  0
    0.4237   -0.2649   -0.0462 C   0  0  1  0  0  0  0  0  0  0  0  0
    0.5969    0.1667   -1.0334 H   0  0  0  0  0  0  0  0  0  0  0  0
    0.3874    0.8737    0.9848 C   0  0  0  0  0  0  0  0  0  0  0  0
    0.2109    0.4666    1.9817 H   0  0  0  0  0  0  0  0  0  0  0  0
    1.3348    1.4118    0.9801 H   0  0  0  0  0  0  0  0  0  0  0  0
   -0.4134    1.5717    0.7349 H   0  0  0  0  0  0  0  0  0  0  0  0
    1.5679   -1.2554    0.2453 C   0  0  0  0  0  0  0  0  0  0  0  0
    2.1244   -1.2599    1.3431 O   0  0  0  0  0  0  0  0  0  0  0  0
    1.9243   -2.0819   -0.7462 N   0  0  0  0  0  0  0  0  0  0  0  0
    1.4252   -2.0151   -1.6188 H   0  0  0  0  0  0  0  0  0  0  0  0
    2.9937   -3.0732   -0.6385 C   0  0  0  0  0  0  0  0  0  0  0  0
    2.8052   -3.7270    0.2154 H   0  0  0  0  0  0  0  0  0  0  0  0
    3.0464   -3.6753   -1.5466 H   0  0  0  0  0  0  0  0  0  0  0  0
    3.9489   -2.5685   -0.4840 H   0  0  0  0  0  0  0  0  0  0  0  0
  5  6  2  0  0  0  0
  5  7  1  0  0  0  0
  2  3  1  0  0  0  0
  2  4  1  0  0  0  0
  2  5  1  0  0  0  0
  1  2  1  0  0  0  0
 15 16  2  0  0  0  0
 15 17  1  0  0  0  0
 11 12  1  0  0  0  0
 11 13  1  0  0  0  0
 11 14  1  0  0  0  0
  9 10  1  0  0  0  0
  9 11  1  0  0  0  0
  9 15  1  0  0  0  0
  7  8  1  0  0  0  0
  7  9  1  0  0  0  0
 19 20  1  0  0  0  0
 19 21  1  0  0  0  0
 19 22  1  0  0  0  0
 17 18  1  0  0  0  0
 17 19  1  0  0  0  0
M  END
$$$$
default_name
  -OEChem-01062215323D

 22 21  0     1  0  0  0  0  0999 V2000
   -2.5423   -3.6749    0.8058 H   0  0  0  0  0  0  0  0  0  0  0  0
   -2.5063   -2.6779    0.3688 C   0  0  0  0  0  0  0  0  0  0  0  0
   -3.1603   -2.0109    0.9268 H   0  0  0  0  0  0  0  0  0  0  0  0
   -2.8193   -2.7229   -0.6722 H   0  0  0  0  0  0  0  0  0  0  0  0
   -1.0873   -2.1629    0.4418 C   0  0  0  0  0  0  0  0  0  0  0  0
   -0.2073   -2.8549    0.9368 O   0  0  0  0  0  0  0  0  0  0  0  0
   -0.8713   -0.9449   -0.0482 N   0  0  0  0  0  0  0  0  0  0  0  0
   -1.6543   -0.4189   -0.4062 H   0  0  0  0  0  0  0  0  0  0  0  0
    0.4237   -0.2649   -0.0462 C   0  0  1  0  0  0  0  0  0  0  0  0
    0.5969    0.1667   -1.0334 H   0  0  0  0  0  0  0  0  0  0  0  0
    0.3874    0.8737    0.9848 C   0  0  0  0  0  0  0  0  0  0  0  0
    0.2109    0.4666    1.9817 H   0  0  0  0  0  0  0  0  0  0  0  0
    1.3348    1.4118    0.9801 H   0  0  0  0  0  0  0  0  0  0  0  0
   -0.4134    1.5717    0.7349 H   0  0  0  0  0  0  0  0  0  0  0  0
    1.5679   -1.2554    0.2453 C   0  0  0  0  0  0  0  0  0  0  0  0
    1.9389   -1.4571    1.4014 O   0  0  0  0  0  0  0  0  0  0  0  0
    2.1329   -1.8591   -0.8080 N   0  0  0  0  0  0  0  0  0  0  0  0
    1.7781   -1.6386   -1.7247 H   0  0  0  0  0  0  0  0  0  0  0  0
    3.2332   -2.8167   -0.7072 C   0  0  0  0  0  0  0  0  0  0  0  0
    2.9523   -3.6312   -0.0365 H   0  0  0  0  0  0  0  0  0  0  0  0
    3.4711   -3.2269   -1.6897 H   0  0  0  0  0  0  0  0  0  0  0  0
    4.1159   -2.3212   -0.2994 H   0  0  0  0  0  0  0  0  0  0  0  0
  5  6  2  0  0  0  0
  5  7  1  0  0  0  0
  2  3  1  0  0  0  0
  2  4  1  0  0  0  0
  2  5  1  0  0  0  0
  1  2  1  0  0  0  0
 15 16  2  0  0  0  0
 15 17  1  0  0  0  0
 11 12  1  0  0  0  0
 11 13  1  0  0  0  0
 11 14  1  0  0  0  0
  9 10  1  0  0  0  0
  9 11  1  0  0  0  0
  9 15  1  0  0  0  0
  7  8  1  0  0  0  0
  7  9  1  0  0  0  0
 19 20  1  0  0  0  0
 19 21  1  0  0  0  0
 19 22  1  0  0  0  0
 17 18  1  0  0  0  0
 17 19  1  0  0  0  0
M  END
$$$$
default_name
  -OEChem-01062215323D

 22 21  0     1  0  0  0  0  0999 V2000
   -2.5423   -3.6749    0.8058 H   0  0  0  0  0  0  0  0  0  0  0  0
   -2.5063   -2.6779    0.3688 C   0  0  0  0  0  0  0  0  0  0  0  0
   -3.1603   -2.0109    0.9268 H   0  0  0  0  0  0  0  0  0  0  0  0
   -2.8193   -2.7229   -0.6722 H   0  0  0  0  0  0  0  0  0  0  0  0
   -1.0873   -2.1629    0.4418 C   0  0  0  0  0  0  0  0  0  0  0  0
   -0.2073   -2.8549    0.9368 O   0  0  0  0  0  0  0  0  0  0  0  0
   -0.8713   -0.9449   -0.0482 N   0  0  0  0  0  0  0  0  0  0  0  0
   -1.6543   -0.4189   -0.4062 H   0  0  0  0  0  0  0  0  0  0  0  0
    0.4237   -0.2649   -0.0462 C   0  0  1  0  0  0  0  0  0  0  0  0
    0.5969    0.1667   -1.0334 H   0  0  0  0  0  0  0  0  0  0  0  0
    0.3874    0.8737    0.9848 C   0  0  0  0  0  0  0  0  0  0  0  0
    0.2109    0.4666    1.9817 H   0  0  0  0  0  0  0  0  0  0  0  0
    1.3348    1.4118    0.9801 H   0  0  0  0  0  0  0  0  0  0  0  0
   -0.4134    1.5717    0.7349 H   0  0  0  0  0  0  0  0  0  0  0  0
    1.5679   -1.2554    0.2453 C   0  0  0  0  0  0  0  0  0  0  0  0
    1.7596   -1.6679    1.3890 O   0  0  0  0  0  0  0  0  0  0  0  0
    2.3338   -1.6218   -0.7902 N   0  0  0  0  0  0  0  0  0  0  0  0
    2.1181   -1.2374   -1.6961 H   0  0  0  0  0  0  0  0  0  0  0  0
    3.4634   -2.5441   -0.6844 C   0  0  0  0  0  0  0  0  0  0  0  0
    3.1316   -3.4831   -0.2370 H   0  0  0  0  0  0  0  0  0  0  0  0
    3.8831   -2.7454   -1.6710 H   0  0  0  0  0  0  0  0  0  0  0  0
    4.2345   -2.1096   -0.0458 H   0  0  0  0  0  0  0  0  0  0  0  0
  5  6  2  0  0  0  0
  5  7  1  0  0  0  0
  2  3  1  0  0  0  0
  2  4  1  0  0  0  0
  2  5  1  0  0  0  0
  1  2  1  0  0  0  0
 15 16  2  0  0  0  0
 15 17  1  0  0  0  0
 11 12  1  0  0  0  0
 11 13  1  0  0  0  0
 11 14  1  0  0  0  0
  9 10  1  0  0  0  0
  9 11  1  0  0  0  0
  9 15  1  0  0  0  0
  7  8  1  0  0  0  0
  7  9  1  0  0  0  0
 19 20  1  0  0  0  0
 19 21  1  0  0  0  0
 19 22  1  0  0  0  0
 17 18  1  0  0  0  0
 17 19  1  0  0  0  0
M  END
$$$$
default_name
  -OEChem-01062215323D

 22 21  0     1  0  0  0  0  0999 V2000
   -2.5423   -3.6749    0.8058 H   0  0  0  0  0  0  0  0  0  0  0  0
   -2.5063   -2.6779    0.3688 C   0  0  0  0  0  0  0  0  0  0  0  0
   -3.1603   -2.0109    0.9268 H   0  0  0  0  0  0  0  0  0  0  0  0
   -2.8193   -2.7229   -0.6722 H   0  0  0  0  0  0  0  0  0  0  0  0
   -1.0873   -2.1629    0.4418 C   0  0  0  0  0  0  0  0  0  0  0  0
   -0.2073   -2.8549    0.9368 O   0  0  0  0  0  0  0  0  0  0  0  0
   -0.8713   -0.9449   -0.0482 N   0  0  0  0  0  0  0  0  0  0  0  0
   -1.6543   -0.4189   -0.4062 H   0  0  0  0  0  0  0  0  0  0  0  0
    0.4237   -0.2649   -0.0462 C   0  0  1  0  0  0  0  0  0  0  0  0
    0.5969    0.1667   -1.0334 H   0  0  0  0  0  0  0  0  0  0  0  0
    0.3874    0.8737    0.9848 C   0  0  0  0  0  0  0  0  0  0  0  0
    0.2109    0.4666    1.9817 H   0  0  0  0  0  0  0  0  0  0  0  0
    1.3348    1.4118    0.9801 H   0  0  0  0  0  0  0  0  0  0  0  0
   -0.4134    1.5717    0.7349 H   0  0  0  0  0  0  0  0  0  0  0  0
    1.5679   -1.2554    0.2453 C   0  0  0  0  0  0  0  0  0  0  0  0
    1.5988   -1.8779    1.3067 O   0  0  0  0  0  0  0  0  0  0  0  0
    2.5133   -1.3862   -0.6939 N   0  0  0  0  0  0  0  0  0  0  0  0
    2.4222   -0.8387   -1.5348 H   0  0  0  0  0  0  0  0  0  0  0  0
    3.6687   -2.2739   -0.5717 C   0  0  0  0  0  0  0  0  0  0  0  0
    3.3309   -3.2928   -0.3723 H   0  0  0  0  0  0  0  0  0  0  0  0
    4.2545   -2.2637   -1.4920 H   0  0  0  0  0  0  0  0  0  0  0  0
    4.2964   -1.9482    0.2595 H   0  0  0  0  0  0  0  0  0  0  0  0
  5  6  2  0  0  0  0
  5  7  1  0  0  0  0
  2  3  1  0  0  0  0
  2  4  1  0  0  0  0
  2  5  1  0  0  0  0
  1  2  1  0  0  0  0
 15 16  2  0  0  0  0
 15 17  1  0  0  0  0
 11 12  1  0  0  0  0
 11 13  1  0  0  0  0
 11 14  1  0  0  0  0
  9 10  1  0  0  0  0
  9 11  1  0  0  0  0
  9 15  1  0  0  0  0
  7  8  1  0  0  0  0
  7  9  1  0  0  0  0
 19 20  1  0  0  0  0
 19 21  1  0  0  0  0
 19 22  1  0  0  0  0
 17 18  1  0  0  0  0
 17 19  1  0  0  0  0
M  END
$$$$
default_name
  -OEChem-01062215323D

 22 21  0     1  0  0  0  0  0999 V2000
   -2.5423   -3.6749    0.8058 H   0  0  0  0  0  0  0  0  0  0  0  0
   -2.5063   -2.6779    0.3688 C   0  0  0  0  0  0  0  0  0  0  0  0
   -3.1603   -2.0109    0.9268 H   0  0  0  0  0  0  0  0  0  0  0  0
   -2.8193   -2.7229   -0.6722 H   0  0  0  0  0  0  0  0  0  0  0  0
   -1.0873   -2.1629    0.4418 C   0  0  0  0  0  0  0  0  0  0  0  0
   -0.2073   -2.8549    0.9368 O   0  0  0  0  0  0  0  0  0  0  0  0
   -0.8713   -0.9449   -0.0482 N   0  0  0  0  0  0  0  0  0  0  0  0
   -1.6543   -0.4189   -0.4062 H   0  0  0  0  0  0  0  0  0  0  0  0
    0.4237   -0.2649   -0.0462 C   0  0  1  0  0  0  0  0  0  0  0  0
    0.5969    0.1667   -1.0334 H   0  0  0  0  0  0  0  0  0  0  0  0
    0.3874    0.8737    0.9848 C   0  0  0  0  0  0  0  0  0  0  0  0
    0.2109    0.4666    1.9817 H   0  0  0  0  0  0  0  0  0  0  0  0
    1.3348    1.4118    0.9801 H   0  0  0  0  0  0  0  0  0  0  0  0
   -0.4134    1.5717    0.7349 H   0  0  0  0  0  0  0  0  0  0  0  0
    1.5679   -1.2554    0.2453 C   0  0  0  0  0  0  0  0  0  0  0  0
    1.4674   -2.0727    1.1601 O   0  0  0  0  0  0  0  0  0  0  0  0
    2.6591   -1.1683   -0.5259 N   0  0  0  0  0  0  0  0  0  0  0  0
    2.6696   -0.4697   -1.2517 H   0  0  0  0  0  0  0  0  0  0  0  0
    3.8350   -2.0244   -0.3768 C   0  0  0  0  0  0  0  0  0  0  0  0
    3.5366   -3.0732   -0.4333 H   0  0  0  0  0  0  0  0  0  0  0  0
    4.5599   -1.8147   -1.1647 H   0  0  0  0  0  0  0  0  0  0  0  0
    4.2976   -1.8479    0.5957 H   0  0  0  0  0  0  0  0  0  0  0  0
  5  6  2  0  0  0  0
  5  7  1  0  0  0  0
  2  3  1  0  0  0  0
  2  4  1  0  0  0  0
  2  5  1  0  0  0  0
  1  2  1  0  0  0  0
 15 16  2  0  0  0  0
 15 17  1  0  0  0  0
 11 12  1  0  0  0  0
 11 13  1  0  0  0  0
 11 14  1  0  0  0  0
  9 10  1  0  0  0  0
  9 11  1  0  0  0  0
  9 15  1  0  0  0  0
  7  8  1  0  0  0  0
  7  9  1  0  0  0  0
 19 20  1  0  0  0  0
 19 21  1  0  0  0  0
 19 22  1  0  0  0  0
 17 18  1  0  0  0  0
 17 19  1  0  0  0  0
M  END
$$$$
default_name
  -OEChem-01062215323D

 22 21  0     1  0  0  0  0  0999 V2000
   -2.5423   -3.6749    0.8058 H   0  0  0  0  0  0  0  0  0  0  0  0
   -2.5063   -2.6779    0.3688 C   0  0  0  0  0  0  0  0  0  0  0  0
   -3.1603   -2.0109    0.9268 H   0  0  0  0  0  0  0  0  0  0  0  0
   -2.8193   -2.7229   -0.6722 H   0  0  0  0  0  0  0  0  0  0  0  0
   -1.0873   -2.1629    0.4418 C   0  0  0  0  0  0  0  0  0  0  0  0
   -0.2073   -2.8549    0.9368 O   0  0  0  0  0  0  0  0  0  0  0  0
   -0.8713   -0.9449   -0.0482 N   0  0  0  0  0  0  0  0  0  0  0  0
   -1.6543   -0.4189   -0.4062 H   0  0  0  0  0  0  0  0  0  0  0  0
    0.4237   -0.2649   -0.0462 C   0  0  1  0  0  0  0  0  0  0  0  0
    0.5969    0.1667   -1.0334 H   0  0  0  0  0  0  0  0  0  0  0  0
    0.3874    0.8737    0.9848 C   0  0  0  0  0  0  0  0  0  0  0  0
    0.2109    0.4666    1.9817 H   0  0  0  0  0  0  0  0  0  0  0  0
    1.3348    1.4118    0.9801 H   0  0  0  0  0  0  0  0  0  0  0  0
   -0.4134    1.5717    0.7349 H   0  0  0  0  0  0  0  0  0  0  0  0
    1.5679   -1.2554    0.2453 C   0  0  0  0  0  0  0  0  0  0  0  0
    1.3745   -2.2392    0.9592 O   0  0  0  0  0  0  0  0  0  0  0  0
    2.7613   -0.9830   -0.2974 N   0  0  0  0  0  0  0  0  0  0  0  0
    2.8433   -0.1556   -0.8663 H   0  0  0  0  0  0  0  0  0  0  0  0
    3.9510   -1.8128   -0.1130 C   0  0  0  0  0  0  0  0  0  0  0  0
    3.7347   -2.8392   -0.4158 H   0  0  0  0  0  0  0  0  0  0  0  0
    4.7784   -1.4289   -0.7115 H   0  0  0  0  0  0  0  0  0  0  0  0
    4.2379   -1.8156    0.9400 H   0  0  0  0  0  0  0  0  0  0  0  0
  5  6  2  0  0  0  0
  5  7  1  0  0  0  0
  2  3  1  0  0  0  0
  2  4  1  0  0  0  0
  2  5  1  0  0  0  0
  1  2  1  0  0  0  0
 15 16  2  0  0  0  0
 15 17  1  0  0  0  0
 11 12  1  0  0  0  0
 11 13  1  0  0  0  0
 11 14  1  0  0  0  0
  9 10  1  0  0  0  0
  9 11  1  0  0  0  0
  9 15  1  0  0  0  0
  7  8  1  0  0  0  0
  7  9  1  0  0  0  0
 19 20  1  0  0  0  0
 19 21  1  0  0  0  0
 19 22  1  0  0  0  0
 17 18  1  0  0  0  0
 17 19  1  0  0  0  0
M  END
$$$$
default_name
  -OEChem-01062215323D

 22 21  0     1  0  0  0  0  0999 V2000
   -2.5423   -3.6749    0.8058 H   0  0  0  0  0  0  0  0  0  0  0  0
   -2.5063   -2.6779    0.3688 C   0  0  0  0  0  0  0  0  0  0  0  0
   -3.1603   -2.0109    0.9268 H   0  0  0  0  0  0  0  0  0  0  0  0
   -2.8193   -2.7229   -0.6722 H   0  0  0  0  0  0  0  0  0  0  0  0
   -1.0873   -2.1629    0.4418 C   0  0  0  0  0  0  0  0  0  0  0  0
   -0.2073   -2.8549    0.9368 O   0  0  0  0  0  0  0  0  0  0  0  0
   -0.8713   -0.9449   -0.0482 N   0  0  0  0  0  0  0  0  0  0  0  0
   -1.6543   -0.4189   -0.4062 H   0  0  0  0  0  0  0  0  0  0  0  0
    0.4237   -0.2649   -0.0462 C   0  0  1  0  0  0  0  0  0  0  0  0
    0.5969    0.1667   -1.0334 H   0  0  0  0  0  0  0  0  0  0  0  0
    0.3874    0.8737    0.9848 C   0  0  0  0  0  0  0  0  0  0  0  0
    0.2109    0.4666    1.9817 H   0  0  0  0  0  0  0  0  0  0  0  0
    1.3348    1.4118    0.9801 H   0  0  0  0  0  0  0  0  0  0  0  0
   -0.4134    1.5717    0.7349 H   0  0  0  0  0  0  0  0  0  0  0  0
    1.5679   -1.2554    0.2453 C   0  0  0  0  0  0  0  0  0  0  0  0
    1.3262   -2.3660    0.7177 O   0  0  0  0  0  0  0  0  0  0  0  0
    2.8130   -0.8429   -0.0241 N   0  0  0  0  0  0  0  0  0  0  0  0
    2.9317    0.0823   -0.4047 H   0  0  0  0  0  0  0  0  0  0  0  0
    4.0088   -1.6534    0.2018 C   0  0  0  0  0  0  0  0  0  0  0  0
    3.9116   -2.6069   -0.3211 H   0  0  0  0  0  0  0  0  0  0  0  0
    4.8952   -1.1327   -0.1632 H   0  0  0  0  0  0  0  0  0  0  0  0
    4.1213   -1.8534    1.2688 H   0  0  0  0  0  0  0  0  0  0  0  0
  5  6  2  0  0  0  0
  5  7  1  0  0  0  0
  2  3  1  0  0  0  0
  2  4  1  0  0  0  0
  2  5  1  0  0  0  0
  1  2  1  0  0  0  0
 15 16  2  0  0  0  0
 15 17  1  0  0  0  0
 11 12  1  0  0  0  0
 11 13  1  0  0  0  0
 11 14  1  0  0  0  0
  9 10  1  0  0  0  0
  9 11  1  0  0  0  0
  9 15  1  0  0  0  0
  7  8  1  0  0  0  0
  7  9  1  0  0  0  0
 19 20  1  0  0  0  0
 19 21  1  0  0  0  0
 19 22  1  0  0  0  0
 17 18  1  0  0  0  0
 17 19  1  0  0  0  0
M  END
$$$$
default_name
  -OEChem-01062215323D

 22 21  0     1  0  0  0  0  0999 V2000
   -2.5423   -3.6749    0.8058 H   0  0  0  0  0  0  0  0  0  0  0  0
   -2.5063   -2.6779    0.3688 C   0  0  0  0  0  0  0  0  0  0  0  0
   -3.1603   -2.0109    0.9268 H   0  0  0  0  0  0  0  0  0  0  0  0
   -2.8193   -2.7229   -0.6722 H   0  0  0  0  0  0  0  0  0  0  0  0
   -1.0873   -2.1629    0.4418 C   0  0  0  0  0  0  0  0  0  0  0  0
   -0.2073   -2.8549    0.9368 O   0  0  0  0  0  0  0  0  0  0  0  0
   -0.8713   -0.9449   -0.0482 N   0  0  0  0  0  0  0  0  0  0  0  0
   -1.6543   -0.4189   -0.4062 H   0  0  0  0  0  0  0  0  0  0  0  0
    0.4237   -0.2649   -0.0462 C   0  0  1  0  0  0  0  0  0  0  0  0
    0.4827    0.3839   -0.9216 H   0  0  0  0  0  0  0  0  0  0  0  0
    0.5273    0.6065    1.2149 C   0  0  0  0  0  0  0  0  0  0  0  0
    0.4666   -0.0207    2.1059 H   0  0  0  0  0  0  0  0  0  0  0  0
    1.4745    1.1449    1.2198 H   0  0  0  0  0  0  0  0  0  0  0  0
   -0.2881    1.3316    1.2298 H   0  0  0  0  0  0  0  0  0  0  0  0
    1.5810   -1.2793   -0.1293 C   0  0  0  0  0  0  0  0  0  0  0  0
    1.3496   -2.4874   -0.1730 O   0  0  0  0  0  0  0  0  0  0  0  0
    2.8249   -0.7837   -0.1356 N   0  0  0  0  0  0  0  0  0  0  0  0
    2.9347    0.2168   -0.0919 H   0  0  0  0  0  0  0  0  0  0  0  0
    4.0317   -1.6068   -0.2008 C   0  0  0  0  0  0  0  0  0  0  0  0
    3.9865   -2.2580   -1.0760 H   0  0  0  0  0  0  0  0  0  0  0  0
    4.9188   -0.9756   -0.2688 H   0  0  0  0  0  0  0  0  0  0  0  0
    4.1001   -2.2308    0.6919 H   0  0  0  0  0  0  0  0  0  0  0  0
  5  6  2  0  0  0  0
  5  7  1  0  0  0  0
  2  3  1  0  0  0  0
  2  4  1  0  0  0  0
  2  5  1  0  0  0  0
  1  2  1  0  0  0  0
 15 16  2  0  0  0  0
 15 17  1  0  0  0  0
 11 12  1  0  0  0  0
 11 13  1  0  0  0  0
 11 14  1  0  0  0  0
  9 10  1  0  0  0  0
  9 11  1  0  0  0  0
  9 15  1  0  0  0  0
  7  8  1  0  0  0  0
  7  9  1  0  0  0  0
 19 20  1  0  0  0  0
 19 21  1  0  0  0  0
 19 22  1  0  0  0  0
 17 18  1  0  0  0  0
 17 19  1  0  0  0  0
M  END
$$$$
default_name
  -OEChem-01062215323D

 22 21  0     1  0  0  0  0  0999 V2000
   -2.5423   -3.6749    0.8058 H   0  0  0  0  0  0  0  0  0  0  0  0
   -2.5063   -2.6779    0.3688 C   0  0  0  0  0  0  0  0  0  0  0  0
   -3.1603   -2.0109    0.9268 H   0  0  0  0  0  0  0  0  0  0  0  0
   -2.8193   -2.7229   -0.6722 H   0  0  0  0  0  0  0  0  0  0  0  0
   -1.0873   -2.1629    0.4418 C   0  0  0  0  0  0  0  0  0  0  0  0
   -0.2073   -2.8549    0.9368 O   0  0  0  0  0  0  0  0  0  0  0  0
   -0.8713   -0.9449   -0.0482 N   0  0  0  0  0  0  0  0  0  0  0  0
   -1.6543   -0.4189   -0.4062 H   0  0  0  0  0  0  0  0  0  0  0  0
    0.4237   -0.2649   -0.0462 C   0  0  1  0  0  0  0  0  0  0  0  0
    0.4827    0.3839   -0.9216 H   0  0  0  0  0  0  0  0  0  0  0  0
    0.5273    0.6065    1.2149 C   0  0  0  0  0  0  0  0  0  0  0  0
    0.4666   -0.0207    2.1059 H   0  0  0  0  0  0  0  0  0  0  0  0
    1.4745    1.1449    1.2198 H   0  0  0  0  0  0  0  0  0  0  0  0
   -0.2881    1.3316    1.2298 H   0  0  0  0  0  0  0  0  0  0  0  0
    1.5810   -1.2793   -0.1293 C   0  0  0  0  0  0  0  0  0  0  0  0
    1.3640   -2.4485   -0.4468 O   0  0  0  0  0  0  0  0  0  0  0  0
    2.8061   -0.8304    0.1718 N   0  0  0  0  0  0  0  0  0  0  0  0
    2.9038    0.1390    0.4282 H   0  0  0  0  0  0  0  0  0  0  0  0
    4.0085   -1.6621    0.1517 C   0  0  0  0  0  0  0  0  0  0  0  0
    4.1162   -2.1303   -0.8288 H   0  0  0  0  0  0  0  0  0  0  0  0
    4.8923   -1.0572    0.3594 H   0  0  0  0  0  0  0  0  0  0  0  0
    3.9244   -2.4485    0.9036 H   0  0  0  0  0  0  0  0  0  0  0  0
  5  6  2  0  0  0  0
  5  7  1  0  0  0  0
  2  3  1  0  0  0  0
  2  4  1  0  0  0  0
  2  5  1  0  0  0  0
  1  2  1  0  0  0  0
 15 16  2  0  0  0  0
 15 17  1  0  0  0  0
 11 12  1  0  0  0  0
 11 13  1  0  0  0  0
 11 14  1  0  0  0  0
  9 10  1  0  0  0  0
  9 11  1  0  0  0  0
  9 15  1  0  0  0  0
  7  8  1  0  0  0  0
  7  9  1  0  0  0  0
 19 20  1  0  0  0  0
 19 21  1  0  0  0  0
 19 22  1  0  0  0  0
 17 18  1  0  0  0  0
 17 19  1  0  0  0  0
M  END
$$$$
default_name
  -OEChem-01062215323D

 22 21  0     1  0  0  0  0  0999 V2000
   -2.5423   -3.6749    0.8058 H   0  0  0  0  0  0  0  0  0  0  0  0
   -2.5063   -2.6779    0.3688 C   0  0  0  0  0  0  0  0  0  0  0  0
   -3.1603   -2.0109    0.9268 H   0  0  0  0  0  0  0  0  0  0  0  0
   -2.8193   -2.7229   -0.6722 H   0  0  0  0  0  0  0  0  0  0  0  0
   -1.0873   -2.1629    0.4418 C   0  0  0  0  0  0  0  0  0  0  0  0
   -0.2073   -2.8549    0.9368 O   0  0  0  0  0  0  0  0  0  0  0  0
   -0.8713   -0.9449   -0.0482 N   0  0  0  0  0  0  0  0  0  0  0  0
   -1.6543   -0.4189   -0.4062 H   0  0  0  0  0  0  0  0  0  0  0  0
    0.4237   -0.2649   -0.0462 C   0  0  1  0  0  0  0  0  0  0  0  0
    0.4827    0.3839   -0.9216 H   0  0  0  0  0  0  0  0  0  0  0  0
    0.5273    0.6065    1.2149 C   0  0  0  0  0  0  0  0  0  0  0  0
    0.4666   -0.0207    2.1059 H   0  0  0  0  0  0  0  0  0  0  0  0
    1.4745    1.1449    1.2198 H   0  0  0  0  0  0  0  0  0  0  0  0
   -0.2881    1.3316    1.2298 H   0  0  0  0  0  0  0  0  0  0  0  0
    1.5810   -1.2793   -0.1293 C   0  0  0  0  0  0  0  0  0  0  0  0
    1.4252   -2.3579   -0.7013 O   0  0  0  0  0  0  0  0  0  0  0  0
    2.7349   -0.9349    0.4564 N   0  0  0  0  0  0  0  0  0  0  0  0
    2.7843   -0.0368    0.9101 H   0  0  0  0  0  0  0  0  0  0  0  0
    3.9253   -1.7837    0.4775 C   0  0  0  0  0  0  0  0  0  0  0  0
    4.2011   -2.0568   -0.5430 H   0  0  0  0  0  0  0  0  0  0  0  0
    4.7585   -1.2578    0.9458 H   0  0  0  0  0  0  0  0  0  0  0  0
    3.7155   -2.6976    1.0359 H   0  0  0  0  0  0  0  0  0  0  0  0
  5  6  2  0  0  0  0
  5  7  1  0  0  0  0
  2  3  1  0  0  0  0
  2  4  1  0  0  0  0
  2  5  1  0  0  0  0
  1  2  1  0  0  0  0
 15 16  2  0  0  0  0
 15 17  1  0  0  0  0
 11 12  1  0  0  0  0
 11 13  1  0  0  0  0
 11 14  1  0  0  0  0
  9 10  1  0  0  0  0
  9 11  1  0  0  0  0
  9 15  1  0  0  0  0
  7  8  1  0  0  0  0
  7  9  1  0  0  0  0
 19 20  1  0  0  0  0
 19 21  1  0  0  0  0
 19 22  1  0  0  0  0
 17 18  1  0  0  0  0
 17 19  1  0  0  0  0
M  END
$$$$
default_name
  -OEChem-01062215323D

 22 21  0     1  0  0  0  0  0999 V2000
   -2.5423   -3.6749    0.8058 H   0  0  0  0  0  0  0  0  0  0  0  0
   -2.5063   -2.6779    0.3688 C   0  0  0  0  0  0  0  0  0  0  0  0
   -3.1603   -2.0109    0.9268 H   0  0  0  0  0  0  0  0  0  0  0  0
   -2.8193   -2.7229   -0.6722 H   0  0  0  0  0  0  0  0  0  0  0  0
   -1.0873   -2.1629    0.4418 C   0  0  0  0  0  0  0  0  0  0  0  0
   -0.2073   -2.8549    0.9368 O   0  0  0  0  0  0  0  0  0  0  0  0
   -0.8713   -0.9449   -0.0482 N   0  0  0  0  0  0  0  0  0  0  0  0
   -1.6543   -0.4189   -0.4062 H   0  0  0  0  0  0  0  0  0  0  0  0
    0.4237   -0.2649   -0.0462 C   0  0  1  0  0  0  0  0  0  0  0  0
    0.4827    0.3839   -0.9216 H   0  0  0  0  0  0  0  0  0  0  0  0
    0.5273    0.6065    1.2149 C   0  0  0  0  0  0  0  0  0  0  0  0
    0.4666   -0.0207    2.1059 H   0  0  0  0  0  0  0  0  0  0  0  0
    1.4745    1.1449    1.2198 H   0  0  0  0  0  0  0  0  0  0  0  0
   -0.2881    1.3316    1.2298 H   0  0  0  0  0  0  0  0  0  0  0  0
    1.5810   -1.2793   -0.1293 C   0  0  0  0  0  0  0  0  0  0  0  0
    1.5289   -2.2218   -0.9192 O   0  0  0  0  0  0  0  0  0  0  0  0
    2.6162   -1.0902    0.6988 N   0  0  0  0  0  0  0  0  0  0  0  0
    2.5843   -0.2985    1.3211 H   0  0  0  0  0  0  0  0  0  0  0  0
    3.7877   -1.9633    0.7544 C   0  0  0  0  0  0  0  0  0  0  0  0
    4.2355   -2.0425   -0.2383 H   0  0  0  0  0  0  0  0  0  0  0  0
    4.5266   -1.5637    1.4504 H   0  0  0  0  0  0  0  0  0  0  0  0
    3.4878   -2.9609    1.0796 H   0  0  0  0  0  0  0  0  0  0  0  0
  5  6  2  0  0  0  0
  5  7  1  0  0  0  0
  2  3  1  0  0  0  0
  2  4  1  0  0  0  0
  2  5  1  0  0  0  0
  1  2  1  0  0  0  0
 15 16  2  0  0  0  0
 15 17  1  0  0  0  0
 11 12  1  0  0  0  0
 11 13  1  0  0  0  0
 11 14  1  0  0  0  0
  9 10  1  0  0  0  0
  9 11  1  0  0  0  0
  9 15  1  0  0  0  0
  7  8  1  0  0  0  0
  7  9  1  0  0  0  0
 19 20  1  0  0  0  0
 19 21  1  0  0  0  0
 19 22  1  0  0  0  0
 17 18  1  0  0  0  0
 17 19  1  0  0  0  0
M  END
$$$$
default_name
  -OEChem-01062215323D

 22 21  0     1  0  0  0  0  0999 V2000
   -2.5423   -3.6749    0.8058 H   0  0  0  0  0  0  0  0  0  0  0  0
   -2.5063   -2.6779    0.3688 C   0  0  0  0  0  0  0  0  0  0  0  0
   -3.1603   -2.0109    0.9268 H   0  0  0  0  0  0  0  0  0  0  0  0
   -2.8193   -2.7229   -0.6722 H   0  0  0  0  0  0  0  0  0  0  0  0
   -1.0873   -2.1629    0.4418 C   0  0  0  0  0  0  0  0  0  0  0  0
   -0.2073   -2.8549    0.9368 O   0  0  0  0  0  0  0  0  0  0  0  0
   -0.8713   -0.9449   -0.0482 N   0  0  0  0  0  0  0  0  0  0  0  0
   -1.6543   -0.4189   -0.4062 H   0  0  0  0  0  0  0  0  0  0  0  0
    0.4237   -0.2649   -0.0462 C   0  0  1  0  0  0  0  0  0  0  0  0
    0.4827    0.3839   -0.9216 H   0  0  0  0  0  0  0  0  0  0  0  0
    0.5273    0.6065    1.2149 C   0  0  0  0  0  0  0  0  0  0  0  0
    0.4666   -0.0207    2.1059 H   0  0  0  0  0  0  0  0  0  0  0  0
    1.4745    1.1449    1.2198 H   0  0  0  0  0  0  0  0  0  0  0  0
   -0.2881    1.3316    1.2298 H   0  0  0  0  0  0  0  0  0  0  0  0
    1.5810   -1.2793   -0.1293 C   0  0  0  0  0  0  0  0  0  0  0  0
    1.6680   -2.0494   -1.0854 O   0  0  0  0  0  0  0  0  0  0  0  0
    2.4580   -1.2856    0.8826 N   0  0  0  0  0  0  0  0  0  0  0  0
    2.3175   -0.6285    1.6332 H   0  0  0  0  0  0  0  0  0  0  0  0
    3.6052   -2.1887    0.9635 C   0  0  0  0  0  0  0  0  0  0  0  0
    4.2169   -2.0884    0.0647 H   0  0  0  0  0  0  0  0  0  0  0  0
    4.2124   -1.9540    1.8389 H   0  0  0  0  0  0  0  0  0  0  0  0
    3.2567   -3.2206    1.0319 H   0  0  0  0  0  0  0  0  0  0  0  0
  5  6  2  0  0  0  0
  5  7  1  0  0  0  0
  2  3  1  0  0  0  0
  2  4  1  0  0  0  0
  2  5  1  0  0  0  0
  1  2  1  0  0  0  0
 15 16  2  0  0  0  0
 15 17  1  0  0  0  0
 11 12  1  0  0  0  0
 11 13  1  0  0  0  0
 11 14  1  0  0  0  0
  9 10  1  0  0  0  0
  9 11  1  0  0  0  0
  9 15  1  0  0  0  0
  7  8  1  0  0  0  0
  7  9  1  0  0  0  0
 19 20  1  0  0  0  0
 19 21  1  0  0  0  0
 19 22  1  0  0  0  0
 17 18  1  0  0  0  0
 17 19  1  0  0  0  0
M  END
$$$$
default_name
  -OEChem-01062215323D

 22 21  0     1  0  0  0  0  0999 V2000
   -2.5423   -3.6749    0.8058 H   0  0  0  0  0  0  0  0  0  0  0  0
   -2.5063   -2.6779    0.3688 C   0  0  0  0  0  0  0  0  0  0  0  0
   -3.1603   -2.0109    0.9268 H   0  0  0  0  0  0  0  0  0  0  0  0
   -2.8193   -2.7229   -0.6722 H   0  0  0  0  0  0  0  0  0  0  0  0
   -1.0873   -2.1629    0.4418 C   0  0  0  0  0  0  0  0  0  0  0  0
   -0.2073   -2.8549    0.9368 O   0  0  0  0  0  0  0  0  0  0  0  0
   -0.8713   -0.9449   -0.0482 N   0  0  0  0  0  0  0  0  0  0  0  0
   -1.6543   -0.4189   -0.4062 H   0  0  0  0  0  0  0  0  0  0  0  0
    0.4237   -0.2649   -0.0462 C   0  0  1  0  0  0  0  0  0  0  0  0
    0.4827    0.3839   -0.9216 H   0  0  0  0  0  0  0  0  0  0  0  0
    0.5273    0.6065    1.2149 C   0  0  0  0  0  0  0  0  0  0  0  0
    0.4666   -0.0207    2.1059 H   0  0  0  0  0  0  0  0  0  0  0  0
    1.4745    1.1449    1.2198 H   0  0  0  0  0  0  0  0  0  0  0  0
   -0.2881    1.3316    1.2298 H   0  0  0  0  0  0  0  0  0  0  0  0
    1.5810   -1.2793   -0.1293 C   0  0  0  0  0  0  0  0  0  0  0  0
    1.8332   -1.8525   -1.1888 O   0  0  0  0  0  0  0  0  0  0  0  0
    2.2713   -1.5079    0.9952 N   0  0  0  0  0  0  0  0  0  0  0  0
    2.0020   -1.0041    1.8250 H   0  0  0  0  0  0  0  0  0  0  0  0
    3.3900   -2.4445    1.0906 C   0  0  0  0  0  0  0  0  0  0  0  0
    4.1468   -2.1914    0.3453 H   0  0  0  0  0  0  0  0  0  0  0  0
    3.8372   -2.4020    2.0847 H   0  0  0  0  0  0  0  0  0  0  0  0
    3.0380   -3.4590    0.8960 H   0  0  0  0  0  0  0  0  0  0  0  0
  5  6  2  0  0  0  0
  5  7  1  0  0  0  0
  2  3  1  0  0  0  0
  2  4  1  0  0  0  0
  2  5  1  0  0  0  0
  1  2  1  0  0  0  0
 15 16  2  0  0  0  0
 15 17  1  0  0  0  0
 11 12  1  0  0  0  0
 11 13  1  0  0  0  0
 11 14  1  0  0  0  0
  9 10  1  0  0  0  0
  9 11  1  0  0  0  0
  9 15  1  0  0  0  0
  7  8  1  0  0  0  0
  7  9  1  0  0  0  0
 19 20  1  0  0  0  0
 19 21  1  0  0  0  0
 19 22  1  0  0  0  0
 17 18  1  0  0  0  0
 17 19  1  0  0  0  0
M  END
$$$$
default_name
  -OEChem-01062215323D

 22 21  0     1  0  0  0  0  0999 V2000
   -2.5423   -3.6749    0.8058 H   0  0  0  0  0  0  0  0  0  0  0  0
   -2.5063   -2.6779    0.3688 C   0  0  0  0  0  0  0  0  0  0  0  0
   -3.1603   -2.0109    0.9268 H   0  0  0  0  0  0  0  0  0  0  0  0
   -2.8193   -2.7229   -0.6722 H   0  0  0  0  0  0  0  0  0  0  0  0
   -1.0873   -2.1629    0.4418 C   0  0  0  0  0  0  0  0  0  0  0  0
   -0.2073   -2.8549    0.9368 O   0  0  0  0  0  0  0  0  0  0  0  0
   -0.8713   -0.9449   -0.0482 N   0  0  0  0  0  0  0  0  0  0  0  0
   -1.6543   -0.4189   -0.4062 H   0  0  0  0  0  0  0  0  0  0  0  0
    0.4237   -0.2649   -0.0462 C   0  0  1  0  0  0  0  0  0  0  0  0
    0.4827    0.3839   -0.9216 H   0  0  0  0  0  0  0  0  0  0  0  0
    0.5273    0.6065    1.2149 C   0  0  0  0  0  0  0  0  0  0  0  0
    0.4666   -0.0207    2.1059 H   0  0  0  0  0  0  0  0  0  0  0  0
    1.4745    1.1449    1.2198 H   0  0  0  0  0  0  0  0  0  0  0  0
   -0.2881    1.3316    1.2298 H   0  0  0  0  0  0  0  0  0  0  0  0
    1.5810   -1.2793   -0.1293 C   0  0  0  0  0  0  0  0  0  0  0  0
    2.0131   -1.6446   -1.2223 O   0  0  0  0  0  0  0  0  0  0  0  0
    2.0686   -1.7419    1.0289 N   0  0  0  0  0  0  0  0  0  0  0  0
    1.6593   -1.3999    1.8836 H   0  0  0  0  0  0  0  0  0  0  0  0
    3.1570   -2.7133    1.1270 C   0  0  0  0  0  0  0  0  0  0  0  0
    4.0298   -2.3445    0.5844 H   0  0  0  0  0  0  0  0  0  0  0  0
    3.4267   -2.8774    2.1712 H   0  0  0  0  0  0  0  0  0  0  0  0
    2.8466   -3.6598    0.6812 H   0  0  0  0  0  0  0  0  0  0  0  0
  5  6  2  0  0  0  0
  5  7  1  0  0  0  0
  2  3  1  0  0  0  0
  2  4  1  0  0  0  0
  2  5  1  0  0  0  0
  1  2  1  0  0  0  0
 15 16  2  0  0  0  0
 15 17  1  0  0  0  0
 11 12  1  0  0  0  0
 11 13  1  0  0  0  0
 11 14  1  0  0  0  0
  9 10  1  0  0  0  0
  9 11  1  0  0  0  0
  9 15  1  0  0  0  0
  7  8  1  0  0  0  0
  7  9  1  0  0  0  0
 19 20  1  0  0  0  0
 19 21  1  0  0  0  0
 19 22  1  0  0  0  0
 17 18  1  0  0  0  0
 17 19  1  0  0  0  0
M  END
$$$$
default_name
  -OEChem-01062215323D

 22 21  0     1  0  0  0  0  0999 V2000
   -2.5423   -3.6749    0.8058 H   0  0  0  0  0  0  0  0  0  0  0  0
   -2.5063   -2.6779    0.3688 C   0  0  0  0  0  0  0  0  0  0  0  0
   -3.1603   -2.0109    0.9268 H   0  0  0  0  0  0  0  0  0  0  0  0
   -2.8193   -2.7229   -0.6722 H   0  0  0  0  0  0  0  0  0  0  0  0
   -1.0873   -2.1629    0.4418 C   0  0  0  0  0  0  0  0  0  0  0  0
   -0.2073   -2.8549    0.9368 O   0  0  0  0  0  0  0  0  0  0  0  0
   -0.8713   -0.9449   -0.0482 N   0  0  0  0  0  0  0  0  0  0  0  0
   -1.6543   -0.4189   -0.4062 H   0  0  0  0  0  0  0  0  0  0  0  0
    0.4237   -0.2649   -0.0462 C   0  0  1  0  0  0  0  0  0  0  0  0
    0.4827    0.3839   -0.9216 H   0  0  0  0  0  0  0  0  0  0  0  0
    0.5273    0.6065    1.2149 C   0  0  0  0  0  0  0  0  0  0  0  0
    0.4666   -0.0207    2.1059 H   0  0  0  0  0  0  0  0  0  0  0  0
    1.4745    1.1449    1.2198 H   0  0  0  0  0  0  0  0  0  0  0  0
   -0.2881    1.3316    1.2298 H   0  0  0  0  0  0  0  0  0  0  0  0
    1.5810   -1.2793   -0.1293 C   0  0  0  0  0  0  0  0  0  0  0  0
    2.1954   -1.4397   -1.1836 O   0  0  0  0  0  0  0  0  0  0  0  0
    1.8638   -1.9717    0.9815 N   0  0  0  0  0  0  0  0  0  0  0  0
    1.3128   -1.7887    1.8049 H   0  0  0  0  0  0  0  0  0  0  0  0
    2.9220   -2.9767    1.0702 C   0  0  0  0  0  0  0  0  0  0  0  0
    3.8739   -2.5371    0.7657 H   0  0  0  0  0  0  0  0  0  0  0  0
    3.0089   -3.3477    2.0924 H   0  0  0  0  0  0  0  0  0  0  0  0
    2.6955   -3.8093    0.4020 H   0  0  0  0  0  0  0  0  0  0  0  0
  5  6  2  0  0  0  0
  5  7  1  0  0  0  0
  2  3  1  0  0  0  0
  2  4  1  0  0  0  0
  2  5  1  0  0  0  0
  1  2  1  0  0  0  0
 15 16  2  0  0  0  0
 15 17  1  0  0  0  0
 11 12  1  0  0  0  0
 11 13  1  0  0  0  0
 11 14  1  0  0  0  0
  9 10  1  0  0  0  0
  9 11  1  0  0  0  0
  9 15  1  0  0  0  0
  7  8  1  0  0  0  0
  7  9  1  0  0  0  0
 19 20  1  0  0  0  0
 19 21  1  0  0  0  0
 19 22  1  0  0  0  0
 17 18  1  0  0  0  0
 17 19  1  0  0  0  0
M  END
$$$$
default_name
  -OEChem-01062215323D

 22 21  0     1  0  0  0  0  0999 V2000
   -2.5423   -3.6749    0.8058 H   0  0  0  0  0  0  0  0  0  0  0  0
   -2.5063   -2.6779    0.3688 C   0  0  0  0  0  0  0  0  0  0  0  0
   -3.1603   -2.0109    0.9268 H   0  0  0  0  0  0  0  0  0  0  0  0
   -2.8193   -2.7229   -0.6722 H   0  0  0  0  0  0  0  0  0  0  0  0
   -1.0873   -2.1629    0.4418 C   0  0  0  0  0  0  0  0  0  0  0  0
   -0.2073   -2.8549    0.9368 O   0  0  0  0  0  0  0  0  0  0  0  0
   -0.8713   -0.9449   -0.0482 N   0  0  0  0  0  0  0  0  0  0  0  0
   -1.6543   -0.4189   -0.4062 H   0  0  0  0  0  0  0  0  0  0  0  0
    0.4237   -0.2649   -0.0462 C   0  0  1  0  0  0  0  0  0  0  0  0
    0.4827    0.3839   -0.9216 H   0  0  0  0  0  0  0  0  0  0  0  0
    0.5273    0.6065    1.2149 C   0  0  0  0  0  0  0  0  0  0  0  0
    0.4666   -0.0207    2.1059 H   0  0  0  0  0  0  0  0  0  0  0  0
    1.4745    1.1449    1.2198 H   0  0  0  0  0  0  0  0  0  0  0  0
   -0.2881    1.3316    1.2298 H   0  0  0  0  0  0  0  0  0  0  0  0
    1.5810   -1.2793   -0.1293 C   0  0  0  0  0  0  0  0  0  0  0  0
    2.3678   -1.2519   -1.0753 O   0  0  0  0  0  0  0  0  0  0  0  0
    1.6708   -2.1816    0.8561 N   0  0  0  0  0  0  0  0  0  0  0  0
    0.9861   -2.1442    1.5942 H   0  0  0  0  0  0  0  0  0  0  0  0
    2.7010   -3.2169    0.9241 C   0  0  0  0  0  0  0  0  0  0  0  0
    3.6898   -2.7563    0.8768 H   0  0  0  0  0  0  0  0  0  0  0  0
    2.6121   -3.7808    1.8538 H   0  0  0  0  0  0  0  0  0  0  0  0
    2.5951   -3.8974    0.0775 H   0  0  0  0  0  0  0  0  0  0  0  0
  5  6  2  0  0  0  0
  5  7  1  0  0  0  0
  2  3  1  0  0  0  0
  2  4  1  0  0  0  0
  2  5  1  0  0  0  0
  1  2  1  0  0  0  0
 15 16  2  0  0  0  0
 15 17  1  0  0  0  0
 11 12  1  0  0  0  0
 11 13  1  0  0  0  0
 11 14  1  0  0  0  0
  9 10  1  0  0  0  0
  9 11  1  0  0  0  0
  9 15  1  0  0  0  0
  7  8  1  0  0  0  0
  7  9  1  0  0  0  0
 19 20  1  0  0  0  0
 19 21  1  0  0  0  0
 19 22  1  0  0  0  0
 17 18  1  0  0  0  0
 17 19  1  0  0  0  0
M  END
$$$$
default_name
  -OEChem-01062215323D

 22 21  0     1  0  0  0  0  0999 V2000
   -2.5423   -3.6749    0.8058 H   0  0  0  0  0  0  0  0  0  0  0  0
   -2.5063   -2.6779    0.3688 C   0  0  0  0  0  0  0  0  0  0  0  0
   -3.1603   -2.0109    0.9268 H   0  0  0  0  0  0  0  0  0  0  0  0
   -2.8193   -2.7229   -0.6722 H   0  0  0  0  0  0  0  0  0  0  0  0
   -1.0873   -2.1629    0.4418 C   0  0  0  0  0  0  0  0  0  0  0  0
   -0.2073   -2.8549    0.9368 O   0  0  0  0  0  0  0  0  0  0  0  0
   -0.8713   -0.9449   -0.0482 N   0  0  0  0  0  0  0  0  0  0  0  0
   -1.6543   -0.4189   -0.4062 H   0  0  0  0  0  0  0  0  0  0  0  0
    0.4237   -0.2649   -0.0462 C   0  0  1  0  0  0  0  0  0  0  0  0
    0.4827    0.3839   -0.9216 H   0  0  0  0  0  0  0  0  0  0  0  0
    0.5273    0.6065    1.2149 C   0  0  0  0  0  0  0  0  0  0  0  0
    0.4666   -0.0207    2.1059 H   0  0  0  0  0  0  0  0  0  0  0  0
    1.4745    1.1449    1.2198 H   0  0  0  0  0  0  0  0  0  0  0  0
   -0.2881    1.3316    1.2298 H   0  0  0  0  0  0  0  0  0  0  0  0
    1.5810   -1.2793   -0.1293 C   0  0  0  0  0  0  0  0  0  0  0  0
    2.5185   -1.0939   -0.9048 O   0  0  0  0  0  0  0  0  0  0  0  0
    1.5029   -2.3572    0.6614 N   0  0  0  0  0  0  0  0  0  0  0  0
    0.7015   -2.4420    1.2660 H   0  0  0  0  0  0  0  0  0  0  0  0
    2.5091   -3.4174    0.6987 C   0  0  0  0  0  0  0  0  0  0  0  0
    3.4900   -2.9870    0.9101 H   0  0  0  0  0  0  0  0  0  0  0  0
    2.2635   -4.1472    1.4714 H   0  0  0  0  0  0  0  0  0  0  0  0
    2.5521   -3.9180   -0.2701 H   0  0  0  0  0  0  0  0  0  0  0  0
  5  6  2  0  0  0  0
  5  7  1  0  0  0  0
  2  3  1  0  0  0  0
  2  4  1  0  0  0  0
  2  5  1  0  0  0  0
  1  2  1  0  0  0  0
 15 16  2  0  0  0  0
 15 17  1  0  0  0  0
 11 12  1  0  0  0  0
 11 13  1  0  0  0  0
 11 14  1  0  0  0  0
  9 10  1  0  0  0  0
  9 11  1  0  0  0  0
  9 15  1  0  0  0  0
  7  8  1  0  0  0  0
  7  9  1  0  0  0  0
 19 20  1  0  0  0  0
 19 21  1  0  0  0  0
 19 22  1  0  0  0  0
 17 18  1  0  0  0  0
 17 19  1  0  0  0  0
M  END
$$$$
default_name
  -OEChem-01062215323D

 22 21  0     1  0  0  0  0  0999 V2000
   -2.5423   -3.6749    0.8058 H   0  0  0  0  0  0  0  0  0  0  0  0
   -2.5063   -2.6779    0.3688 C   0  0  0  0  0  0  0  0  0  0  0  0
   -3.1603   -2.0109    0.9268 H   0  0  0  0  0  0  0  0  0  0  0  0
   -2.8193   -2.7229   -0.6722 H   0  0  0  0  0  0  0  0  0  0  0  0
   -1.0873   -2.1629    0.4418 C   0  0  0  0  0  0  0  0  0  0  0  0
   -0.2073   -2.8549    0.9368 O   0  0  0  0  0  0  0  0  0  0  0  0
   -0.8713   -0.9449   -0.0482 N   0  0  0  0  0  0  0  0  0  0  0  0
   -1.6543   -0.4189   -0.4062 H   0  0  0  0  0  0  0  0  0  0  0  0
    0.4237   -0.2649   -0.0462 C   0  0  1  0  0  0  0  0  0  0  0  0
    0.4827    0.3839   -0.9216 H   0  0  0  0  0  0  0  0  0  0  0  0
    0.5273    0.6065    1.2149 C   0  0  0  0  0  0  0  0  0  0  0  0
    0.4666   -0.0207    2.1059 H   0  0  0  0  0  0  0  0  0  0  0  0
    1.4745    1.1449    1.2198 H   0  0  0  0  0  0  0  0  0  0  0  0
   -0.2881    1.3316    1.2298 H   0  0  0  0  0  0  0  0  0  0  0  0
    1.5810   -1.2793   -0.1293 C   0  0  0  0  0  0  0  0  0  0  0  0
    2.6373   -0.9766   -0.6838 O   0  0  0  0  0  0  0  0  0  0  0  0
    1.3714   -2.4867    0.4105 N   0  0  0  0  0  0  0  0  0  0  0  0
    0.4783   -2.6620    0.8426 H   0  0  0  0  0  0  0  0  0  0  0  0
    2.3593   -3.5646    0.4093 C   0  0  0  0  0  0  0  0  0  0  0  0
    3.2881   -3.2135    0.8635 H   0  0  0  0  0  0  0  0  0  0  0  0
    1.9867   -4.4220    0.9715 H   0  0  0  0  0  0  0  0  0  0  0  0
    2.5695   -3.8697   -0.6172 H   0  0  0  0  0  0  0  0  0  0  0  0
  5  6  2  0  0  0  0
  5  7  1  0  0  0  0
  2  3  1  0  0  0  0
  2  4  1  0  0  0  0
  2  5  1  0  0  0  0
  1  2  1  0  0  0  0
 15 16  2  0  0  0  0
 15 17  1  0  0  0  0
 11 12  1  0  0  0  0
 11 13  1  0  0  0  0
 11 14  1  0  0  0  0
  9 10  1  0  0  0  0
  9 11  1  0  0  0  0
  9 15  1  0  0  0  0
  7  8  1  0  0  0  0
  7  9  1  0  0  0  0
 19 20  1  0  0  0  0
 19 21  1  0  0  0  0
 19 22  1  0  0  0  0
 17 18  1  0  0  0  0
 17 19  1  0  0  0  0
M  END
$$$$
default_name
  -OEChem-01062215323D

 22 21  0     1  0  0  0  0  0999 V2000
   -2.5423   -3.6749    0.8058 H   0  0  0  0  0  0  0  0  0  0  0  0
   -2.5063   -2.6779    0.3688 C   0  0  0  0  0  0  0  0  0  0  0  0
   -3.1603   -2.0109    0.9268 H   0  0  0  0  0  0  0  0  0  0  0  0
   -2.8193   -2.7229   -0.6722 H   0  0  0  0  0  0  0  0  0  0  0  0
   -1.0873   -2.1629    0.4418 C   0  0  0  0  0  0  0  0  0  0  0  0
   -0.2073   -2.8549    0.9368 O   0  0  0  0  0  0  0  0  0  0  0  0
   -0.8713   -0.9449   -0.0482 N   0  0  0  0  0  0  0  0  0  0  0  0
   -1.6543   -0.4189   -0.4062 H   0  0  0  0  0  0  0  0  0  0  0  0
    0.4237   -0.2649   -0.0462 C   0  0  1  0  0  0  0  0  0  0  0  0
    0.4827    0.3839   -0.9216 H   0  0  0  0  0  0  0  0  0  0  0  0
    0.5273    0.6065    1.2149 C   0  0  0  0  0  0  0  0  0  0  0  0
    0.4666   -0.0207    2.1059 H   0  0  0  0  0  0  0  0  0  0  0  0
    1.4745    1.1449    1.2198 H   0  0  0  0  0  0  0  0  0  0  0  0
   -0.2881    1.3316    1.2298 H   0  0  0  0  0  0  0  0  0  0  0  0
    1.5810   -1.2793   -0.1293 C   0  0  0  0  0  0  0  0  0  0  0  0
    2.7159   -0.9078   -0.4273 O   0  0  0  0  0  0  0  0  0  0  0  0
    1.2853   -2.5612    0.1207 N   0  0  0  0  0  0  0  0  0  0  0  0
    0.3318   -2.7890    0.3529 H   0  0  0  0  0  0  0  0  0  0  0  0
    2.2619   -3.6484    0.0756 C   0  0  0  0  0  0  0  0  0  0  0  0
    3.0978   -3.4204    0.7400 H   0  0  0  0  0  0  0  0  0  0  0  0
    1.8008   -4.5864    0.3881 H   0  0  0  0  0  0  0  0  0  0  0  0
    2.6461   -3.7559   -0.9402 H   0  0  0  0  0  0  0  0  0  0  0  0
  5  6  2  0  0  0  0
  5  7  1  0  0  0  0
  2  3  1  0  0  0  0
  2  4  1  0  0  0  0
  2  5  1  0  0  0  0
  1  2  1  0  0  0  0
 15 16  2  0  0  0  0
 15 17  1  0  0  0  0
 11 12  1  0  0  0  0
 11 13  1  0  0  0  0
 11 14  1  0  0  0  0
  9 10  1  0  0  0  0
  9 11  1  0  0  0  0
  9 15  1  0  0  0  0
  7  8  1  0  0  0  0
  7  9  1  0  0  0  0
 19 20  1  0  0  0  0
 19 21  1  0  0  0  0
 19 22  1  0  0  0  0
 17 18  1  0  0  0  0
 17 19  1  0  0  0  0
M  END
$$$$
default_name
  -OEChem-01062215323D

 22 21  0     1  0  0  0  0  0999 V2000
   -2.5423   -3.6749    0.8058 H   0  0  0  0  0  0  0  0  0  0  0  0
   -2.5063   -2.6779    0.3688 C   0  0  0  0  0  0  0  0  0  0  0  0
   -3.1603   -2.0109    0.9268 H   0  0  0  0  0  0  0  0  0  0  0  0
   -2.8193   -2.7229   -0.6722 H   0  0  0  0  0  0  0  0  0  0  0  0
   -1.0873   -2.1629    0.4418 C   0  0  0  0  0  0  0  0  0  0  0  0
   -0.2073   -2.8549    0.9368 O   0  0  0  0  0  0  0  0  0  0  0  0
   -0.8713   -0.9449   -0.0482 N   0  0  0  0  0  0  0  0  0  0  0  0
   -1.6543   -0.4189   -0.4062 H   0  0  0  0  0  0  0  0  0  0  0  0
    0.4237   -0.2649   -0.0462 C   0  0  1  0  0  0  0  0  0  0  0  0
    0.4827    0.3839   -0.9216 H   0  0  0  0  0  0  0  0  0  0  0  0
    0.5273    0.6065    1.2149 C   0  0  0  0  0  0  0  0  0  0  0  0
    0.4666   -0.0207    2.1059 H   0  0  0  0  0  0  0  0  0  0  0  0
    1.4745    1.1449    1.2198 H   0  0  0  0  0  0  0  0  0  0  0  0
   -0.2881    1.3316    1.2298 H   0  0  0  0  0  0  0  0  0  0  0  0
    1.5810   -1.2793   -0.1293 C   0  0  0  0  0  0  0  0  0  0  0  0
    2.7492   -0.8924   -0.1527 O   0  0  0  0  0  0  0  0  0  0  0  0
    1.2505   -2.5756   -0.1885 N   0  0  0  0  0  0  0  0  0  0  0  0
    0.2719   -2.8145   -0.1698 H   0  0  0  0  0  0  0  0  0  0  0  0
    2.2234   -3.6632   -0.2796 C   0  0  0  0  0  0  0  0  0  0  0  0
    2.9322   -3.5936    0.5480 H   0  0  0  0  0  0  0  0  0  0  0  0
    1.7182   -4.6292   -0.2390 H   0  0  0  0  0  0  0  0  0  0  0  0
    2.7767   -3.5842   -1.2169 H   0  0  0  0  0  0  0  0  0  0  0  0
  5  6  2  0  0  0  0
  5  7  1  0  0  0  0
  2  3  1  0  0  0  0
  2  4  1  0  0  0  0
  2  5  1  0  0  0  0
  1  2  1  0  0  0  0
 15 16  2  0  0  0  0
 15 17  1  0  0  0  0
 11 12  1  0  0  0  0
 11 13  1  0  0  0  0
 11 14  1  0  0  0  0
  9 10  1  0  0  0  0
  9 11  1  0  0  0  0
  9 15  1  0  0  0  0
  7  8  1  0  0  0  0
  7  9  1  0  0  0  0
 19 20  1  0  0  0  0
 19 21  1  0  0  0  0
 19 22  1  0  0  0  0
 17 18  1  0  0  0  0
 17 19  1  0  0  0  0
M  END
$$$$
default_name
  -OEChem-01062215323D

 22 21  0     1  0  0  0  0  0999 V2000
   -2.5423   -3.6749    0.8058 H   0  0  0  0  0  0  0  0  0  0  0  0
   -2.5063   -2.6779    0.3688 C   0  0  0  0  0  0  0  0  0  0  0  0
   -3.1603   -2.0109    0.9268 H   0  0  0  0  0  0  0  0  0  0  0  0
   -2.8193   -2.7229   -0.6722 H   0  0  0  0  0  0  0  0  0  0  0  0
   -1.0873   -2.1629    0.4418 C   0  0  0  0  0  0  0  0  0  0  0  0
   -0.2073   -2.8549    0.9368 O   0  0  0  0  0  0  0  0  0  0  0  0
   -0.8713   -0.9449   -0.0482 N   0  0  0  0  0  0  0  0  0  0  0  0
   -1.6543   -0.4189   -0.4062 H   0  0  0  0  0  0  0  0  0  0  0  0
    0.4237   -0.2649   -0.0462 C   0  0  1  0  0  0  0  0  0  0  0  0
    0.4827    0.3839   -0.9216 H   0  0  0  0  0  0  0  0  0  0  0  0
    0.5273    0.6065    1.2149 C   0  0  0  0  0  0  0  0  0  0  0  0
    0.4666   -0.0207    2.1059 H   0  0  0  0  0  0  0  0  0  0  0  0
    1.4745    1.1449    1.2198 H   0  0  0  0  0  0  0  0  0  0  0  0
   -0.2881    1.3316    1.2298 H   0  0  0  0  0  0  0  0  0  0  0  0
    1.5810   -1.2793   -0.1293 C   0  0  0  0  0  0  0  0  0  0  0  0
    2.7347   -0.9313    0.1211 O   0  0  0  0  0  0  0  0  0  0  0  0
    1.2693   -2.5290   -0.4958 N   0  0  0  0  0  0  0  0  0  0  0  0
    0.3028   -2.7367   -0.6899 H   0  0  0  0  0  0  0  0  0  0  0  0
    2.2466   -3.6079   -0.6321 C   0  0  0  0  0  0  0  0  0  0  0  0
    2.8025   -3.7214    0.3008 H   0  0  0  0  0  0  0  0  0  0  0  0
    1.7448   -4.5476   -0.8672 H   0  0  0  0  0  0  0  0  0  0  0  0
    2.9524   -3.3664   -1.4286 H   0  0  0  0  0  0  0  0  0  0  0  0
  5  6  2  0  0  0  0
  5  7  1  0  0  0  0
  2  3  1  0  0  0  0
  2  4  1  0  0  0  0
  2  5  1  0  0  0  0
  1  2  1  0  0  0  0
 15 16  2  0  0  0  0
 15 17  1  0  0  0  0
 11 12  1  0  0  0  0
 11 13  1  0  0  0  0
 11 14  1  0  0  0  0
  9 10  1  0  0  0  0
  9 11  1  0  0  0  0
  9 15  1  0  0  0  0
  7  8  1  0  0  0  0
  7  9  1  0  0  0  0
 19 20  1  0  0  0  0
 19 21  1  0  0  0  0
 19 22  1  0  0  0  0
 17 18  1  0  0  0  0
 17 19  1  0  0  0  0
M  END
$$$$
default_name
  -OEChem-01062215323D

 22 21  0     1  0  0  0  0  0999 V2000
   -2.5423   -3.6749    0.8058 H   0  0  0  0  0  0  0  0  0  0  0  0
   -2.5063   -2.6779    0.3688 C   0  0  0  0  0  0  0  0  0  0  0  0
   -3.1603   -2.0109    0.9268 H   0  0  0  0  0  0  0  0  0  0  0  0
   -2.8193   -2.7229   -0.6722 H   0  0  0  0  0  0  0  0  0  0  0  0
   -1.0873   -2.1629    0.4418 C   0  0  0  0  0  0  0  0  0  0  0  0
   -0.2073   -2.8549    0.9368 O   0  0  0  0  0  0  0  0  0  0  0  0
   -0.8713   -0.9449   -0.0482 N   0  0  0  0  0  0  0  0  0  0  0  0
   -1.6543   -0.4189   -0.4062 H   0  0  0  0  0  0  0  0  0  0  0  0
    0.4237   -0.2649   -0.0462 C   0  0  1  0  0  0  0  0  0  0  0  0
    0.4827    0.3839   -0.9216 H   0  0  0  0  0  0  0  0  0  0  0  0
    0.5273    0.6065    1.2149 C   0  0  0  0  0  0  0  0  0  0  0  0
    0.4666   -0.0207    2.1059 H   0  0  0  0  0  0  0  0  0  0  0  0
    1.4745    1.1449    1.2198 H   0  0  0  0  0  0  0  0  0  0  0  0
   -0.2881    1.3316    1.2298 H   0  0  0  0  0  0  0  0  0  0  0  0
    1.5810   -1.2793   -0.1293 C   0  0  0  0  0  0  0  0  0  0  0  0
    2.6736   -1.0219    0.3756 O   0  0  0  0  0  0  0  0  0  0  0  0
    1.3405   -2.4244   -0.7804 N   0  0  0  0  0  0  0  0  0  0  0  0
    0.4223   -2.5610   -1.1718 H   0  0  0  0  0  0  0  0  0  0  0  0
    2.3298   -3.4863   -0.9579 C   0  0  0  0  0  0  0  0  0  0  0  0
    2.7176   -3.7949    0.0150 H   0  0  0  0  0  0  0  0  0  0  0  0
    1.8785   -4.3470   -1.4536 H   0  0  0  0  0  0  0  0  0  0  0  0
    3.1613   -3.1174   -1.5609 H   0  0  0  0  0  0  0  0  0  0  0  0
  5  6  2  0  0  0  0
  5  7  1  0  0  0  0
  2  3  1  0  0  0  0
  2  4  1  0  0  0  0
  2  5  1  0  0  0  0
  1  2  1  0  0  0  0
 15 16  2  0  0  0  0
 15 17  1  0  0  0  0
 11 12  1  0  0  0  0
 11 13  1  0  0  0  0
 11 14  1  0  0  0  0
  9 10  1  0  0  0  0
  9 11  1  0  0  0  0
  9 15  1  0  0  0  0
  7  8  1  0  0  0  0
  7  9  1  0  0  0  0
 19 20  1  0  0  0  0
 19 21  1  0  0  0  0
 19 22  1  0  0  0  0
 17 18  1  0  0  0  0
 17 19  1  0  0  0  0
M  END
$$$$
default_name
  -OEChem-01062215323D

 22 21  0     1  0  0  0  0  0999 V2000
   -2.5423   -3.6749    0.8058 H   0  0  0  0  0  0  0  0  0  0  0  0
   -2.5063   -2.6779    0.3688 C   0  0  0  0  0  0  0  0  0  0  0  0
   -3.1603   -2.0109    0.9268 H   0  0  0  0  0  0  0  0  0  0  0  0
   -2.8193   -2.7229   -0.6722 H   0  0  0  0  0  0  0  0  0  0  0  0
   -1.0873   -2.1629    0.4418 C   0  0  0  0  0  0  0  0  0  0  0  0
   -0.2073   -2.8549    0.9368 O   0  0  0  0  0  0  0  0  0  0  0  0
   -0.8713   -0.9449   -0.0482 N   0  0  0  0  0  0  0  0  0  0  0  0
   -1.6543   -0.4189   -0.4062 H   0  0  0  0  0  0  0  0  0  0  0  0
    0.4237   -0.2649   -0.0462 C   0  0  1  0  0  0  0  0  0  0  0  0
    0.4827    0.3839   -0.9216 H   0  0  0  0  0  0  0  0  0  0  0  0
    0.5273    0.6065    1.2149 C   0  0  0  0  0  0  0  0  0  0  0  0
    0.4666   -0.0207    2.1059 H   0  0  0  0  0  0  0  0  0  0  0  0
    1.4745    1.1449    1.2198 H   0  0  0  0  0  0  0  0  0  0  0  0
   -0.2881    1.3316    1.2298 H   0  0  0  0  0  0  0  0  0  0  0  0
    1.5810   -1.2793   -0.1293 C   0  0  0  0  0  0  0  0  0  0  0  0
    2.5699   -1.1580    0.5935 O   0  0  0  0  0  0  0  0  0  0  0  0
    1.4592   -2.2692   -1.0228 N   0  0  0  0  0  0  0  0  0  0  0  0
    0.6223   -2.2992   -1.5828 H   0  0  0  0  0  0  0  0  0  0  0  0
    2.4674   -3.3067   -1.2348 C   0  0  0  0  0  0  0  0  0  0  0  0
    2.6832   -3.8091   -0.2897 H   0  0  0  0  0  0  0  0  0  0  0  0
    2.1104   -4.0411   -1.9582 H   0  0  0  0  0  0  0  0  0  0  0  0
    3.3890   -2.8540   -1.6047 H   0  0  0  0  0  0  0  0  0  0  0  0
  5  6  2  0  0  0  0
  5  7  1  0  0  0  0
  2  3  1  0  0  0  0
  2  4  1  0  0  0  0
  2  5  1  0  0  0  0
  1  2  1  0  0  0  0
 15 16  2  0  0  0  0
 15 17  1  0  0  0  0
 11 12  1  0  0  0  0
 11 13  1  0  0  0  0
 11 14  1  0  0  0  0
  9 10  1  0  0  0  0
  9 11  1  0  0  0  0
  9 15  1  0  0  0  0
  7  8  1  0  0  0  0
  7  9  1  0  0  0  0
 19 20  1  0  0  0  0
 19 21  1  0  0  0  0
 19 22  1  0  0  0  0
 17 18  1  0  0  0  0
 17 19  1  0  0  0  0
M  END
$$$$
default_name
  -OEChem-01062215323D

 22 21  0     1  0  0  0  0  0999 V2000
   -2.5423   -3.6749    0.8058 H   0  0  0  0  0  0  0  0  0  0  0  0
   -2.5063   -2.6779    0.3688 C   0  0  0  0  0  0  0  0  0  0  0  0
   -3.1603   -2.0109    0.9268 H   0  0  0  0  0  0  0  0  0  0  0  0
   -2.8193   -2.7229   -0.6722 H   0  0  0  0  0  0  0  0  0  0  0  0
   -1.0873   -2.1629    0.4418 C   0  0  0  0  0  0  0  0  0  0  0  0
   -0.2073   -2.8549    0.9368 O   0  0  0  0  0  0  0  0  0  0  0  0
   -0.8713   -0.9449   -0.0482 N   0  0  0  0  0  0  0  0  0  0  0  0
   -1.6543   -0.4189   -0.4062 H   0  0  0  0  0  0  0  0  0  0  0  0
    0.4237   -0.2649   -0.0462 C   0  0  1  0  0  0  0  0  0  0  0  0
    0.4827    0.3839   -0.9216 H   0  0  0  0  0  0  0  0  0  0  0  0
    0.5273    0.6065    1.2149 C   0  0  0  0  0  0  0  0  0  0  0  0
    0.4666   -0.0207    2.1059 H   0  0  0  0  0  0  0  0  0  0  0  0
    1.4745    1.1449    1.2198 H   0  0  0  0  0  0  0  0  0  0  0  0
   -0.2881    1.3316    1.2298 H   0  0  0  0  0  0  0  0  0  0  0  0
    1.5810   -1.2793   -0.1293 C   0  0  0  0  0  0  0  0  0  0  0  0
    2.4307   -1.3304    0.7597 O   0  0  0  0  0  0  0  0  0  0  0  0
    1.6174   -2.0737   -1.2066 N   0  0  0  0  0  0  0  0  0  0  0  0
    0.8891   -1.9692   -1.8949 H   0  0  0  0  0  0  0  0  0  0  0  0
    2.6500   -3.0813   -1.4439 C   0  0  0  0  0  0  0  0  0  0  0  0
    2.7017   -3.7632   -0.5927 H   0  0  0  0  0  0  0  0  0  0  0  0
    2.4247   -3.6508   -2.3467 H   0  0  0  0  0  0  0  0  0  0  0  0
    3.6200   -2.5943   -1.5569 H   0  0  0  0  0  0  0  0  0  0  0  0
  5  6  2  0  0  0  0
  5  7  1  0  0  0  0
  2  3  1  0  0  0  0
  2  4  1  0  0  0  0
  2  5  1  0  0  0  0
  1  2  1  0  0  0  0
 15 16  2  0  0  0  0
 15 17  1  0  0  0  0
 11 12  1  0  0  0  0
 11 13  1  0  0  0  0
 11 14  1  0  0  0  0
  9 10  1  0  0  0  0
  9 11  1  0  0  0  0
  9 15  1  0  0  0  0
  7  8  1  0  0  0  0
  7  9  1  0  0  0  0
 19 20  1  0  0  0  0
 19 21  1  0  0  0  0
 19 22  1  0  0  0  0
 17 18  1  0  0  0  0
 17 19  1  0  0  0  0
M  END
$$$$
default_name
  -OEChem-01062215323D

 22 21  0     1  0  0  0  0  0999 V2000
   -2.5423   -3.6749    0.8058 H   0  0  0  0  0  0  0  0  0  0  0  0
   -2.5063   -2.6779    0.3688 C   0  0  0  0  0  0  0  0  0  0  0  0
   -3.1603   -2.0109    0.9268 H   0  0  0  0  0  0  0  0  0  0  0  0
   -2.8193   -2.7229   -0.6722 H   0  0  0  0  0  0  0  0  0  0  0  0
   -1.0873   -2.1629    0.4418 C   0  0  0  0  0  0  0  0  0  0  0  0
   -0.2073   -2.8549    0.9368 O   0  0  0  0  0  0  0  0  0  0  0  0
   -0.8713   -0.9449   -0.0482 N   0  0  0  0  0  0  0  0  0  0  0  0
   -1.6543   -0.4189   -0.4062 H   0  0  0  0  0  0  0  0  0  0  0  0
    0.4237   -0.2649   -0.0462 C   0  0  1  0  0  0  0  0  0  0  0  0
    0.4827    0.3839   -0.9216 H   0  0  0  0  0  0  0  0  0  0  0  0
    0.5273    0.6065    1.2149 C   0  0  0  0  0  0  0  0  0  0  0  0
    0.4666   -0.0207    2.1059 H   0  0  0  0  0  0  0  0  0  0  0  0
    1.4745    1.1449    1.2198 H   0  0  0  0  0  0  0  0  0  0  0  0
   -0.2881    1.3316    1.2298 H   0  0  0  0  0  0  0  0  0  0  0  0
    1.5810   -1.2793   -0.1293 C   0  0  0  0  0  0  0  0  0  0  0  0
    2.2655   -1.5272    0.8631 O   0  0  0  0  0  0  0  0  0  0  0  0
    1.8041   -1.8514   -1.3192 N   0  0  0  0  0  0  0  0  0  0  0  0
    1.2046   -1.5936   -2.0867 H   0  0  0  0  0  0  0  0  0  0  0  0
    2.8651   -2.8255   -1.5710 C   0  0  0  0  0  0  0  0  0  0  0  0
    2.7719   -3.6602   -0.8734 H   0  0  0  0  0  0  0  0  0  0  0  0
    2.7998   -3.2028   -2.5925 H   0  0  0  0  0  0  0  0  0  0  0  0
    3.8387   -2.3559   -1.4210 H   0  0  0  0  0  0  0  0  0  0  0  0
  5  6  2  0  0  0  0
  5  7  1  0  0  0  0
  2  3  1  0  0  0  0
  2  4  1  0  0  0  0
  2  5  1  0  0  0  0
  1  2  1  0  0  0  0
 15 16  2  0  0  0  0
 15 17  1  0  0  0  0
 11 12  1  0  0  0  0
 11 13  1  0  0  0  0
 11 14  1  0  0  0  0
  9 10  1  0  0  0  0
  9 11  1  0  0  0  0
  9 15  1  0  0  0  0
  7  8  1  0  0  0  0
  7  9  1  0  0  0  0
 19 20  1  0  0  0  0
 19 21  1  0  0  0  0
 19 22  1  0  0  0  0
 17 18  1  0  0  0  0
 17 19  1  0  0  0  0
M  END
$$$$
default_name
  -OEChem-01062215323D

 22 21  0     1  0  0  0  0  0999 V2000
   -2.5423   -3.6749    0.8058 H   0  0  0  0  0  0  0  0  0  0  0  0
   -2.5063   -2.6779    0.3688 C   0  0  0  0  0  0  0  0  0  0  0  0
   -3.1603   -2.0109    0.9268 H   0  0  0  0  0  0  0  0  0  0  0  0
   -2.8193   -2.7229   -0.6722 H   0  0  0  0  0  0  0  0  0  0  0  0
   -1.0873   -2.1629    0.4418 C   0  0  0  0  0  0  0  0  0  0  0  0
   -0.2073   -2.8549    0.9368 O   0  0  0  0  0  0  0  0  0  0  0  0
   -0.8713   -0.9449   -0.0482 N   0  0  0  0  0  0  0  0  0  0  0  0
   -1.6543   -0.4189   -0.4062 H   0  0  0  0  0  0  0  0  0  0  0  0
    0.4237   -0.2649   -0.0462 C   0  0  1  0  0  0  0  0  0  0  0  0
    0.4827    0.3839   -0.9216 H   0  0  0  0  0  0  0  0  0  0  0  0
    0.5273    0.6065    1.2149 C   0  0  0  0  0  0  0  0  0  0  0  0
    0.4666   -0.0207    2.1059 H   0  0  0  0  0  0  0  0  0  0  0  0
    1.4745    1.1449    1.2198 H   0  0  0  0  0  0  0  0  0  0  0  0
   -0.2881    1.3316    1.2298 H   0  0  0  0  0  0  0  0  0  0  0  0
    1.5810   -1.2793   -0.1293 C   0  0  0  0  0  0  0  0  0  0  0  0
    2.0857   -1.7352    0.8966 O   0  0  0  0  0  0  0  0  0  0  0  0
    2.0068   -1.6174   -1.3529 N   0  0  0  0  0  0  0  0  0  0  0  0
    1.5473   -1.1979   -2.1453 H   0  0  0  0  0  0  0  0  0  0  0  0
    3.0981   -2.5567   -1.6074 C   0  0  0  0  0  0  0  0  0  0  0  0
    2.8889   -3.5072   -1.1124 H   0  0  0  0  0  0  0  0  0  0  0  0
    3.2103   -2.7274   -2.6790 H   0  0  0  0  0  0  0  0  0  0  0  0
    4.0302   -2.1552   -1.2062 H   0  0  0  0  0  0  0  0  0  0  0  0
  5  6  2  0  0  0  0
  5  7  1  0  0  0  0
  2  3  1  0  0  0  0
  2  4  1  0  0  0  0
  2  5  1  0  0  0  0
  1  2  1  0  0  0  0
 15 16  2  0  0  0  0
 15 17  1  0  0  0  0
 11 12  1  0  0  0  0
 11 13  1  0  0  0  0
 11 14  1  0  0  0  0
  9 10  1  0  0  0  0
  9 11  1  0  0  0  0
  9 15  1  0  0  0  0
  7  8  1  0  0  0  0
  7  9  1  0  0  0  0
 19 20  1  0  0  0  0
 19 21  1  0  0  0  0
 19 22  1  0  0  0  0
 17 18  1  0  0  0  0
 17 19  1  0  0  0  0
M  END
$$$$
default_name
  -OEChem-01062215323D

 22 21  0     1  0  0  0  0  0999 V2000
   -2.5423   -3.6749    0.8058 H   0  0  0  0  0  0  0  0  0  0  0  0
   -2.5063   -2.6779    0.3688 C   0  0  0  0  0  0  0  0  0  0  0  0
   -3.1603   -2.0109    0.9268 H   0  0  0  0  0  0  0  0  0  0  0  0
   -2.8193   -2.7229   -0.6722 H   0  0  0  0  0  0  0  0  0  0  0  0
   -1.0873   -2.1629    0.4418 C   0  0  0  0  0  0  0  0  0  0  0  0
   -0.2073   -2.8549    0.9368 O   0  0  0  0  0  0  0  0  0  0  0  0
   -0.8713   -0.9449   -0.0482 N   0  0  0  0  0  0  0  0  0  0  0  0
   -1.6543   -0.4189   -0.4062 H   0  0  0  0  0  0  0  0  0  0  0  0
    0.4237   -0.2649   -0.0462 C   0  0  1  0  0  0  0  0  0  0  0  0
    0.4827    0.3839   -0.9216 H   0  0  0  0  0  0  0  0  0  0  0  0
    0.5273    0.6065    1.2149 C   0  0  0  0  0  0  0  0  0  0  0  0
    0.4666   -0.0207    2.1059 H   0  0  0  0  0  0  0  0  0  0  0  0
    1.4745    1.1449    1.2198 H   0  0  0  0  0  0  0  0  0  0  0  0
   -0.2881    1.3316    1.2298 H   0  0  0  0  0  0  0  0  0  0  0  0
    1.5810   -1.2793   -0.1293 C   0  0  0  0  0  0  0  0  0  0  0  0
    1.9033   -1.9401    0.8579 O   0  0  0  0  0  0  0  0  0  0  0  0
    2.2117   -1.3876   -1.3055 N   0  0  0  0  0  0  0  0  0  0  0  0
    1.8938   -0.8091   -2.0666 H   0  0  0  0  0  0  0  0  0  0  0  0
    3.3331   -2.2933   -1.5506 C   0  0  0  0  0  0  0  0  0  0  0  0
    3.0447   -3.3145   -1.2937 H   0  0  0  0  0  0  0  0  0  0  0  0
    3.6282   -2.2571   -2.6002 H   0  0  0  0  0  0  0  0  0  0  0  0
    4.1812   -2.0056   -0.9270 H   0  0  0  0  0  0  0  0  0  0  0  0
  5  6  2  0  0  0  0
  5  7  1  0  0  0  0
  2  3  1  0  0  0  0
  2  4  1  0  0  0  0
  2  5  1  0  0  0  0
  1  2  1  0  0  0  0
 15 16  2  0  0  0  0
 15 17  1  0  0  0  0
 11 12  1  0  0  0  0
 11 13  1  0  0  0  0
 11 14  1  0  0  0  0
  9 10  1  0  0  0  0
  9 11  1  0  0  0  0
  9 15  1  0  0  0  0
  7  8  1  0  0  0  0
  7  9  1  0  0  0  0
 19 20  1  0  0  0  0
 19 21  1  0  0  0  0
 19 22  1  0  0  0  0
 17 18  1  0  0  0  0
 17 19  1  0  0  0  0
M  END
$$$$
default_name
  -OEChem-01062215323D

 22 21  0     1  0  0  0  0  0999 V2000
   -2.5423   -3.6749    0.8058 H   0  0  0  0  0  0  0  0  0  0  0  0
   -2.5063   -2.6779    0.3688 C   0  0  0  0  0  0  0  0  0  0  0  0
   -3.1603   -2.0109    0.9268 H   0  0  0  0  0  0  0  0  0  0  0  0
   -2.8193   -2.7229   -0.6722 H   0  0  0  0  0  0  0  0  0  0  0  0
   -1.0873   -2.1629    0.4418 C   0  0  0  0  0  0  0  0  0  0  0  0
   -0.2073   -2.8549    0.9368 O   0  0  0  0  0  0  0  0  0  0  0  0
   -0.8713   -0.9449   -0.0482 N   0  0  0  0  0  0  0  0  0  0  0  0
   -1.6543   -0.4189   -0.4062 H   0  0  0  0  0  0  0  0  0  0  0  0
    0.4237   -0.2649   -0.0462 C   0  0  1  0  0  0  0  0  0  0  0  0
    0.4827    0.3839   -0.9216 H   0  0  0  0  0  0  0  0  0  0  0  0
    0.5273    0.6065    1.2149 C   0  0  0  0  0  0  0  0  0  0  0  0
    0.4666   -0.0207    2.1059 H   0  0  0  0  0  0  0  0  0  0  0  0
    1.4745    1.1449    1.2198 H   0  0  0  0  0  0  0  0  0  0  0  0
   -0.2881    1.3316    1.2298 H   0  0  0  0  0  0  0  0  0  0  0  0
    1.5810   -1.2793   -0.1293 C   0  0  0  0  0  0  0  0  0  0  0  0
    1.7309   -2.1279    0.7496 O   0  0  0  0  0  0  0  0  0  0  0  0
    2.4046   -1.1778   -1.1802 N   0  0  0  0  0  0  0  0  0  0  0  0
    2.2205   -0.4536   -1.8559 H   0  0  0  0  0  0  0  0  0  0  0  0
    3.5541   -2.0531   -1.4045 C   0  0  0  0  0  0  0  0  0  0  0  0
    3.2289   -3.0954   -1.4048 H   0  0  0  0  0  0  0  0  0  0  0  0
    4.0250   -1.8240   -2.3616 H   0  0  0  0  0  0  0  0  0  0  0  0
    4.2817   -1.9176   -0.6025 H   0  0  0  0  0  0  0  0  0  0  0  0
  5  6  2  0  0  0  0
  5  7  1  0  0  0  0
  2  3  1  0  0  0  0
  2  4  1  0  0  0  0
  2  5  1  0  0  0  0
  1  2  1  0  0  0  0
 15 16  2  0  0  0  0
 15 17  1  0  0  0  0
 11 12  1  0  0  0  0
 11 13  1  0  0  0  0
 11 14  1  0  0  0  0
  9 10  1  0  0  0  0
  9 11  1  0  0  0  0
  9 15  1  0  0  0  0
  7  8  1  0  0  0  0
  7  9  1  0  0  0  0
 19 20  1  0  0  0  0
 19 21  1  0  0  0  0
 19 22  1  0  0  0  0
 17 18  1  0  0  0  0
 17 19  1  0  0  0  0
M  END
$$$$
default_name
  -OEChem-01062215323D

 22 21  0     1  0  0  0  0  0999 V2000
   -2.5423   -3.6749    0.8058 H   0  0  0  0  0  0  0  0  0  0  0  0
   -2.5063   -2.6779    0.3688 C   0  0  0  0  0  0  0  0  0  0  0  0
   -3.1603   -2.0109    0.9268 H   0  0  0  0  0  0  0  0  0  0  0  0
   -2.8193   -2.7229   -0.6722 H   0  0  0  0  0  0  0  0  0  0  0  0
   -1.0873   -2.1629    0.4418 C   0  0  0  0  0  0  0  0  0  0  0  0
   -0.2073   -2.8549    0.9368 O   0  0  0  0  0  0  0  0  0  0  0  0
   -0.8713   -0.9449   -0.0482 N   0  0  0  0  0  0  0  0  0  0  0  0
   -1.6543   -0.4189   -0.4062 H   0  0  0  0  0  0  0  0  0  0  0  0
    0.4237   -0.2649   -0.0462 C   0  0  1  0  0  0  0  0  0  0  0  0
    0.4827    0.3839   -0.9216 H   0  0  0  0  0  0  0  0  0  0  0  0
    0.5273    0.6065    1.2149 C   0  0  0  0  0  0  0  0  0  0  0  0
    0.4666   -0.0207    2.1059 H   0  0  0  0  0  0  0  0  0  0  0  0
    1.4745    1.1449    1.2198 H   0  0  0  0  0  0  0  0  0  0  0  0
   -0.2881    1.3316    1.2298 H   0  0  0  0  0  0  0  0  0  0  0  0
    1.5810   -1.2793   -0.1293 C   0  0  0  0  0  0  0  0  0  0  0  0
    1.5802   -2.2858    0.5791 O   0  0  0  0  0  0  0  0  0  0  0  0
    2.5725   -1.0021   -0.9854 N   0  0  0  0  0  0  0  0  0  0  0  0
    2.5051   -0.1557   -1.5277 H   0  0  0  0  0  0  0  0  0  0  0  0
    3.7460   -1.8526   -1.1791 C   0  0  0  0  0  0  0  0  0  0  0  0
    3.4287   -2.8647   -1.4381 H   0  0  0  0  0  0  0  0  0  0  0  0
    4.3736   -1.4576   -1.9792 H   0  0  0  0  0  0  0  0  0  0  0  0
    4.3247   -1.8970   -0.2549 H   0  0  0  0  0  0  0  0  0  0  0  0
  5  6  2  0  0  0  0
  5  7  1  0  0  0  0
  2  3  1  0  0  0  0
  2  4  1  0  0  0  0
  2  5  1  0  0  0  0
  1  2  1  0  0  0  0
 15 16  2  0  0  0  0
 15 17  1  0  0  0  0
 11 12  1  0  0  0  0
 11 13  1  0  0  0  0
 11 14  1  0  0  0  0
  9 10  1  0  0  0  0
  9 11  1  0  0  0  0
  9 15  1  0  0  0  0
  7  8  1  0  0  0  0
  7  9  1  0  0  0  0
 19 20  1  0  0  0  0
 19 21  1  0  0  0  0
 19 22  1  0  0  0  0
 17 18  1  0  0  0  0
 17 19  1  0  0  0  0
M  END
$$$$
default_name
  -OEChem-01062215323D

 22 21  0     1  0  0  0  0  0999 V2000
   -2.5423   -3.6749    0.8058 H   0  0  0  0  0  0  0  0  0  0  0  0
   -2.5063   -2.6779    0.3688 C   0  0  0  0  0  0  0  0  0  0  0  0
   -3.1603   -2.0109    0.9268 H   0  0  0  0  0  0  0  0  0  0  0  0
   -2.8193   -2.7229   -0.6722 H   0  0  0  0  0  0  0  0  0  0  0  0
   -1.0873   -2.1629    0.4418 C   0  0  0  0  0  0  0  0  0  0  0  0
   -0.2073   -2.8549    0.9368 O   0  0  0  0  0  0  0  0  0  0  0  0
   -0.8713   -0.9449   -0.0482 N   0  0  0  0  0  0  0  0  0  0  0  0
   -1.6543   -0.4189   -0.4062 H   0  0  0  0  0  0  0  0  0  0  0  0
    0.4237   -0.2649   -0.0462 C   0  0  1  0  0  0  0  0  0  0  0  0
    0.4827    0.3839   -0.9216 H   0  0  0  0  0  0  0  0  0  0  0  0
    0.5273    0.6065    1.2149 C   0  0  0  0  0  0  0  0  0  0  0  0
    0.4666   -0.0207    2.1059 H   0  0  0  0  0  0  0  0  0  0  0  0
    1.4745    1.1449    1.2198 H   0  0  0  0  0  0  0  0  0  0  0  0
   -0.2881    1.3316    1.2298 H   0  0  0  0  0  0  0  0  0  0  0  0
    1.5810   -1.2793   -0.1293 C   0  0  0  0  0  0  0  0  0  0  0  0
    1.4615   -2.4032    0.3581 O   0  0  0  0  0  0  0  0  0  0  0  0
    2.7040   -0.8726   -0.7346 N   0  0  0  0  0  0  0  0  0  0  0  0
    2.7283    0.0642   -1.1043 H   0  0  0  0  0  0  0  0  0  0  0  0
    3.8958   -1.7054   -0.8897 C   0  0  0  0  0  0  0  0  0  0  0  0
    3.6306   -2.6382   -1.3915 H   0  0  0  0  0  0  0  0  0  0  0  0
    4.6503   -1.1828   -1.4794 H   0  0  0  0  0  0  0  0  0  0  0  0
    4.3073   -1.9453    0.0922 H   0  0  0  0  0  0  0  0  0  0  0  0
  5  6  2  0  0  0  0
  5  7  1  0  0  0  0
  2  3  1  0  0  0  0
  2  4  1  0  0  0  0
  2  5  1  0  0  0  0
  1  2  1  0  0  0  0
 15 16  2  0  0  0  0
 15 17  1  0  0  0  0
 11 12  1  0  0  0  0
 11 13  1  0  0  0  0
 11 14  1  0  0  0  0
  9 10  1  0  0  0  0
  9 11  1  0  0  0  0
  9 15  1  0  0  0  0
  7  8  1  0  0  0  0
  7  9  1  0  0  0  0
 19 20  1  0  0  0  0
 19 21  1  0  0  0  0
 19 22  1  0  0  0  0
 17 18  1  0  0  0  0
 17 19  1  0  0  0  0
M  END
$$$$
default_name
  -OEChem-01062215323D

 22 21  0     1  0  0  0  0  0999 V2000
   -2.5423   -3.6749    0.8058 H   0  0  0  0  0  0  0  0  0  0  0  0
   -2.5063   -2.6779    0.3688 C   0  0  0  0  0  0  0  0  0  0  0  0
   -3.1603   -2.0109    0.9268 H   0  0  0  0  0  0  0  0  0  0  0  0
   -2.8193   -2.7229   -0.6722 H   0  0  0  0  0  0  0  0  0  0  0  0
   -1.0873   -2.1629    0.4418 C   0  0  0  0  0  0  0  0  0  0  0  0
   -0.2073   -2.8549    0.9368 O   0  0  0  0  0  0  0  0  0  0  0  0
   -0.8713   -0.9449   -0.0482 N   0  0  0  0  0  0  0  0  0  0  0  0
   -1.6543   -0.4189   -0.4062 H   0  0  0  0  0  0  0  0  0  0  0  0
    0.4237   -0.2649   -0.0462 C   0  0  1  0  0  0  0  0  0  0  0  0
    0.4827    0.3839   -0.9216 H   0  0  0  0  0  0  0  0  0  0  0  0
    0.5273    0.6065    1.2149 C   0  0  0  0  0  0  0  0  0  0  0  0
    0.4666   -0.0207    2.1059 H   0  0  0  0  0  0  0  0  0  0  0  0
    1.4745    1.1449    1.2198 H   0  0  0  0  0  0  0  0  0  0  0  0
   -0.2881    1.3316    1.2298 H   0  0  0  0  0  0  0  0  0  0  0  0
    1.5810   -1.2793   -0.1293 C   0  0  0  0  0  0  0  0  0  0  0  0
    1.3828   -2.4719    0.1016 O   0  0  0  0  0  0  0  0  0  0  0  0
    2.7901   -0.7982   -0.4447 N   0  0  0  0  0  0  0  0  0  0  0  0
    2.8748    0.1913   -0.6146 H   0  0  0  0  0  0  0  0  0  0  0  0
    3.9932   -1.6216   -0.5560 C   0  0  0  0  0  0  0  0  0  0  0  0
    3.8209   -2.4312   -1.2680 H   0  0  0  0  0  0  0  0  0  0  0  0
    4.8363   -1.0184   -0.8959 H   0  0  0  0  0  0  0  0  0  0  0  0
    4.2307   -2.0591    0.4152 H   0  0  0  0  0  0  0  0  0  0  0  0
  5  6  2  0  0  0  0
  5  7  1  0  0  0  0
  2  3  1  0  0  0  0
  2  4  1  0  0  0  0
  2  5  1  0  0  0  0
  1  2  1  0  0  0  0
 15 16  2  0  0  0  0
 15 17  1  0  0  0  0
 11 12  1  0  0  0  0
 11 13  1  0  0  0  0
 11 14  1  0  0  0  0
  9 10  1  0  0  0  0
  9 11  1  0  0  0  0
  9 15  1  0  0  0  0
  7  8  1  0  0  0  0
  7  9  1  0  0  0  0
 19 20  1  0  0  0  0
 19 21  1  0  0  0  0
 19 22  1  0  0  0  0
 17 18  1  0  0  0  0
 17 19  1  0  0  0  0
M  END
$$$$
default_name
  -OEChem-01062215323D

 22 21  0     1  0  0  0  0  0999 V2000
   -2.5423   -3.6749    0.8058 H   0  0  0  0  0  0  0  0  0  0  0  0
   -2.5063   -2.6779    0.3688 C   0  0  0  0  0  0  0  0  0  0  0  0
   -3.1603   -2.0109    0.9268 H   0  0  0  0  0  0  0  0  0  0  0  0
   -2.8193   -2.7229   -0.6722 H   0  0  0  0  0  0  0  0  0  0  0  0
   -1.0873   -2.1629    0.4418 C   0  0  0  0  0  0  0  0  0  0  0  0
   -0.2073   -2.8549    0.9368 O   0  0  0  0  0  0  0  0  0  0  0  0
   -0.8713   -0.9449   -0.0482 N   0  0  0  0  0  0  0  0  0  0  0  0
   -1.6543   -0.4189   -0.4062 H   0  0  0  0  0  0  0  0  0  0  0  0
    0.4237   -0.2649   -0.0462 C   0  0  1  0  0  0  0  0  0  0  0  0
    0.3858    0.5680   -0.7502 H   0  0  0  0  0  0  0  0  0  0  0  0
    0.6903    0.2958    1.3592 C   0  0  0  0  0  0  0  0  0  0  0  0
    0.7287   -0.5197    2.0834 H   0  0  0  0  0  0  0  0  0  0  0  0
    1.6385    0.8323    1.3734 H   0  0  0  0  0  0  0  0  0  0  0  0
   -0.1074    0.9864    1.6379 H   0  0  0  0  0  0  0  0  0  0  0  0
    1.5486   -1.2166   -0.4981 C   0  0  0  0  0  0  0  0  0  0  0  0
    1.2971   -2.3857   -0.7894 O   0  0  0  0  0  0  0  0  0  0  0  0
    2.7894   -0.7149   -0.5403 N   0  0  0  0  0  0  0  0  0  0  0  0
    2.9173    0.2505   -0.2820 H   0  0  0  0  0  0  0  0  0  0  0  0
    3.9682   -1.4836   -0.9371 C   0  0  0  0  0  0  0  0  0  0  0  0
    3.8090   -1.9176   -1.9263 H   0  0  0  0  0  0  0  0  0  0  0  0
    4.8492   -0.8409   -0.9647 H   0  0  0  0  0  0  0  0  0  0  0  0
    4.1350   -2.2945   -0.2259 H   0  0  0  0  0  0  0  0  0  0  0  0
  5  6  2  0  0  0  0
  5  7  1  0  0  0  0
  2  3  1  0  0  0  0
  2  4  1  0  0  0  0
  2  5  1  0  0  0  0
  1  2  1  0  0  0  0
 15 16  2  0  0  0  0
 15 17  1  0  0  0  0
 11 12  1  0  0  0  0
 11 13  1  0  0  0  0
 11 14  1  0  0  0  0
  9 10  1  0  0  0  0
  9 11  1  0  0  0  0
  9 15  1  0  0  0  0
  7  8  1  0  0  0  0
  7  9  1  0  0  0  0
 19 20  1  0  0  0  0
 19 21  1  0  0  0  0
 19 22  1  0  0  0  0
 17 18  1  0  0  0  0
 17 19  1  0  0  0  0
M  END
$$$$
default_name
  -OEChem-01062215323D

 22 21  0     1  0  0  0  0  0999 V2000
   -2.5423   -3.6749    0.8058 H   0  0  0  0  0  0  0  0  0  0  0  0
   -2.5063   -2.6779    0.3688 C   0  0  0  0  0  0  0  0  0  0  0  0
   -3.1603   -2.0109    0.9268 H   0  0  0  0  0  0  0  0  0  0  0  0
   -2.8193   -2.7229   -0.6722 H   0  0  0  0  0  0  0  0  0  0  0  0
   -1.0873   -2.1629    0.4418 C   0  0  0  0  0  0  0  0  0  0  0  0
   -0.2073   -2.8549    0.9368 O   0  0  0  0  0  0  0  0  0  0  0  0
   -0.8713   -0.9449   -0.0482 N   0  0  0  0  0  0  0  0  0  0  0  0
   -1.6543   -0.4189   -0.4062 H   0  0  0  0  0  0  0  0  0  0  0  0
    0.4237   -0.2649   -0.0462 C   0  0  1  0  0  0  0  0  0  0  0  0
    0.3858    0.5680   -0.7502 H   0  0  0  0  0  0  0  0  0  0  0  0
    0.6903    0.2958    1.3592 C   0  0  0  0  0  0  0  0  0  0  0  0
    0.7287   -0.5197    2.0834 H   0  0  0  0  0  0  0  0  0  0  0  0
    1.6385    0.8323    1.3734 H   0  0  0  0  0  0  0  0  0  0  0  0
   -0.1074    0.9864    1.6379 H   0  0  0  0  0  0  0  0  0  0  0  0
    1.5486   -1.2166   -0.4981 C   0  0  0  0  0  0  0  0  0  0  0  0
    1.2790   -2.2849   -1.0467 O   0  0  0  0  0  0  0  0  0  0  0  0
    2.8071   -0.8310   -0.2518 N   0  0  0  0  0  0  0  0  0  0  0  0
    2.9481    0.0552    0.2063 H   0  0  0  0  0  0  0  0  0  0  0  0
    3.9868   -1.6186   -0.6065 C   0  0  0  0  0  0  0  0  0  0  0  0
    3.9693   -1.8481   -1.6737 H   0  0  0  0  0  0  0  0  0  0  0  0
    4.8974   -1.0647   -0.3735 H   0  0  0  0  0  0  0  0  0  0  0  0
    3.9831   -2.5575   -0.0502 H   0  0  0  0  0  0  0  0  0  0  0  0
  5  6  2  0  0  0  0
  5  7  1  0  0  0  0
  2  3  1  0  0  0  0
  2  4  1  0  0  0  0
  2  5  1  0  0  0  0
  1  2  1  0  0  0  0
 15 16  2  0  0  0  0
 15 17  1  0  0  0  0
 11 12  1  0  0  0  0
 11 13  1  0  0  0  0
 11 14  1  0  0  0  0
  9 10  1  0  0  0  0
  9 11  1  0  0  0  0
  9 15  1  0  0  0  0
  7  8  1  0  0  0  0
  7  9  1  0  0  0  0
 19 20  1  0  0  0  0
 19 21  1  0  0  0  0
 19 22  1  0  0  0  0
 17 18  1  0  0  0  0
 17 19  1  0  0  0  0
M  END
$$$$
default_name
  -OEChem-01062215323D

 22 21  0     1  0  0  0  0  0999 V2000
   -2.5423   -3.6749    0.8058 H   0  0  0  0  0  0  0  0  0  0  0  0
   -2.5063   -2.6779    0.3688 C   0  0  0  0  0  0  0  0  0  0  0  0
   -3.1603   -2.0109    0.9268 H   0  0  0  0  0  0  0  0  0  0  0  0
   -2.8193   -2.7229   -0.6722 H   0  0  0  0  0  0  0  0  0  0  0  0
   -1.0873   -2.1629    0.4418 C   0  0  0  0  0  0  0  0  0  0  0  0
   -0.2073   -2.8549    0.9368 O   0  0  0  0  0  0  0  0  0  0  0  0
   -0.8713   -0.9449   -0.0482 N   0  0  0  0  0  0  0  0  0  0  0  0
   -1.6543   -0.4189   -0.4062 H   0  0  0  0  0  0  0  0  0  0  0  0
    0.4237   -0.2649   -0.0462 C   0  0  1  0  0  0  0  0  0  0  0  0
    0.3858    0.5680   -0.7502 H   0  0  0  0  0  0  0  0  0  0  0  0
    0.6903    0.2958    1.3592 C   0  0  0  0  0  0  0  0  0  0  0  0
    0.7287   -0.5197    2.0834 H   0  0  0  0  0  0  0  0  0  0  0  0
    1.6385    0.8323    1.3734 H   0  0  0  0  0  0  0  0  0  0  0  0
   -0.1074    0.9864    1.6379 H   0  0  0  0  0  0  0  0  0  0  0  0
    1.5486   -1.2166   -0.4981 C   0  0  0  0  0  0  0  0  0  0  0  0
    1.3103   -2.1375   -1.2791 O   0  0  0  0  0  0  0  0  0  0  0  0
    2.7692   -0.9989    0.0077 N   0  0  0  0  0  0  0  0  0  0  0  0
    2.8851   -0.2280    0.6459 H   0  0  0  0  0  0  0  0  0  0  0  0
    3.9418   -1.8128   -0.3096 C   0  0  0  0  0  0  0  0  0  0  0  0
    4.0890   -1.8408   -1.3911 H   0  0  0  0  0  0  0  0  0  0  0  0
    4.8324   -1.3963    0.1630 H   0  0  0  0  0  0  0  0  0  0  0  0
    3.7883   -2.8332    0.0456 H   0  0  0  0  0  0  0  0  0  0  0  0
  5  6  2  0  0  0  0
  5  7  1  0  0  0  0
  2  3  1  0  0  0  0
  2  4  1  0  0  0  0
  2  5  1  0  0  0  0
  1  2  1  0  0  0  0
 15 16  2  0  0  0  0
 15 17  1  0  0  0  0
 11 12  1  0  0  0  0
 11 13  1  0  0  0  0
 11 14  1  0  0  0  0
  9 10  1  0  0  0  0
  9 11  1  0  0  0  0
  9 15  1  0  0  0  0
  7  8  1  0  0  0  0
  7  9  1  0  0  0  0
 19 20  1  0  0  0  0
 19 21  1  0  0  0  0
 19 22  1  0  0  0  0
 17 18  1  0  0  0  0
 17 19  1  0  0  0  0
M  END
$$$$
default_name
  -OEChem-01062215323D

 22 21  0     1  0  0  0  0  0999 V2000
   -2.5423   -3.6749    0.8058 H   0  0  0  0  0  0  0  0  0  0  0  0
   -2.5063   -2.6779    0.3688 C   0  0  0  0  0  0  0  0  0  0  0  0
   -3.1603   -2.0109    0.9268 H   0  0  0  0  0  0  0  0  0  0  0  0
   -2.8193   -2.7229   -0.6722 H   0  0  0  0  0  0  0  0  0  0  0  0
   -1.0873   -2.1629    0.4418 C   0  0  0  0  0  0  0  0  0  0  0  0
   -0.2073   -2.8549    0.9368 O   0  0  0  0  0  0  0  0  0  0  0  0
   -0.8713   -0.9449   -0.0482 N   0  0  0  0  0  0  0  0  0  0  0  0
   -1.6543   -0.4189   -0.4062 H   0  0  0  0  0  0  0  0  0  0  0  0
    0.4237   -0.2649   -0.0462 C   0  0  1  0  0  0  0  0  0  0  0  0
    0.3858    0.5680   -0.7502 H   0  0  0  0  0  0  0  0  0  0  0  0
    0.6903    0.2958    1.3592 C   0  0  0  0  0  0  0  0  0  0  0  0
    0.7287   -0.5197    2.0834 H   0  0  0  0  0  0  0  0  0  0  0  0
    1.6385    0.8323    1.3734 H   0  0  0  0  0  0  0  0  0  0  0  0
   -0.1074    0.9864    1.6379 H   0  0  0  0  0  0  0  0  0  0  0  0
    1.5486   -1.2166   -0.4981 C   0  0  0  0  0  0  0  0  0  0  0  0
    1.3889   -1.9536   -1.4708 O   0  0  0  0  0  0  0  0  0  0  0  0
    2.6784   -1.2073    0.2206 N   0  0  0  0  0  0  0  0  0  0  0  0
    2.7325   -0.5799    1.0069 H   0  0  0  0  0  0  0  0  0  0  0  0
    3.8361   -2.0530   -0.0668 C   0  0  0  0  0  0  0  0  0  0  0  0
    4.1600   -1.8962   -1.0976 H   0  0  0  0  0  0  0  0  0  0  0  0
    4.6588   -1.8129    0.6082 H   0  0  0  0  0  0  0  0  0  0  0  0
    3.5639   -3.1028    0.0549 H   0  0  0  0  0  0  0  0  0  0  0  0
  5  6  2  0  0  0  0
  5  7  1  0  0  0  0
  2  3  1  0  0  0  0
  2  4  1  0  0  0  0
  2  5  1  0  0  0  0
  1  2  1  0  0  0  0
 15 16  2  0  0  0  0
 15 17  1  0  0  0  0
 11 12  1  0  0  0  0
 11 13  1  0  0  0  0
 11 14  1  0  0  0  0
  9 10  1  0  0  0  0
  9 11  1  0  0  0  0
  9 15  1  0  0  0  0
  7  8  1  0  0  0  0
  7  9  1  0  0  0  0
 19 20  1  0  0  0  0
 19 21  1  0  0  0  0
 19 22  1  0  0  0  0
 17 18  1  0  0  0  0
 17 19  1  0  0  0  0
M  END
$$$$
default_name
  -OEChem-01062215323D

 22 21  0     1  0  0  0  0  0999 V2000
   -2.5423   -3.6749    0.8058 H   0  0  0  0  0  0  0  0  0  0  0  0
   -2.5063   -2.6779    0.3688 C   0  0  0  0  0  0  0  0  0  0  0  0
   -3.1603   -2.0109    0.9268 H   0  0  0  0  0  0  0  0  0  0  0  0
   -2.8193   -2.7229   -0.6722 H   0  0  0  0  0  0  0  0  0  0  0  0
   -1.0873   -2.1629    0.4418 C   0  0  0  0  0  0  0  0  0  0  0  0
   -0.2073   -2.8549    0.9368 O   0  0  0  0  0  0  0  0  0  0  0  0
   -0.8713   -0.9449   -0.0482 N   0  0  0  0  0  0  0  0  0  0  0  0
   -1.6543   -0.4189   -0.4062 H   0  0  0  0  0  0  0  0  0  0  0  0
    0.4237   -0.2649   -0.0462 C   0  0  1  0  0  0  0  0  0  0  0  0
    0.3858    0.5680   -0.7502 H   0  0  0  0  0  0  0  0  0  0  0  0
    0.6903    0.2958    1.3592 C   0  0  0  0  0  0  0  0  0  0  0  0
    0.7287   -0.5197    2.0834 H   0  0  0  0  0  0  0  0  0  0  0  0
    1.6385    0.8323    1.3734 H   0  0  0  0  0  0  0  0  0  0  0  0
   -0.1074    0.9864    1.6379 H   0  0  0  0  0  0  0  0  0  0  0  0
    1.5486   -1.2166   -0.4981 C   0  0  0  0  0  0  0  0  0  0  0  0
    1.5094   -1.7457   -1.6086 O   0  0  0  0  0  0  0  0  0  0  0  0
    2.5409   -1.4419    0.3723 N   0  0  0  0  0  0  0  0  0  0  0  0
    2.5007   -0.9764    1.2649 H   0  0  0  0  0  0  0  0  0  0  0  0
    3.6770   -2.3229    0.1055 C   0  0  0  0  0  0  0  0  0  0  0  0
    4.1774   -2.0106   -0.8132 H   0  0  0  0  0  0  0  0  0  0  0  0
    4.3883   -2.2863    0.9318 H   0  0  0  0  0  0  0  0  0  0  0  0
    3.3252   -3.3480   -0.0229 H   0  0  0  0  0  0  0  0  0  0  0  0
  5  6  2  0  0  0  0
  5  7  1  0  0  0  0
  2  3  1  0  0  0  0
  2  4  1  0  0  0  0
  2  5  1  0  0  0  0
  1  2  1  0  0  0  0
 15 16  2  0  0  0  0
 15 17  1  0  0  0  0
 11 12  1  0  0  0  0
 11 13  1  0  0  0  0
 11 14  1  0  0  0  0
  9 10  1  0  0  0  0
  9 11  1  0  0  0  0
  9 15  1  0  0  0  0
  7  8  1  0  0  0  0
  7  9  1  0  0  0  0
 19 20  1  0  0  0  0
 19 21  1  0  0  0  0
 19 22  1  0  0  0  0
 17 18  1  0  0  0  0
 17 19  1  0  0  0  0
M  END
$$$$
default_name
  -OEChem-01062215323D

 22 21  0     1  0  0  0  0  0999 V2000
   -2.5423   -3.6749    0.8058 H   0  0  0  0  0  0  0  0  0  0  0  0
   -2.5063   -2.6779    0.3688 C   0  0  0  0  0  0  0  0  0  0  0  0
   -3.1603   -2.0109    0.9268 H   0  0  0  0  0  0  0  0  0  0  0  0
   -2.8193   -2.7229   -0.6722 H   0  0  0  0  0  0  0  0  0  0  0  0
   -1.0873   -2.1629    0.4418 C   0  0  0  0  0  0  0  0  0  0  0  0
   -0.2073   -2.8549    0.9368 O   0  0  0  0  0  0  0  0  0  0  0  0
   -0.8713   -0.9449   -0.0482 N   0  0  0  0  0  0  0  0  0  0  0  0
   -1.6543   -0.4189   -0.4062 H   0  0  0  0  0  0  0  0  0  0  0  0
    0.4237   -0.2649   -0.0462 C   0  0  1  0  0  0  0  0  0  0  0  0
    0.3858    0.5680   -0.7502 H   0  0  0  0  0  0  0  0  0  0  0  0
    0.6903    0.2958    1.3592 C   0  0  0  0  0  0  0  0  0  0  0  0
    0.7287   -0.5197    2.0834 H   0  0  0  0  0  0  0  0  0  0  0  0
    1.6385    0.8323    1.3734 H   0  0  0  0  0  0  0  0  0  0  0  0
   -0.1074    0.9864    1.6379 H   0  0  0  0  0  0  0  0  0  0  0  0
    1.5486   -1.2166   -0.4981 C   0  0  0  0  0  0  0  0  0  0  0  0
    1.6636   -1.5281   -1.6833 O   0  0  0  0  0  0  0  0  0  0  0  0
    2.3660   -1.6868    0.4526 N   0  0  0  0  0  0  0  0  0  0  0  0
    2.2055   -1.3905    1.4020 H   0  0  0  0  0  0  0  0  0  0  0  0
    3.4752   -2.6041    0.1956 C   0  0  0  0  0  0  0  0  0  0  0  0
    4.1402   -2.1762   -0.5573 H   0  0  0  0  0  0  0  0  0  0  0  0
    4.0394   -2.7841    1.1118 H   0  0  0  0  0  0  0  0  0  0  0  0
    3.0885   -3.5520   -0.1825 H   0  0  0  0  0  0  0  0  0  0  0  0
  5  6  2  0  0  0  0
  5  7  1  0  0  0  0
  2  3  1  0  0  0  0
  2  4  1  0  0  0  0
  2  5  1  0  0  0  0
  1  2  1  0  0  0  0
 15 16  2  0  0  0  0
 15 17  1  0  0  0  0
 11 12  1  0  0  0  0
 11 13  1  0  0  0  0
 11 14  1  0  0  0  0
  9 10  1  0  0  0  0
  9 11  1  0  0  0  0
  9 15  1  0  0  0  0
  7  8  1  0  0  0  0
  7  9  1  0  0  0  0
 19 20  1  0  0  0  0
 19 21  1  0  0  0  0
 19 22  1  0  0  0  0
 17 18  1  0  0  0  0
 17 19  1  0  0  0  0
M  END
$$$$
default_name
  -OEChem-01062215323D

 22 21  0     1  0  0  0  0  0999 V2000
   -2.5423   -3.6749    0.8058 H   0  0  0  0  0  0  0  0  0  0  0  0
   -2.5063   -2.6779    0.3688 C   0  0  0  0  0  0  0  0  0  0  0  0
   -3.1603   -2.0109    0.9268 H   0  0  0  0  0  0  0  0  0  0  0  0
   -2.8193   -2.7229   -0.6722 H   0  0  0  0  0  0  0  0  0  0  0  0
   -1.0873   -2.1629    0.4418 C   0  0  0  0  0  0  0  0  0  0  0  0
   -0.2073   -2.8549    0.9368 O   0  0  0  0  0  0  0  0  0  0  0  0
   -0.8713   -0.9449   -0.0482 N   0  0  0  0  0  0  0  0  0  0  0  0
   -1.6543   -0.4189   -0.4062 H   0  0  0  0  0  0  0  0  0  0  0  0
    0.4237   -0.2649   -0.0462 C   0  0  1  0  0  0  0  0  0  0  0  0
    0.3858    0.5680   -0.7502 H   0  0  0  0  0  0  0  0  0  0  0  0
    0.6903    0.2958    1.3592 C   0  0  0  0  0  0  0  0  0  0  0  0
    0.7287   -0.5197    2.0834 H   0  0  0  0  0  0  0  0  0  0  0  0
    1.6385    0.8323    1.3734 H   0  0  0  0  0  0  0  0  0  0  0  0
   -0.1074    0.9864    1.6379 H   0  0  0  0  0  0  0  0  0  0  0  0
    1.5486   -1.2166   -0.4981 C   0  0  0  0  0  0  0  0  0  0  0  0
    1.8409   -1.3154   -1.6896 O   0  0  0  0  0  0  0  0  0  0  0  0
    2.1657   -1.9252    0.4559 N   0  0  0  0  0  0  0  0  0  0  0  0
    1.8670   -1.7939    1.4091 H   0  0  0  0  0  0  0  0  0  0  0  0
    3.2447   -2.8774    0.1971 C   0  0  0  0  0  0  0  0  0  0  0  0
    4.0507   -2.3816   -0.3474 H   0  0  0  0  0  0  0  0  0  0  0  0
    3.6358   -3.2725    1.1357 H   0  0  0  0  0  0  0  0  0  0  0  0
    2.8699   -3.7009   -0.4131 H   0  0  0  0  0  0  0  0  0  0  0  0
  5  6  2  0  0  0  0
  5  7  1  0  0  0  0
  2  3  1  0  0  0  0
  2  4  1  0  0  0  0
  2  5  1  0  0  0  0
  1  2  1  0  0  0  0
 15 16  2  0  0  0  0
 15 17  1  0  0  0  0
 11 12  1  0  0  0  0
 11 13  1  0  0  0  0
 11 14  1  0  0  0  0
  9 10  1  0  0  0  0
  9 11  1  0  0  0  0
  9 15  1  0  0  0  0
  7  8  1  0  0  0  0
  7  9  1  0  0  0  0
 19 20  1  0  0  0  0
 19 21  1  0  0  0  0
 19 22  1  0  0  0  0
 17 18  1  0  0  0  0
 17 19  1  0  0  0  0
M  END
$$$$
default_name
  -OEChem-01062215323D

 22 21  0     1  0  0  0  0  0999 V2000
   -2.5423   -3.6749    0.8058 H   0  0  0  0  0  0  0  0  0  0  0  0
   -2.5063   -2.6779    0.3688 C   0  0  0  0  0  0  0  0  0  0  0  0
   -3.1603   -2.0109    0.9268 H   0  0  0  0  0  0  0  0  0  0  0  0
   -2.8193   -2.7229   -0.6722 H   0  0  0  0  0  0  0  0  0  0  0  0
   -1.0873   -2.1629    0.4418 C   0  0  0  0  0  0  0  0  0  0  0  0
   -0.2073   -2.8549    0.9368 O   0  0  0  0  0  0  0  0  0  0  0  0
   -0.8713   -0.9449   -0.0482 N   0  0  0  0  0  0  0  0  0  0  0  0
   -1.6543   -0.4189   -0.4062 H   0  0  0  0  0  0  0  0  0  0  0  0
    0.4237   -0.2649   -0.0462 C   0  0  1  0  0  0  0  0  0  0  0  0
    0.3858    0.5680   -0.7502 H   0  0  0  0  0  0  0  0  0  0  0  0
    0.6903    0.2958    1.3592 C   0  0  0  0  0  0  0  0  0  0  0  0
    0.7287   -0.5197    2.0834 H   0  0  0  0  0  0  0  0  0  0  0  0
    1.6385    0.8323    1.3734 H   0  0  0  0  0  0  0  0  0  0  0  0
   -0.1074    0.9864    1.6379 H   0  0  0  0  0  0  0  0  0  0  0  0
    1.5486   -1.2166   -0.4981 C   0  0  0  0  0  0  0  0  0  0  0  0
    2.0294   -1.1223   -1.6272 O   0  0  0  0  0  0  0  0  0  0  0  0
    1.9535   -2.1409    0.3821 N   0  0  0  0  0  0  0  0  0  0  0  0
    1.5082   -2.1593    1.2856 H   0  0  0  0  0  0  0  0  0  0  0  0
    3.0009   -3.1242    0.1102 C   0  0  0  0  0  0  0  0  0  0  0  0
    3.9152   -2.6128   -0.1977 H   0  0  0  0  0  0  0  0  0  0  0  0
    3.2051   -3.7182    1.0021 H   0  0  0  0  0  0  0  0  0  0  0  0
    2.6843   -3.7847   -0.6988 H   0  0  0  0  0  0  0  0  0  0  0  0
  5  6  2  0  0  0  0
  5  7  1  0  0  0  0
  2  3  1  0  0  0  0
  2  4  1  0  0  0  0
  2  5  1  0  0  0  0
  1  2  1  0  0  0  0
 15 16  2  0  0  0  0
 15 17  1  0  0  0  0
 11 12  1  0  0  0  0
 11 13  1  0  0  0  0
 11 14  1  0  0  0  0
  9 10  1  0  0  0  0
  9 11  1  0  0  0  0
  9 15  1  0  0  0  0
  7  8  1  0  0  0  0
  7  9  1  0  0  0  0
 19 20  1  0  0  0  0
 19 21  1  0  0  0  0
 19 22  1  0  0  0  0
 17 18  1  0  0  0  0
 17 19  1  0  0  0  0
M  END
$$$$
default_name
  -OEChem-01062215323D

 22 21  0     1  0  0  0  0  0999 V2000
   -2.5423   -3.6749    0.8058 H   0  0  0  0  0  0  0  0  0  0  0  0
   -2.5063   -2.6779    0.3688 C   0  0  0  0  0  0  0  0  0  0  0  0
   -3.1603   -2.0109    0.9268 H   0  0  0  0  0  0  0  0  0  0  0  0
   -2.8193   -2.7229   -0.6722 H   0  0  0  0  0  0  0  0  0  0  0  0
   -1.0873   -2.1629    0.4418 C   0  0  0  0  0  0  0  0  0  0  0  0
   -0.2073   -2.8549    0.9368 O   0  0  0  0  0  0  0  0  0  0  0  0
   -0.8713   -0.9449   -0.0482 N   0  0  0  0  0  0  0  0  0  0  0  0
   -1.6543   -0.4189   -0.4062 H   0  0  0  0  0  0  0  0  0  0  0  0
    0.4237   -0.2649   -0.0462 C   0  0  1  0  0  0  0  0  0  0  0  0
    0.3858    0.5680   -0.7502 H   0  0  0  0  0  0  0  0  0  0  0  0
    0.6903    0.2958    1.3592 C   0  0  0  0  0  0  0  0  0  0  0  0
    0.7287   -0.5197    2.0834 H   0  0  0  0  0  0  0  0  0  0  0  0
    1.6385    0.8323    1.3734 H   0  0  0  0  0  0  0  0  0  0  0  0
   -0.1074    0.9864    1.6379 H   0  0  0  0  0  0  0  0  0  0  0  0
    1.5486   -1.2166   -0.4981 C   0  0  0  0  0  0  0  0  0  0  0  0
    2.2162   -0.9618   -1.5003 O   0  0  0  0  0  0  0  0  0  0  0  0
    1.7440   -2.3192    0.2361 N   0  0  0  0  0  0  0  0  0  0  0  0
    1.1537   -2.4617    1.0400 H   0  0  0  0  0  0  0  0  0  0  0  0
    2.7607   -3.3276   -0.0594 C   0  0  0  0  0  0  0  0  0  0  0  0
    3.7428   -2.8542   -0.1185 H   0  0  0  0  0  0  0  0  0  0  0  0
    2.7766   -4.0908    0.7201 H   0  0  0  0  0  0  0  0  0  0  0  0
    2.5443   -3.7975   -1.0203 H   0  0  0  0  0  0  0  0  0  0  0  0
  5  6  2  0  0  0  0
  5  7  1  0  0  0  0
  2  3  1  0  0  0  0
  2  4  1  0  0  0  0
  2  5  1  0  0  0  0
  1  2  1  0  0  0  0
 15 16  2  0  0  0  0
 15 17  1  0  0  0  0
 11 12  1  0  0  0  0
 11 13  1  0  0  0  0
 11 14  1  0  0  0  0
  9 10  1  0  0  0  0
  9 11  1  0  0  0  0
  9 15  1  0  0  0  0
  7  8  1  0  0  0  0
  7  9  1  0  0  0  0
 19 20  1  0  0  0  0
 19 21  1  0  0  0  0
 19 22  1  0  0  0  0
 17 18  1  0  0  0  0
 17 19  1  0  0  0  0
M  END
$$$$
default_name
  -OEChem-01062215323D

 22 21  0     1  0  0  0  0  0999 V2000
   -2.5423   -3.6749    0.8058 H   0  0  0  0  0  0  0  0  0  0  0  0
   -2.5063   -2.6779    0.3688 C   0  0  0  0  0  0  0  0  0  0  0  0
   -3.1603   -2.0109    0.9268 H   0  0  0  0  0  0  0  0  0  0  0  0
   -2.8193   -2.7229   -0.6722 H   0  0  0  0  0  0  0  0  0  0  0  0
   -1.0873   -2.1629    0.4418 C   0  0  0  0  0  0  0  0  0  0  0  0
   -0.2073   -2.8549    0.9368 O   0  0  0  0  0  0  0  0  0  0  0  0
   -0.8713   -0.9449   -0.0482 N   0  0  0  0  0  0  0  0  0  0  0  0
   -1.6543   -0.4189   -0.4062 H   0  0  0  0  0  0  0  0  0  0  0  0
    0.4237   -0.2649   -0.0462 C   0  0  1  0  0  0  0  0  0  0  0  0
    0.3858    0.5680   -0.7502 H   0  0  0  0  0  0  0  0  0  0  0  0
    0.6903    0.2958    1.3592 C   0  0  0  0  0  0  0  0  0  0  0  0
    0.7287   -0.5197    2.0834 H   0  0  0  0  0  0  0  0  0  0  0  0
    1.6385    0.8323    1.3734 H   0  0  0  0  0  0  0  0  0  0  0  0
   -0.1074    0.9864    1.6379 H   0  0  0  0  0  0  0  0  0  0  0  0
    1.5486   -1.2166   -0.4981 C   0  0  0  0  0  0  0  0  0  0  0  0
    2.3884   -0.8449   -1.3175 O   0  0  0  0  0  0  0  0  0  0  0  0
    1.5515   -2.4480    0.0280 N   0  0  0  0  0  0  0  0  0  0  0  0
    0.8276   -2.6805    0.6890 H   0  0  0  0  0  0  0  0  0  0  0  0
    2.5403   -3.4739   -0.3000 C   0  0  0  0  0  0  0  0  0  0  0  0
    3.5453   -3.0893   -0.1151 H   0  0  0  0  0  0  0  0  0  0  0  0
    2.3795   -4.3648    0.3087 H   0  0  0  0  0  0  0  0  0  0  0  0
    2.4595   -3.7385   -1.3557 H   0  0  0  0  0  0  0  0  0  0  0  0
  5  6  2  0  0  0  0
  5  7  1  0  0  0  0
  2  3  1  0  0  0  0
  2  4  1  0  0  0  0
  2  5  1  0  0  0  0
  1  2  1  0  0  0  0
 15 16  2  0  0  0  0
 15 17  1  0  0  0  0
 11 12  1  0  0  0  0
 11 13  1  0  0  0  0
 11 14  1  0  0  0  0
  9 10  1  0  0  0  0
  9 11  1  0  0  0  0
  9 15  1  0  0  0  0
  7  8  1  0  0  0  0
  7  9  1  0  0  0  0
 19 20  1  0  0  0  0
 19 21  1  0  0  0  0
 19 22  1  0  0  0  0
 17 18  1  0  0  0  0
 17 19  1  0  0  0  0
M  END
$$$$
default_name
  -OEChem-01062215323D

 22 21  0     1  0  0  0  0  0999 V2000
   -2.5423   -3.6749    0.8058 H   0  0  0  0  0  0  0  0  0  0  0  0
   -2.5063   -2.6779    0.3688 C   0  0  0  0  0  0  0  0  0  0  0  0
   -3.1603   -2.0109    0.9268 H   0  0  0  0  0  0  0  0  0  0  0  0
   -2.8193   -2.7229   -0.6722 H   0  0  0  0  0  0  0  0  0  0  0  0
   -1.0873   -2.1629    0.4418 C   0  0  0  0  0  0  0  0  0  0  0  0
   -0.2073   -2.8549    0.9368 O   0  0  0  0  0  0  0  0  0  0  0  0
   -0.8713   -0.9449   -0.0482 N   0  0  0  0  0  0  0  0  0  0  0  0
   -1.6543   -0.4189   -0.4062 H   0  0  0  0  0  0  0  0  0  0  0  0
    0.4237   -0.2649   -0.0462 C   0  0  1  0  0  0  0  0  0  0  0  0
    0.3858    0.5680   -0.7502 H   0  0  0  0  0  0  0  0  0  0  0  0
    0.6903    0.2958    1.3592 C   0  0  0  0  0  0  0  0  0  0  0  0
    0.7287   -0.5197    2.0834 H   0  0  0  0  0  0  0  0  0  0  0  0
    1.6385    0.8323    1.3734 H   0  0  0  0  0  0  0  0  0  0  0  0
   -0.1074    0.9864    1.6379 H   0  0  0  0  0  0  0  0  0  0  0  0
    1.5486   -1.2166   -0.4981 C   0  0  0  0  0  0  0  0  0  0  0  0
    2.5345   -0.7797   -1.0914 O   0  0  0  0  0  0  0  0  0  0  0  0
    1.3890   -2.5184   -0.2282 N   0  0  0  0  0  0  0  0  0  0  0  0
    0.5521   -2.8008    0.2564 H   0  0  0  0  0  0  0  0  0  0  0  0
    2.3548   -3.5530   -0.5952 C   0  0  0  0  0  0  0  0  0  0  0  0
    3.3362   -3.3020   -0.1878 H   0  0  0  0  0  0  0  0  0  0  0  0
    2.0409   -4.5217   -0.2038 H   0  0  0  0  0  0  0  0  0  0  0  0
    2.4357   -3.6117   -1.6820 H   0  0  0  0  0  0  0  0  0  0  0  0
  5  6  2  0  0  0  0
  5  7  1  0  0  0  0
  2  3  1  0  0  0  0
  2  4  1  0  0  0  0
  2  5  1  0  0  0  0
  1  2  1  0  0  0  0
 15 16  2  0  0  0  0
 15 17  1  0  0  0  0
 11 12  1  0  0  0  0
 11 13  1  0  0  0  0
 11 14  1  0  0  0  0
  9 10  1  0  0  0  0
  9 11  1  0  0  0  0
  9 15  1  0  0  0  0
  7  8  1  0  0  0  0
  7  9  1  0  0  0  0
 19 20  1  0  0  0  0
 19 21  1  0  0  0  0
 19 22  1  0  0  0  0
 17 18  1  0  0  0  0
 17 19  1  0  0  0  0
M  END
$$$$
default_name
  -OEChem-01062215323D

 22 21  0     1  0  0  0  0  0999 V2000
   -2.5423   -3.6749    0.8058 H   0  0  0  0  0  0  0  0  0  0  0  0
   -2.5063   -2.6779    0.3688 C   0  0  0  0  0  0  0  0  0  0  0  0
   -3.1603   -2.0109    0.9268 H   0  0  0  0  0  0  0  0  0  0  0  0
   -2.8193   -2.7229   -0.6722 H   0  0  0  0  0  0  0  0  0  0  0  0
   -1.0873   -2.1629    0.4418 C   0  0  0  0  0  0  0  0  0  0  0  0
   -0.2073   -2.8549    0.9368 O   0  0  0  0  0  0  0  0  0  0  0  0
   -0.8713   -0.9449   -0.0482 N   0  0  0  0  0  0  0  0  0  0  0  0
   -1.6543   -0.4189   -0.4062 H   0  0  0  0  0  0  0  0  0  0  0  0
    0.4237   -0.2649   -0.0462 C   0  0  1  0  0  0  0  0  0  0  0  0
    0.3858    0.5680   -0.7502 H   0  0  0  0  0  0  0  0  0  0  0  0
    0.6903    0.2958    1.3592 C   0  0  0  0  0  0  0  0  0  0  0  0
    0.7287   -0.5197    2.0834 H   0  0  0  0  0  0  0  0  0  0  0  0
    1.6385    0.8323    1.3734 H   0  0  0  0  0  0  0  0  0  0  0  0
   -0.1074    0.9864    1.6379 H   0  0  0  0  0  0  0  0  0  0  0  0
    1.5486   -1.2166   -0.4981 C   0  0  0  0  0  0  0  0  0  0  0  0
    2.6444   -0.7704   -0.8373 O   0  0  0  0  0  0  0  0  0  0  0  0
    1.2676   -2.5257   -0.5149 N   0  0  0  0  0  0  0  0  0  0  0  0
    0.3460   -2.8144   -0.2281 H   0  0  0  0  0  0  0  0  0  0  0  0
    2.2167   -3.5596   -0.9250 C   0  0  0  0  0  0  0  0  0  0  0  0
    3.1296   -3.4778   -0.3316 H   0  0  0  0  0  0  0  0  0  0  0  0
    1.7838   -4.5507   -0.7827 H   0  0  0  0  0  0  0  0  0  0  0  0
    2.4744   -3.4258   -1.9770 H   0  0  0  0  0  0  0  0  0  0  0  0
  5  6  2  0  0  0  0
  5  7  1  0  0  0  0
  2  3  1  0  0  0  0
  2  4  1  0  0  0  0
  2  5  1  0  0  0  0
  1  2  1  0  0  0  0
 15 16  2  0  0  0  0
 15 17  1  0  0  0  0
 11 12  1  0  0  0  0
 11 13  1  0  0  0  0
 11 14  1  0  0  0  0
  9 10  1  0  0  0  0
  9 11  1  0  0  0  0
  9 15  1  0  0  0  0
  7  8  1  0  0  0  0
  7  9  1  0  0  0  0
 19 20  1  0  0  0  0
 19 21  1  0  0  0  0
 19 22  1  0  0  0  0
 17 18  1  0  0  0  0
 17 19  1  0  0  0  0
M  END
$$$$
default_name
  -OEChem-01062215323D

 22 21  0     1  0  0  0  0  0999 V2000
   -2.5423   -3.6749    0.8058 H   0  0  0  0  0  0  0  0  0  0  0  0
   -2.5063   -2.6779    0.3688 C   0  0  0  0  0  0  0  0  0  0  0  0
   -3.1603   -2.0109    0.9268 H   0  0  0  0  0  0  0  0  0  0  0  0
   -2.8193   -2.7229   -0.6722 H   0  0  0  0  0  0  0  0  0  0  0  0
   -1.0873   -2.1629    0.4418 C   0  0  0  0  0  0  0  0  0  0  0  0
   -0.2073   -2.8549    0.9368 O   0  0  0  0  0  0  0  0  0  0  0  0
   -0.8713   -0.9449   -0.0482 N   0  0  0  0  0  0  0  0  0  0  0  0
   -1.6543   -0.4189   -0.4062 H   0  0  0  0  0  0  0  0  0  0  0  0
    0.4237   -0.2649   -0.0462 C   0  0  1  0  0  0  0  0  0  0  0  0
    0.3858    0.5680   -0.7502 H   0  0  0  0  0  0  0  0  0  0  0  0
    0.6903    0.2958    1.3592 C   0  0  0  0  0  0  0  0  0  0  0  0
    0.7287   -0.5197    2.0834 H   0  0  0  0  0  0  0  0  0  0  0  0
    1.6385    0.8323    1.3734 H   0  0  0  0  0  0  0  0  0  0  0  0
   -0.1074    0.9864    1.6379 H   0  0  0  0  0  0  0  0  0  0  0  0
    1.5486   -1.2166   -0.4981 C   0  0  0  0  0  0  0  0  0  0  0  0
    2.7106   -0.8178   -0.5726 O   0  0  0  0  0  0  0  0  0  0  0  0
    1.1957   -2.4694   -0.8126 N   0  0  0  0  0  0  0  0  0  0  0  0
    0.2233   -2.7203   -0.7316 H   0  0  0  0  0  0  0  0  0  0  0  0
    2.1356   -3.4931   -1.2669 C   0  0  0  0  0  0  0  0  0  0  0  0
    2.9397   -3.6048   -0.5368 H   0  0  0  0  0  0  0  0  0  0  0  0
    1.6258   -4.4499   -1.3883 H   0  0  0  0  0  0  0  0  0  0  0  0
    2.5731   -3.1935   -2.2207 H   0  0  0  0  0  0  0  0  0  0  0  0
  5  6  2  0  0  0  0
  5  7  1  0  0  0  0
  2  3  1  0  0  0  0
  2  4  1  0  0  0  0
  2  5  1  0  0  0  0
  1  2  1  0  0  0  0
 15 16  2  0  0  0  0
 15 17  1  0  0  0  0
 11 12  1  0  0  0  0
 11 13  1  0  0  0  0
 11 14  1  0  0  0  0
  9 10  1  0  0  0  0
  9 11  1  0  0  0  0
  9 15  1  0  0  0  0
  7  8  1  0  0  0  0
  7  9  1  0  0  0  0
 19 20  1  0  0  0  0
 19 21  1  0  0  0  0
 19 22  1  0  0  0  0
 17 18  1  0  0  0  0
 17 19  1  0  0  0  0
M  END
$$$$
default_name
  -OEChem-01062215323D

 22 21  0     1  0  0  0  0  0999 V2000
   -2.5423   -3.6749    0.8058 H   0  0  0  0  0  0  0  0  0  0  0  0
   -2.5063   -2.6779    0.3688 C   0  0  0  0  0  0  0  0  0  0  0  0
   -3.1603   -2.0109    0.9268 H   0  0  0  0  0  0  0  0  0  0  0  0
   -2.8193   -2.7229   -0.6722 H   0  0  0  0  0  0  0  0  0  0  0  0
   -1.0873   -2.1629    0.4418 C   0  0  0  0  0  0  0  0  0  0  0  0
   -0.2073   -2.8549    0.9368 O   0  0  0  0  0  0  0  0  0  0  0  0
   -0.8713   -0.9449   -0.0482 N   0  0  0  0  0  0  0  0  0  0  0  0
   -1.6543   -0.4189   -0.4062 H   0  0  0  0  0  0  0  0  0  0  0  0
    0.4237   -0.2649   -0.0462 C   0  0  1  0  0  0  0  0  0  0  0  0
    0.3858    0.5680   -0.7502 H   0  0  0  0  0  0  0  0  0  0  0  0
    0.6903    0.2958    1.3592 C   0  0  0  0  0  0  0  0  0  0  0  0
    0.7287   -0.5197    2.0834 H   0  0  0  0  0  0  0  0  0  0  0  0
    1.6385    0.8323    1.3734 H   0  0  0  0  0  0  0  0  0  0  0  0
   -0.1074    0.9864    1.6379 H   0  0  0  0  0  0  0  0  0  0  0  0
    1.5486   -1.2166   -0.4981 C   0  0  0  0  0  0  0  0  0  0  0  0
    2.7287   -0.9186   -0.3153 O   0  0  0  0  0  0  0  0  0  0  0  0
    1.1780   -2.3533   -1.1010 N   0  0  0  0  0  0  0  0  0  0  0  0
    0.1924   -2.5250   -1.2199 H   0  0  0  0  0  0  0  0  0  0  0  0
    2.1170   -3.3582   -1.5975 C   0  0  0  0  0  0  0  0  0  0  0  0
    2.7795   -3.6743   -0.7893 H   0  0  0  0  0  0  0  0  0  0  0  0
    1.5777   -4.2261   -1.9796 H   0  0  0  0  0  0  0  0  0  0  0  0
    2.7250   -2.9305   -2.3965 H   0  0  0  0  0  0  0  0  0  0  0  0
  5  6  2  0  0  0  0
  5  7  1  0  0  0  0
  2  3  1  0  0  0  0
  2  4  1  0  0  0  0
  2  5  1  0  0  0  0
  1  2  1  0  0  0  0
 15 16  2  0  0  0  0
 15 17  1  0  0  0  0
 11 12  1  0  0  0  0
 11 13  1  0  0  0  0
 11 14  1  0  0  0  0
  9 10  1  0  0  0  0
  9 11  1  0  0  0  0
  9 15  1  0  0  0  0
  7  8  1  0  0  0  0
  7  9  1  0  0  0  0
 19 20  1  0  0  0  0
 19 21  1  0  0  0  0
 19 22  1  0  0  0  0
 17 18  1  0  0  0  0
 17 19  1  0  0  0  0
M  END
$$$$
default_name
  -OEChem-01062215323D

 22 21  0     1  0  0  0  0  0999 V2000
   -2.5423   -3.6749    0.8058 H   0  0  0  0  0  0  0  0  0  0  0  0
   -2.5063   -2.6779    0.3688 C   0  0  0  0  0  0  0  0  0  0  0  0
   -3.1603   -2.0109    0.9268 H   0  0  0  0  0  0  0  0  0  0  0  0
   -2.8193   -2.7229   -0.6722 H   0  0  0  0  0  0  0  0  0  0  0  0
   -1.0873   -2.1629    0.4418 C   0  0  0  0  0  0  0  0  0  0  0  0
   -0.2073   -2.8549    0.9368 O   0  0  0  0  0  0  0  0  0  0  0  0
   -0.8713   -0.9449   -0.0482 N   0  0  0  0  0  0  0  0  0  0  0  0
   -1.6543   -0.4189   -0.4062 H   0  0  0  0  0  0  0  0  0  0  0  0
    0.4237   -0.2649   -0.0462 C   0  0  1  0  0  0  0  0  0  0  0  0
    0.3858    0.5680   -0.7502 H   0  0  0  0  0  0  0  0  0  0  0  0
    0.6903    0.2958    1.3592 C   0  0  0  0  0  0  0  0  0  0  0  0
    0.7287   -0.5197    2.0834 H   0  0  0  0  0  0  0  0  0  0  0  0
    1.6385    0.8323    1.3734 H   0  0  0  0  0  0  0  0  0  0  0  0
   -0.1074    0.9864    1.6379 H   0  0  0  0  0  0  0  0  0  0  0  0
    1.5486   -1.2166   -0.4981 C   0  0  0  0  0  0  0  0  0  0  0  0
    2.6974   -1.0660   -0.0828 O   0  0  0  0  0  0  0  0  0  0  0  0
    1.2159   -2.1854   -1.3605 N   0  0  0  0  0  0  0  0  0  0  0  0
    0.2554   -2.2418   -1.6595 H   0  0  0  0  0  0  0  0  0  0  0  0
    2.1620   -3.1640   -1.8943 C   0  0  0  0  0  0  0  0  0  0  0  0
    2.6598   -3.6816   -1.0719 H   0  0  0  0  0  0  0  0  0  0  0  0
    1.6426   -3.8946   -2.5161 H   0  0  0  0  0  0  0  0  0  0  0  0
    2.9198   -2.6548   -2.4923 H   0  0  0  0  0  0  0  0  0  0  0  0
  5  6  2  0  0  0  0
  5  7  1  0  0  0  0
  2  3  1  0  0  0  0
  2  4  1  0  0  0  0
  2  5  1  0  0  0  0
  1  2  1  0  0  0  0
 15 16  2  0  0  0  0
 15 17  1  0  0  0  0
 11 12  1  0  0  0  0
 11 13  1  0  0  0  0
 11 14  1  0  0  0  0
  9 10  1  0  0  0  0
  9 11  1  0  0  0  0
  9 15  1  0  0  0  0
  7  8  1  0  0  0  0
  7  9  1  0  0  0  0
 19 20  1  0  0  0  0
 19 21  1  0  0  0  0
 19 22  1  0  0  0  0
 17 18  1  0  0  0  0
 17 19  1  0  0  0  0
M  END
$$$$
default_name
  -OEChem-01062215323D

 22 21  0     1  0  0  0  0  0999 V2000
   -2.5423   -3.6749    0.8058 H   0  0  0  0  0  0  0  0  0  0  0  0
   -2.5063   -2.6779    0.3688 C   0  0  0  0  0  0  0  0  0  0  0  0
   -3.1603   -2.0109    0.9268 H   0  0  0  0  0  0  0  0  0  0  0  0
   -2.8193   -2.7229   -0.6722 H   0  0  0  0  0  0  0  0  0  0  0  0
   -1.0873   -2.1629    0.4418 C   0  0  0  0  0  0  0  0  0  0  0  0
   -0.2073   -2.8549    0.9368 O   0  0  0  0  0  0  0  0  0  0  0  0
   -0.8713   -0.9449   -0.0482 N   0  0  0  0  0  0  0  0  0  0  0  0
   -1.6543   -0.4189   -0.4062 H   0  0  0  0  0  0  0  0  0  0  0  0
    0.4237   -0.2649   -0.0462 C   0  0  1  0  0  0  0  0  0  0  0  0
    0.3858    0.5680   -0.7502 H   0  0  0  0  0  0  0  0  0  0  0  0
    0.6903    0.2958    1.3592 C   0  0  0  0  0  0  0  0  0  0  0  0
    0.7287   -0.5197    2.0834 H   0  0  0  0  0  0  0  0  0  0  0  0
    1.6385    0.8323    1.3734 H   0  0  0  0  0  0  0  0  0  0  0  0
   -0.1074    0.9864    1.6379 H   0  0  0  0  0  0  0  0  0  0  0  0
    1.5486   -1.2166   -0.4981 C   0  0  0  0  0  0  0  0  0  0  0  0
    2.6188   -1.2499    0.1088 O   0  0  0  0  0  0  0  0  0  0  0  0
    1.3066   -1.9770   -1.5734 N   0  0  0  0  0  0  0  0  0  0  0  0
    0.4080   -1.8899   -2.0205 H   0  0  0  0  0  0  0  0  0  0  0  0
    2.2677   -2.9238   -2.1372 C   0  0  0  0  0  0  0  0  0  0  0  0
    2.5888   -3.6262   -1.3654 H   0  0  0  0  0  0  0  0  0  0  0  0
    1.8162   -3.4779   -2.9613 H   0  0  0  0  0  0  0  0  0  0  0  0
    3.1442   -2.3852   -2.5016 H   0  0  0  0  0  0  0  0  0  0  0  0
  5  6  2  0  0  0  0
  5  7  1  0  0  0  0
  2  3  1  0  0  0  0
  2  4  1  0  0  0  0
  2  5  1  0  0  0  0
  1  2  1  0  0  0  0
 15 16  2  0  0  0  0
 15 17  1  0  0  0  0
 11 12  1  0  0  0  0
 11 13  1  0  0  0  0
 11 14  1  0  0  0  0
  9 10  1  0  0  0  0
  9 11  1  0  0  0  0
  9 15  1  0  0  0  0
  7  8  1  0  0  0  0
  7  9  1  0  0  0  0
 19 20  1  0  0  0  0
 19 21  1  0  0  0  0
 19 22  1  0  0  0  0
 17 18  1  0  0  0  0
 17 19  1  0  0  0  0
M  END
$$$$
default_name
  -OEChem-01062215323D

 22 21  0     1  0  0  0  0  0999 V2000
   -2.5423   -3.6749    0.8058 H   0  0  0  0  0  0  0  0  0  0  0  0
   -2.5063   -2.6779    0.3688 C   0  0  0  0  0  0  0  0  0  0  0  0
   -3.1603   -2.0109    0.9268 H   0  0  0  0  0  0  0  0  0  0  0  0
   -2.8193   -2.7229   -0.6722 H   0  0  0  0  0  0  0  0  0  0  0  0
   -1.0873   -2.1629    0.4418 C   0  0  0  0  0  0  0  0  0  0  0  0
   -0.2073   -2.8549    0.9368 O   0  0  0  0  0  0  0  0  0  0  0  0
   -0.8713   -0.9449   -0.0482 N   0  0  0  0  0  0  0  0  0  0  0  0
   -1.6543   -0.4189   -0.4062 H   0  0  0  0  0  0  0  0  0  0  0  0
    0.4237   -0.2649   -0.0462 C   0  0  1  0  0  0  0  0  0  0  0  0
    0.3858    0.5680   -0.7502 H   0  0  0  0  0  0  0  0  0  0  0  0
    0.6903    0.2958    1.3592 C   0  0  0  0  0  0  0  0  0  0  0  0
    0.7287   -0.5197    2.0834 H   0  0  0  0  0  0  0  0  0  0  0  0
    1.6385    0.8323    1.3734 H   0  0  0  0  0  0  0  0  0  0  0  0
   -0.1074    0.9864    1.6379 H   0  0  0  0  0  0  0  0  0  0  0  0
    1.5486   -1.2166   -0.4981 C   0  0  0  0  0  0  0  0  0  0  0  0
    2.4984   -1.4577    0.2467 O   0  0  0  0  0  0  0  0  0  0  0  0
    1.4442   -1.7424   -1.7252 N   0  0  0  0  0  0  0  0  0  0  0  0
    0.6399   -1.4935   -2.2785 H   0  0  0  0  0  0  0  0  0  0  0  0
    2.4268   -2.6539   -2.3095 C   0  0  0  0  0  0  0  0  0  0  0  0
    2.5713   -3.5118   -1.6498 H   0  0  0  0  0  0  0  0  0  0  0  0
    2.0867   -3.0045   -3.2849 H   0  0  0  0  0  0  0  0  0  0  0  0
    3.3828   -2.1400   -2.4238 H   0  0  0  0  0  0  0  0  0  0  0  0
  5  6  2  0  0  0  0
  5  7  1  0  0  0  0
  2  3  1  0  0  0  0
  2  4  1  0  0  0  0
  2  5  1  0  0  0  0
  1  2  1  0  0  0  0
 15 16  2  0  0  0  0
 15 17  1  0  0  0  0
 11 12  1  0  0  0  0
 11 13  1  0  0  0  0
 11 14  1  0  0  0  0
  9 10  1  0  0  0  0
  9 11  1  0  0  0  0
  9 15  1  0  0  0  0
  7  8  1  0  0  0  0
  7  9  1  0  0  0  0
 19 20  1  0  0  0  0
 19 21  1  0  0  0  0
 19 22  1  0  0  0  0
 17 18  1  0  0  0  0
 17 19  1  0  0  0  0
M  END
$$$$
default_name
  -OEChem-01062215323D

 22 21  0     1  0  0  0  0  0999 V2000
   -2.5423   -3.6749    0.8058 H   0  0  0  0  0  0  0  0  0  0  0  0
   -2.5063   -2.6779    0.3688 C   0  0  0  0  0  0  0  0  0  0  0  0
   -3.1603   -2.0109    0.9268 H   0  0  0  0  0  0  0  0  0  0  0  0
   -2.8193   -2.7229   -0.6722 H   0  0  0  0  0  0  0  0  0  0  0  0
   -1.0873   -2.1629    0.4418 C   0  0  0  0  0  0  0  0  0  0  0  0
   -0.2073   -2.8549    0.9368 O   0  0  0  0  0  0  0  0  0  0  0  0
   -0.8713   -0.9449   -0.0482 N   0  0  0  0  0  0  0  0  0  0  0  0
   -1.6543   -0.4189   -0.4062 H   0  0  0  0  0  0  0  0  0  0  0  0
    0.4237   -0.2649   -0.0462 C   0  0  1  0  0  0  0  0  0  0  0  0
    0.3858    0.5680   -0.7502 H   0  0  0  0  0  0  0  0  0  0  0  0
    0.6903    0.2958    1.3592 C   0  0  0  0  0  0  0  0  0  0  0  0
    0.7287   -0.5197    2.0834 H   0  0  0  0  0  0  0  0  0  0  0  0
    1.6385    0.8323    1.3734 H   0  0  0  0  0  0  0  0  0  0  0  0
   -0.1074    0.9864    1.6379 H   0  0  0  0  0  0  0  0  0  0  0  0
    1.5486   -1.2166   -0.4981 C   0  0  0  0  0  0  0  0  0  0  0  0
    2.3442   -1.6754    0.3213 O   0  0  0  0  0  0  0  0  0  0  0  0
    1.6191   -1.4975   -1.8055 N   0  0  0  0  0  0  0  0  0  0  0  0
    0.9351   -1.0794   -2.4156 H   0  0  0  0  0  0  0  0  0  0  0  0
    2.6286   -2.3727   -2.3995 C   0  0  0  0  0  0  0  0  0  0  0  0
    2.6086   -3.3463   -1.9057 H   0  0  0  0  0  0  0  0  0  0  0  0
    2.4357   -2.5067   -3.4648 H   0  0  0  0  0  0  0  0  0  0  0  0
    3.6195   -1.9360   -2.2642 H   0  0  0  0  0  0  0  0  0  0  0  0
  5  6  2  0  0  0  0
  5  7  1  0  0  0  0
  2  3  1  0  0  0  0
  2  4  1  0  0  0  0
  2  5  1  0  0  0  0
  1  2  1  0  0  0  0
 15 16  2  0  0  0  0
 15 17  1  0  0  0  0
 11 12  1  0  0  0  0
 11 13  1  0  0  0  0
 11 14  1  0  0  0  0
  9 10  1  0  0  0  0
  9 11  1  0  0  0  0
  9 15  1  0  0  0  0
  7  8  1  0  0  0  0
  7  9  1  0  0  0  0
 19 20  1  0  0  0  0
 19 21  1  0  0  0  0
 19 22  1  0  0  0  0
 17 18  1  0  0  0  0
 17 19  1  0  0  0  0
M  END
$$$$
default_name
  -OEChem-01062215323D

 22 21  0     1  0  0  0  0  0999 V2000
   -2.5423   -3.6749    0.8058 H   0  0  0  0  0  0  0  0  0  0  0  0
   -2.5063   -2.6779    0.3688 C   0  0  0  0  0  0  0  0  0  0  0  0
   -3.1603   -2.0109    0.9268 H   0  0  0  0  0  0  0  0  0  0  0  0
   -2.8193   -2.7229   -0.6722 H   0  0  0  0  0  0  0  0  0  0  0  0
   -1.0873   -2.1629    0.4418 C   0  0  0  0  0  0  0  0  0  0  0  0
   -0.2073   -2.8549    0.9368 O   0  0  0  0  0  0  0  0  0  0  0  0
   -0.8713   -0.9449   -0.0482 N   0  0  0  0  0  0  0  0  0  0  0  0
   -1.6543   -0.4189   -0.4062 H   0  0  0  0  0  0  0  0  0  0  0  0
    0.4237   -0.2649   -0.0462 C   0  0  1  0  0  0  0  0  0  0  0  0
    0.3858    0.5680   -0.7502 H   0  0  0  0  0  0  0  0  0  0  0  0
    0.6903    0.2958    1.3592 C   0  0  0  0  0  0  0  0  0  0  0  0
    0.7287   -0.5197    2.0834 H   0  0  0  0  0  0  0  0  0  0  0  0
    1.6385    0.8323    1.3734 H   0  0  0  0  0  0  0  0  0  0  0  0
   -0.1074    0.9864    1.6379 H   0  0  0  0  0  0  0  0  0  0  0  0
    1.5486   -1.2166   -0.4981 C   0  0  0  0  0  0  0  0  0  0  0  0
    2.1668   -1.8881    0.3276 O   0  0  0  0  0  0  0  0  0  0  0  0
    1.8194   -1.2591   -1.8088 N   0  0  0  0  0  0  0  0  0  0  0  0
    1.2736   -0.6759   -2.4227 H   0  0  0  0  0  0  0  0  0  0  0  0
    2.8591   -2.0994   -2.4011 C   0  0  0  0  0  0  0  0  0  0  0  0
    2.6980   -3.1409   -2.1157 H   0  0  0  0  0  0  0  0  0  0  0  0
    2.8392   -2.0183   -3.4888 H   0  0  0  0  0  0  0  0  0  0  0  0
    3.8381   -1.7870   -2.0336 H   0  0  0  0  0  0  0  0  0  0  0  0
  5  6  2  0  0  0  0
  5  7  1  0  0  0  0
  2  3  1  0  0  0  0
  2  4  1  0  0  0  0
  2  5  1  0  0  0  0
  1  2  1  0  0  0  0
 15 16  2  0  0  0  0
 15 17  1  0  0  0  0
 11 12  1  0  0  0  0
 11 13  1  0  0  0  0
 11 14  1  0  0  0  0
  9 10  1  0  0  0  0
  9 11  1  0  0  0  0
  9 15  1  0  0  0  0
  7  8  1  0  0  0  0
  7  9  1  0  0  0  0
 19 20  1  0  0  0  0
 19 21  1  0  0  0  0
 19 22  1  0  0  0  0
 17 18  1  0  0  0  0
 17 19  1  0  0  0  0
M  END
$$$$
default_name
  -OEChem-01062215323D

 22 21  0     1  0  0  0  0  0999 V2000
   -2.5423   -3.6749    0.8058 H   0  0  0  0  0  0  0  0  0  0  0  0
   -2.5063   -2.6779    0.3688 C   0  0  0  0  0  0  0  0  0  0  0  0
   -3.1603   -2.0109    0.9268 H   0  0  0  0  0  0  0  0  0  0  0  0
   -2.8193   -2.7229   -0.6722 H   0  0  0  0  0  0  0  0  0  0  0  0
   -1.0873   -2.1629    0.4418 C   0  0  0  0  0  0  0  0  0  0  0  0
   -0.2073   -2.8549    0.9368 O   0  0  0  0  0  0  0  0  0  0  0  0
   -0.8713   -0.9449   -0.0482 N   0  0  0  0  0  0  0  0  0  0  0  0
   -1.6543   -0.4189   -0.4062 H   0  0  0  0  0  0  0  0  0  0  0  0
    0.4237   -0.2649   -0.0462 C   0  0  1  0  0  0  0  0  0  0  0  0
    0.3858    0.5680   -0.7502 H   0  0  0  0  0  0  0  0  0  0  0  0
    0.6903    0.2958    1.3592 C   0  0  0  0  0  0  0  0  0  0  0  0
    0.7287   -0.5197    2.0834 H   0  0  0  0  0  0  0  0  0  0  0  0
    1.6385    0.8323    1.3734 H   0  0  0  0  0  0  0  0  0  0  0  0
   -0.1074    0.9864    1.6379 H   0  0  0  0  0  0  0  0  0  0  0  0
    1.5486   -1.2166   -0.4981 C   0  0  0  0  0  0  0  0  0  0  0  0
    1.9783   -2.0812    0.2652 O   0  0  0  0  0  0  0  0  0  0  0  0
    2.0316   -1.0434   -1.7350 N   0  0  0  0  0  0  0  0  0  0  0  0
    1.6323   -0.3105   -2.2992 H   0  0  0  0  0  0  0  0  0  0  0  0
    3.1028   -1.8526   -2.3142 C   0  0  0  0  0  0  0  0  0  0  0  0
    2.8336   -2.9096   -2.2653 H   0  0  0  0  0  0  0  0  0  0  0  0
    3.2699   -1.5726   -3.3552 H   0  0  0  0  0  0  0  0  0  0  0  0
    4.0238   -1.7033   -1.7479 H   0  0  0  0  0  0  0  0  0  0  0  0
  5  6  2  0  0  0  0
  5  7  1  0  0  0  0
  2  3  1  0  0  0  0
  2  4  1  0  0  0  0
  2  5  1  0  0  0  0
  1  2  1  0  0  0  0
 15 16  2  0  0  0  0
 15 17  1  0  0  0  0
 11 12  1  0  0  0  0
 11 13  1  0  0  0  0
 11 14  1  0  0  0  0
  9 10  1  0  0  0  0
  9 11  1  0  0  0  0
  9 15  1  0  0  0  0
  7  8  1  0  0  0  0
  7  9  1  0  0  0  0
 19 20  1  0  0  0  0
 19 21  1  0  0  0  0
 19 22  1  0  0  0  0
 17 18  1  0  0  0  0
 17 19  1  0  0  0  0
M  END
$$$$
default_name
  -OEChem-01062215323D

 22 21  0     1  0  0  0  0  0999 V2000
   -2.5423   -3.6749    0.8058 H   0  0  0  0  0  0  0  0  0  0  0  0
   -2.5063   -2.6779    0.3688 C   0  0  0  0  0  0  0  0  0  0  0  0
   -3.1603   -2.0109    0.9268 H   0  0  0  0  0  0  0  0  0  0  0  0
   -2.8193   -2.7229   -0.6722 H   0  0  0  0  0  0  0  0  0  0  0  0
   -1.0873   -2.1629    0.4418 C   0  0  0  0  0  0  0  0  0  0  0  0
   -0.2073   -2.8549    0.9368 O   0  0  0  0  0  0  0  0  0  0  0  0
   -0.8713   -0.9449   -0.0482 N   0  0  0  0  0  0  0  0  0  0  0  0
   -1.6543   -0.4189   -0.4062 H   0  0  0  0  0  0  0  0  0  0  0  0
    0.4237   -0.2649   -0.0462 C   0  0  1  0  0  0  0  0  0  0  0  0
    0.3858    0.5680   -0.7502 H   0  0  0  0  0  0  0  0  0  0  0  0
    0.6903    0.2958    1.3592 C   0  0  0  0  0  0  0  0  0  0  0  0
    0.7287   -0.5197    2.0834 H   0  0  0  0  0  0  0  0  0  0  0  0
    1.6385    0.8323    1.3734 H   0  0  0  0  0  0  0  0  0  0  0  0
   -0.1074    0.9864    1.6379 H   0  0  0  0  0  0  0  0  0  0  0  0
    1.5486   -1.2166   -0.4981 C   0  0  0  0  0  0  0  0  0  0  0  0
    1.7916   -2.2417    0.1383 O   0  0  0  0  0  0  0  0  0  0  0  0
    2.2410   -0.8651   -1.5890 N   0  0  0  0  0  0  0  0  0  0  0  0
    1.9868   -0.0081   -2.0536 H   0  0  0  0  0  0  0  0  0  0  0  0
    3.3431   -1.6491   -2.1446 C   0  0  0  0  0  0  0  0  0  0  0  0
    3.0060   -2.6682   -2.3446 H   0  0  0  0  0  0  0  0  0  0  0  0
    3.6984   -1.2001   -3.0731 H   0  0  0  0  0  0  0  0  0  0  0  0
    4.1637   -1.6905   -1.4264 H   0  0  0  0  0  0  0  0  0  0  0  0
  5  6  2  0  0  0  0
  5  7  1  0  0  0  0
  2  3  1  0  0  0  0
  2  4  1  0  0  0  0
  2  5  1  0  0  0  0
  1  2  1  0  0  0  0
 15 16  2  0  0  0  0
 15 17  1  0  0  0  0
 11 12  1  0  0  0  0
 11 13  1  0  0  0  0
 11 14  1  0  0  0  0
  9 10  1  0  0  0  0
  9 11  1  0  0  0  0
  9 15  1  0  0  0  0
  7  8  1  0  0  0  0
  7  9  1  0  0  0  0
 19 20  1  0  0  0  0
 19 21  1  0  0  0  0
 19 22  1  0  0  0  0
 17 18  1  0  0  0  0
 17 19  1  0  0  0  0
M  END
$$$$
default_name
  -OEChem-01062215323D

 22 21  0     1  0  0  0  0  0999 V2000
   -2.5423   -3.6749    0.8058 H   0  0  0  0  0  0  0  0  0  0  0  0
   -2.5063   -2.6779    0.3688 C   0  0  0  0  0  0  0  0  0  0  0  0
   -3.1603   -2.0109    0.9268 H   0  0  0  0  0  0  0  0  0  0  0  0
   -2.8193   -2.7229   -0.6722 H   0  0  0  0  0  0  0  0  0  0  0  0
   -1.0873   -2.1629    0.4418 C   0  0  0  0  0  0  0  0  0  0  0  0
   -0.2073   -2.8549    0.9368 O   0  0  0  0  0  0  0  0  0  0  0  0
   -0.8713   -0.9449   -0.0482 N   0  0  0  0  0  0  0  0  0  0  0  0
   -1.6543   -0.4189   -0.4062 H   0  0  0  0  0  0  0  0  0  0  0  0
    0.4237   -0.2649   -0.0462 C   0  0  1  0  0  0  0  0  0  0  0  0
    0.3858    0.5680   -0.7502 H   0  0  0  0  0  0  0  0  0  0  0  0
    0.6903    0.2958    1.3592 C   0  0  0  0  0  0  0  0  0  0  0  0
    0.7287   -0.5197    2.0834 H   0  0  0  0  0  0  0  0  0  0  0  0
    1.6385    0.8323    1.3734 H   0  0  0  0  0  0  0  0  0  0  0  0
   -0.1074    0.9864    1.6379 H   0  0  0  0  0  0  0  0  0  0  0  0
    1.5486   -1.2166   -0.4981 C   0  0  0  0  0  0  0  0  0  0  0  0
    1.6193   -2.3585   -0.0444 O   0  0  0  0  0  0  0  0  0  0  0  0
    2.4336   -0.7363   -1.3808 N   0  0  0  0  0  0  0  0  0  0  0  0
    2.3130    0.2107   -1.7026 H   0  0  0  0  0  0  0  0  0  0  0  0
    3.5635   -1.5029   -1.9040 C   0  0  0  0  0  0  0  0  0  0  0  0
    3.2035   -2.4331   -2.3479 H   0  0  0  0  0  0  0  0  0  0  0  0
    4.0955   -0.9260   -2.6618 H   0  0  0  0  0  0  0  0  0  0  0  0
    4.2485   -1.7495   -1.0910 H   0  0  0  0  0  0  0  0  0  0  0  0
  5  6  2  0  0  0  0
  5  7  1  0  0  0  0
  2  3  1  0  0  0  0
  2  4  1  0  0  0  0
  2  5  1  0  0  0  0
  1  2  1  0  0  0  0
 15 16  2  0  0  0  0
 15 17  1  0  0  0  0
 11 12  1  0  0  0  0
 11 13  1  0  0  0  0
 11 14  1  0  0  0  0
  9 10  1  0  0  0  0
  9 11  1  0  0  0  0
  9 15  1  0  0  0  0
  7  8  1  0  0  0  0
  7  9  1  0  0  0  0
 19 20  1  0  0  0  0
 19 21  1  0  0  0  0
 19 22  1  0  0  0  0
 17 18  1  0  0  0  0
 17 19  1  0  0  0  0
M  END
$$$$
default_name
  -OEChem-01062215323D

 22 21  0     1  0  0  0  0  0999 V2000
   -2.5423   -3.6749    0.8058 H   0  0  0  0  0  0  0  0  0  0  0  0
   -2.5063   -2.6779    0.3688 C   0  0  0  0  0  0  0  0  0  0  0  0
   -3.1603   -2.0109    0.9268 H   0  0  0  0  0  0  0  0  0  0  0  0
   -2.8193   -2.7229   -0.6722 H   0  0  0  0  0  0  0  0  0  0  0  0
   -1.0873   -2.1629    0.4418 C   0  0  0  0  0  0  0  0  0  0  0  0
   -0.2073   -2.8549    0.9368 O   0  0  0  0  0  0  0  0  0  0  0  0
   -0.8713   -0.9449   -0.0482 N   0  0  0  0  0  0  0  0  0  0  0  0
   -1.6543   -0.4189   -0.4062 H   0  0  0  0  0  0  0  0  0  0  0  0
    0.4237   -0.2649   -0.0462 C   0  0  1  0  0  0  0  0  0  0  0  0
    0.3858    0.5680   -0.7502 H   0  0  0  0  0  0  0  0  0  0  0  0
    0.6903    0.2958    1.3592 C   0  0  0  0  0  0  0  0  0  0  0  0
    0.7287   -0.5197    2.0834 H   0  0  0  0  0  0  0  0  0  0  0  0
    1.6385    0.8323    1.3734 H   0  0  0  0  0  0  0  0  0  0  0  0
   -0.1074    0.9864    1.6379 H   0  0  0  0  0  0  0  0  0  0  0  0
    1.5486   -1.2166   -0.4981 C   0  0  0  0  0  0  0  0  0  0  0  0
    1.4733   -2.4238   -0.2705 O   0  0  0  0  0  0  0  0  0  0  0  0
    2.5961   -0.6659   -1.1247 N   0  0  0  0  0  0  0  0  0  0  0  0
    2.5885    0.3310   -1.2700 H   0  0  0  0  0  0  0  0  0  0  0  0
    3.7490   -1.4238   -1.6087 C   0  0  0  0  0  0  0  0  0  0  0  0
    3.4126   -2.2204   -2.2752 H   0  0  0  0  0  0  0  0  0  0  0  0
    4.4341   -0.7691   -2.1493 H   0  0  0  0  0  0  0  0  0  0  0  0
    4.2724   -1.8763   -0.7647 H   0  0  0  0  0  0  0  0  0  0  0  0
  5  6  2  0  0  0  0
  5  7  1  0  0  0  0
  2  3  1  0  0  0  0
  2  4  1  0  0  0  0
  2  5  1  0  0  0  0
  1  2  1  0  0  0  0
 15 16  2  0  0  0  0
 15 17  1  0  0  0  0
 11 12  1  0  0  0  0
 11 13  1  0  0  0  0
 11 14  1  0  0  0  0
  9 10  1  0  0  0  0
  9 11  1  0  0  0  0
  9 15  1  0  0  0  0
  7  8  1  0  0  0  0
  7  9  1  0  0  0  0
 19 20  1  0  0  0  0
 19 21  1  0  0  0  0
 19 22  1  0  0  0  0
 17 18  1  0  0  0  0
 17 19  1  0  0  0  0
M  END
$$$$
default_name
  -OEChem-01062215323D

 22 21  0     1  0  0  0  0  0999 V2000
   -2.5423   -3.6749    0.8058 H   0  0  0  0  0  0  0  0  0  0  0  0
   -2.5063   -2.6779    0.3688 C   0  0  0  0  0  0  0  0  0  0  0  0
   -3.1603   -2.0109    0.9268 H   0  0  0  0  0  0  0  0  0  0  0  0
   -2.8193   -2.7229   -0.6722 H   0  0  0  0  0  0  0  0  0  0  0  0
   -1.0873   -2.1629    0.4418 C   0  0  0  0  0  0  0  0  0  0  0  0
   -0.2073   -2.8549    0.9368 O   0  0  0  0  0  0  0  0  0  0  0  0
   -0.8713   -0.9449   -0.0482 N   0  0  0  0  0  0  0  0  0  0  0  0
   -1.6543   -0.4189   -0.4062 H   0  0  0  0  0  0  0  0  0  0  0  0
    0.4237   -0.2649   -0.0462 C   0  0  1  0  0  0  0  0  0  0  0  0
    0.3858    0.5680   -0.7502 H   0  0  0  0  0  0  0  0  0  0  0  0
    0.6903    0.2958    1.3592 C   0  0  0  0  0  0  0  0  0  0  0  0
    0.7287   -0.5197    2.0834 H   0  0  0  0  0  0  0  0  0  0  0  0
    1.6385    0.8323    1.3734 H   0  0  0  0  0  0  0  0  0  0  0  0
   -0.1074    0.9864    1.6379 H   0  0  0  0  0  0  0  0  0  0  0  0
    1.5486   -1.2166   -0.4981 C   0  0  0  0  0  0  0  0  0  0  0  0
    1.3634   -2.4331   -0.5246 O   0  0  0  0  0  0  0  0  0  0  0  0
    2.7175   -0.6586   -0.8380 N   0  0  0  0  0  0  0  0  0  0  0  0
    2.7946    0.3446   -0.7855 H   0  0  0  0  0  0  0  0  0  0  0  0
    3.8870   -1.4172   -1.2789 C   0  0  0  0  0  0  0  0  0  0  0  0
    3.6192   -2.0446   -2.1314 H   0  0  0  0  0  0  0  0  0  0  0  0
    4.6912   -0.7401   -1.5704 H   0  0  0  0  0  0  0  0  0  0  0  0
    4.2336   -2.0622   -0.4696 H   0  0  0  0  0  0  0  0  0  0  0  0
  5  6  2  0  0  0  0
  5  7  1  0  0  0  0
  2  3  1  0  0  0  0
  2  4  1  0  0  0  0
  2  5  1  0  0  0  0
  1  2  1  0  0  0  0
 15 16  2  0  0  0  0
 15 17  1  0  0  0  0
 11 12  1  0  0  0  0
 11 13  1  0  0  0  0
 11 14  1  0  0  0  0
  9 10  1  0  0  0  0
  9 11  1  0  0  0  0
  9 15  1  0  0  0  0
  7  8  1  0  0  0  0
  7  9  1  0  0  0  0
 19 20  1  0  0  0  0
 19 21  1  0  0  0  0
 19 22  1  0  0  0  0
 17 18  1  0  0  0  0
 17 19  1  0  0  0  0
M  END
$$$$
default_name
  -OEChem-01062215323D

 22 21  0     1  0  0  0  0  0999 V2000
   -2.5423   -3.6749    0.8058 H   0  0  0  0  0  0  0  0  0  0  0  0
   -2.5063   -2.6779    0.3688 C   0  0  0  0  0  0  0  0  0  0  0  0
   -3.1603   -2.0109    0.9268 H   0  0  0  0  0  0  0  0  0  0  0  0
   -2.8193   -2.7229   -0.6722 H   0  0  0  0  0  0  0  0  0  0  0  0
   -1.0873   -2.1629    0.4418 C   0  0  0  0  0  0  0  0  0  0  0  0
   -0.2073   -2.8549    0.9368 O   0  0  0  0  0  0  0  0  0  0  0  0
   -0.8713   -0.9449   -0.0482 N   0  0  0  0  0  0  0  0  0  0  0  0
   -1.6543   -0.4189   -0.4062 H   0  0  0  0  0  0  0  0  0  0  0  0
    0.4237   -0.2649   -0.0462 C   0  0  1  0  0  0  0  0  0  0  0  0
    0.3127    0.7065   -0.5308 H   0  0  0  0  0  0  0  0  0  0  0  0
    0.8652   -0.0374    1.4077 C   0  0  0  0  0  0  0  0  0  0  0  0
    0.9793   -0.9964    1.9157 H   0  0  0  0  0  0  0  0  0  0  0  0
    1.8154    0.4952    1.4303 H   0  0  0  0  0  0  0  0  0  0  0  0
    0.1163    0.5594    1.9311 H   0  0  0  0  0  0  0  0  0  0  0  0
    1.4729   -1.0715   -0.8361 C   0  0  0  0  0  0  0  0  0  0  0  0
    1.1722   -2.1462   -1.3551 O   0  0  0  0  0  0  0  0  0  0  0  0
    2.7064   -0.5557   -0.9111 N   0  0  0  0  0  0  0  0  0  0  0  0
    2.8776    0.3266   -0.4557 H   0  0  0  0  0  0  0  0  0  0  0  0
    3.8182   -1.1960   -1.6124 C   0  0  0  0  0  0  0  0  0  0  0  0
    3.5352   -1.3940   -2.6481 H   0  0  0  0  0  0  0  0  0  0  0  0
    4.6982   -0.5515   -1.5978 H   0  0  0  0  0  0  0  0  0  0  0  0
    4.0582   -2.1458   -1.1313 H   0  0  0  0  0  0  0  0  0  0  0  0
  5  6  2  0  0  0  0
  5  7  1  0  0  0  0
  2  3  1  0  0  0  0
  2  4  1  0  0  0  0
  2  5  1  0  0  0  0
  1  2  1  0  0  0  0
 15 16  2  0  0  0  0
 15 17  1  0  0  0  0
 11 12  1  0  0  0  0
 11 13  1  0  0  0  0
 11 14  1  0  0  0  0
  9 10  1  0  0  0  0
  9 11  1  0  0  0  0
  9 15  1  0  0  0  0
  7  8  1  0  0  0  0
  7  9  1  0  0  0  0
 19 20  1  0  0  0  0
 19 21  1  0  0  0  0
 19 22  1  0  0  0  0
 17 18  1  0  0  0  0
 17 19  1  0  0  0  0
M  END
$$$$
default_name
  -OEChem-01062215323D

 22 21  0     1  0  0  0  0  0999 V2000
   -2.5423   -3.6749    0.8058 H   0  0  0  0  0  0  0  0  0  0  0  0
   -2.5063   -2.6779    0.3688 C   0  0  0  0  0  0  0  0  0  0  0  0
   -3.1603   -2.0109    0.9268 H   0  0  0  0  0  0  0  0  0  0  0  0
   -2.8193   -2.7229   -0.6722 H   0  0  0  0  0  0  0  0  0  0  0  0
   -1.0873   -2.1629    0.4418 C   0  0  0  0  0  0  0  0  0  0  0  0
   -0.2073   -2.8549    0.9368 O   0  0  0  0  0  0  0  0  0  0  0  0
   -0.8713   -0.9449   -0.0482 N   0  0  0  0  0  0  0  0  0  0  0  0
   -1.6543   -0.4189   -0.4062 H   0  0  0  0  0  0  0  0  0  0  0  0
    0.4237   -0.2649   -0.0462 C   0  0  1  0  0  0  0  0  0  0  0  0
    0.3127    0.7065   -0.5308 H   0  0  0  0  0  0  0  0  0  0  0  0
    0.8652   -0.0374    1.4077 C   0  0  0  0  0  0  0  0  0  0  0  0
    0.9793   -0.9964    1.9157 H   0  0  0  0  0  0  0  0  0  0  0  0
    1.8154    0.4952    1.4303 H   0  0  0  0  0  0  0  0  0  0  0  0
    0.1163    0.5594    1.9311 H   0  0  0  0  0  0  0  0  0  0  0  0
    1.4729   -1.0715   -0.8361 C   0  0  0  0  0  0  0  0  0  0  0  0
    1.1247   -1.9894   -1.5784 O   0  0  0  0  0  0  0  0  0  0  0  0
    2.7570   -0.7345   -0.6612 N   0  0  0  0  0  0  0  0  0  0  0  0
    2.9643    0.0251   -0.0326 H   0  0  0  0  0  0  0  0  0  0  0  0
    3.8746   -1.4028   -1.3262 C   0  0  0  0  0  0  0  0  0  0  0  0
    3.7256   -1.3819   -2.4076 H   0  0  0  0  0  0  0  0  0  0  0  0
    4.8141   -0.9041   -1.0838 H   0  0  0  0  0  0  0  0  0  0  0  0
    3.9250   -2.4442   -1.0036 H   0  0  0  0  0  0  0  0  0  0  0  0
  5  6  2  0  0  0  0
  5  7  1  0  0  0  0
  2  3  1  0  0  0  0
  2  4  1  0  0  0  0
  2  5  1  0  0  0  0
  1  2  1  0  0  0  0
 15 16  2  0  0  0  0
 15 17  1  0  0  0  0
 11 12  1  0  0  0  0
 11 13  1  0  0  0  0
 11 14  1  0  0  0  0
  9 10  1  0  0  0  0
  9 11  1  0  0  0  0
  9 15  1  0  0  0  0
  7  8  1  0  0  0  0
  7  9  1  0  0  0  0
 19 20  1  0  0  0  0
 19 21  1  0  0  0  0
 19 22  1  0  0  0  0
 17 18  1  0  0  0  0
 17 19  1  0  0  0  0
M  END
$$$$
default_name
  -OEChem-01062215323D

 22 21  0     1  0  0  0  0  0999 V2000
   -2.5423   -3.6749    0.8058 H   0  0  0  0  0  0  0  0  0  0  0  0
   -2.5063   -2.6779    0.3688 C   0  0  0  0  0  0  0  0  0  0  0  0
   -3.1603   -2.0109    0.9268 H   0  0  0  0  0  0  0  0  0  0  0  0
   -2.8193   -2.7229   -0.6722 H   0  0  0  0  0  0  0  0  0  0  0  0
   -1.0873   -2.1629    0.4418 C   0  0  0  0  0  0  0  0  0  0  0  0
   -0.2073   -2.8549    0.9368 O   0  0  0  0  0  0  0  0  0  0  0  0
   -0.8713   -0.9449   -0.0482 N   0  0  0  0  0  0  0  0  0  0  0  0
   -1.6543   -0.4189   -0.4062 H   0  0  0  0  0  0  0  0  0  0  0  0
    0.4237   -0.2649   -0.0462 C   0  0  1  0  0  0  0  0  0  0  0  0
    0.3127    0.7065   -0.5308 H   0  0  0  0  0  0  0  0  0  0  0  0
    0.8652   -0.0374    1.4077 C   0  0  0  0  0  0  0  0  0  0  0  0
    0.9793   -0.9964    1.9157 H   0  0  0  0  0  0  0  0  0  0  0  0
    1.8154    0.4952    1.4303 H   0  0  0  0  0  0  0  0  0  0  0  0
    0.1163    0.5594    1.9311 H   0  0  0  0  0  0  0  0  0  0  0  0
    1.4729   -1.0715   -0.8361 C   0  0  0  0  0  0  0  0  0  0  0  0
    1.1298   -1.7922   -1.7729 O   0  0  0  0  0  0  0  0  0  0  0  0
    2.7484   -0.9580   -0.4445 N   0  0  0  0  0  0  0  0  0  0  0  0
    2.9508   -0.3522    0.3347 H   0  0  0  0  0  0  0  0  0  0  0  0
    3.8630   -1.6605   -1.0785 C   0  0  0  0  0  0  0  0  0  0  0  0
    3.8785   -1.4379   -2.1473 H   0  0  0  0  0  0  0  0  0  0  0  0
    4.8097   -1.3506   -0.6337 H   0  0  0  0  0  0  0  0  0  0  0  0
    3.7394   -2.7373   -0.9508 H   0  0  0  0  0  0  0  0  0  0  0  0
  5  6  2  0  0  0  0
  5  7  1  0  0  0  0
  2  3  1  0  0  0  0
  2  4  1  0  0  0  0
  2  5  1  0  0  0  0
  1  2  1  0  0  0  0
 15 16  2  0  0  0  0
 15 17  1  0  0  0  0
 11 12  1  0  0  0  0
 11 13  1  0  0  0  0
 11 14  1  0  0  0  0
  9 10  1  0  0  0  0
  9 11  1  0  0  0  0
  9 15  1  0  0  0  0
  7  8  1  0  0  0  0
  7  9  1  0  0  0  0
 19 20  1  0  0  0  0
 19 21  1  0  0  0  0
 19 22  1  0  0  0  0
 17 18  1  0  0  0  0
 17 19  1  0  0  0  0
M  END
$$$$
default_name
  -OEChem-01062215323D

 22 21  0     1  0  0  0  0  0999 V2000
   -2.5423   -3.6749    0.8058 H   0  0  0  0  0  0  0  0  0  0  0  0
   -2.5063   -2.6779    0.3688 C   0  0  0  0  0  0  0  0  0  0  0  0
   -3.1603   -2.0109    0.9268 H   0  0  0  0  0  0  0  0  0  0  0  0
   -2.8193   -2.7229   -0.6722 H   0  0  0  0  0  0  0  0  0  0  0  0
   -1.0873   -2.1629    0.4418 C   0  0  0  0  0  0  0  0  0  0  0  0
   -0.2073   -2.8549    0.9368 O   0  0  0  0  0  0  0  0  0  0  0  0
   -0.8713   -0.9449   -0.0482 N   0  0  0  0  0  0  0  0  0  0  0  0
   -1.6543   -0.4189   -0.4062 H   0  0  0  0  0  0  0  0  0  0  0  0
    0.4237   -0.2649   -0.0462 C   0  0  1  0  0  0  0  0  0  0  0  0
    0.3127    0.7065   -0.5308 H   0  0  0  0  0  0  0  0  0  0  0  0
    0.8652   -0.0374    1.4077 C   0  0  0  0  0  0  0  0  0  0  0  0
    0.9793   -0.9964    1.9157 H   0  0  0  0  0  0  0  0  0  0  0  0
    1.8154    0.4952    1.4303 H   0  0  0  0  0  0  0  0  0  0  0  0
    0.1163    0.5594    1.9311 H   0  0  0  0  0  0  0  0  0  0  0  0
    1.4729   -1.0715   -0.8361 C   0  0  0  0  0  0  0  0  0  0  0  0
    1.1872   -1.5682   -1.9254 O   0  0  0  0  0  0  0  0  0  0  0  0
    2.6811   -1.2109   -0.2757 N   0  0  0  0  0  0  0  0  0  0  0  0
    2.8380   -0.7796    0.6212 H   0  0  0  0  0  0  0  0  0  0  0  0
    3.7840   -1.9515   -0.8863 C   0  0  0  0  0  0  0  0  0  0  0  0
    3.9836   -1.5580   -1.8850 H   0  0  0  0  0  0  0  0  0  0  0  0
    4.6852   -1.8606   -0.2782 H   0  0  0  0  0  0  0  0  0  0  0  0
    3.5142   -3.0050   -0.9767 H   0  0  0  0  0  0  0  0  0  0  0  0
  5  6  2  0  0  0  0
  5  7  1  0  0  0  0
  2  3  1  0  0  0  0
  2  4  1  0  0  0  0
  2  5  1  0  0  0  0
  1  2  1  0  0  0  0
 15 16  2  0  0  0  0
 15 17  1  0  0  0  0
 11 12  1  0  0  0  0
 11 13  1  0  0  0  0
 11 14  1  0  0  0  0
  9 10  1  0  0  0  0
  9 11  1  0  0  0  0
  9 15  1  0  0  0  0
  7  8  1  0  0  0  0
  7  9  1  0  0  0  0
 19 20  1  0  0  0  0
 19 21  1  0  0  0  0
 19 22  1  0  0  0  0
 17 18  1  0  0  0  0
 17 19  1  0  0  0  0
M  END
$$$$
default_name
  -OEChem-01062215323D

 22 21  0     1  0  0  0  0  0999 V2000
   -2.5423   -3.6749    0.8058 H   0  0  0  0  0  0  0  0  0  0  0  0
   -2.5063   -2.6779    0.3688 C   0  0  0  0  0  0  0  0  0  0  0  0
   -3.1603   -2.0109    0.9268 H   0  0  0  0  0  0  0  0  0  0  0  0
   -2.8193   -2.7229   -0.6722 H   0  0  0  0  0  0  0  0  0  0  0  0
   -1.0873   -2.1629    0.4418 C   0  0  0  0  0  0  0  0  0  0  0  0
   -0.2073   -2.8549    0.9368 O   0  0  0  0  0  0  0  0  0  0  0  0
   -0.8713   -0.9449   -0.0482 N   0  0  0  0  0  0  0  0  0  0  0  0
   -1.6543   -0.4189   -0.4062 H   0  0  0  0  0  0  0  0  0  0  0  0
    0.4237   -0.2649   -0.0462 C   0  0  1  0  0  0  0  0  0  0  0  0
    0.3127    0.7065   -0.5308 H   0  0  0  0  0  0  0  0  0  0  0  0
    0.8652   -0.0374    1.4077 C   0  0  0  0  0  0  0  0  0  0  0  0
    0.9793   -0.9964    1.9157 H   0  0  0  0  0  0  0  0  0  0  0  0
    1.8154    0.4952    1.4303 H   0  0  0  0  0  0  0  0  0  0  0  0
    0.1163    0.5594    1.9311 H   0  0  0  0  0  0  0  0  0  0  0  0
    1.4729   -1.0715   -0.8361 C   0  0  0  0  0  0  0  0  0  0  0  0
    1.2931   -1.3326   -2.0254 O   0  0  0  0  0  0  0  0  0  0  0  0
    2.5596   -1.4760   -0.1663 N   0  0  0  0  0  0  0  0  0  0  0  0
    2.6335   -1.2279    0.8073 H   0  0  0  0  0  0  0  0  0  0  0  0
    3.6431   -2.2559   -0.7626 C   0  0  0  0  0  0  0  0  0  0  0  0
    4.0336   -1.7343   -1.6386 H   0  0  0  0  0  0  0  0  0  0  0  0
    4.4492   -2.3994   -0.0416 H   0  0  0  0  0  0  0  0  0  0  0  0
    3.2645   -3.2293   -1.0793 H   0  0  0  0  0  0  0  0  0  0  0  0
  5  6  2  0  0  0  0
  5  7  1  0  0  0  0
  2  3  1  0  0  0  0
  2  4  1  0  0  0  0
  2  5  1  0  0  0  0
  1  2  1  0  0  0  0
 15 16  2  0  0  0  0
 15 17  1  0  0  0  0
 11 12  1  0  0  0  0
 11 13  1  0  0  0  0
 11 14  1  0  0  0  0
  9 10  1  0  0  0  0
  9 11  1  0  0  0  0
  9 15  1  0  0  0  0
  7  8  1  0  0  0  0
  7  9  1  0  0  0  0
 19 20  1  0  0  0  0
 19 21  1  0  0  0  0
 19 22  1  0  0  0  0
 17 18  1  0  0  0  0
 17 19  1  0  0  0  0
M  END
$$$$
default_name
  -OEChem-01062215323D

 22 21  0     1  0  0  0  0  0999 V2000
   -2.5423   -3.6749    0.8058 H   0  0  0  0  0  0  0  0  0  0  0  0
   -2.5063   -2.6779    0.3688 C   0  0  0  0  0  0  0  0  0  0  0  0
   -3.1603   -2.0109    0.9268 H   0  0  0  0  0  0  0  0  0  0  0  0
   -2.8193   -2.7229   -0.6722 H   0  0  0  0  0  0  0  0  0  0  0  0
   -1.0873   -2.1629    0.4418 C   0  0  0  0  0  0  0  0  0  0  0  0
   -0.2073   -2.8549    0.9368 O   0  0  0  0  0  0  0  0  0  0  0  0
   -0.8713   -0.9449   -0.0482 N   0  0  0  0  0  0  0  0  0  0  0  0
   -1.6543   -0.4189   -0.4062 H   0  0  0  0  0  0  0  0  0  0  0  0
    0.4237   -0.2649   -0.0462 C   0  0  1  0  0  0  0  0  0  0  0  0
    0.3127    0.7065   -0.5308 H   0  0  0  0  0  0  0  0  0  0  0  0
    0.8652   -0.0374    1.4077 C   0  0  0  0  0  0  0  0  0  0  0  0
    0.9793   -0.9964    1.9157 H   0  0  0  0  0  0  0  0  0  0  0  0
    1.8154    0.4952    1.4303 H   0  0  0  0  0  0  0  0  0  0  0  0
    0.1163    0.5594    1.9311 H   0  0  0  0  0  0  0  0  0  0  0  0
    1.4729   -1.0715   -0.8361 C   0  0  0  0  0  0  0  0  0  0  0  0
    1.4401   -1.1014   -2.0661 O   0  0  0  0  0  0  0  0  0  0  0  0
    2.3923   -1.7352   -0.1239 N   0  0  0  0  0  0  0  0  0  0  0  0
    2.3513   -1.6666    0.8804 H   0  0  0  0  0  0  0  0  0  0  0  0
    3.4499   -2.5531   -0.7158 C   0  0  0  0  0  0  0  0  0  0  0  0
    4.0252   -1.9546   -1.4249 H   0  0  0  0  0  0  0  0  0  0  0  0
    4.1177   -2.9302    0.0601 H   0  0  0  0  0  0  0  0  0  0  0  0
    3.0076   -3.3947   -1.2517 H   0  0  0  0  0  0  0  0  0  0  0  0
  5  6  2  0  0  0  0
  5  7  1  0  0  0  0
  2  3  1  0  0  0  0
  2  4  1  0  0  0  0
  2  5  1  0  0  0  0
  1  2  1  0  0  0  0
 15 16  2  0  0  0  0
 15 17  1  0  0  0  0
 11 12  1  0  0  0  0
 11 13  1  0  0  0  0
 11 14  1  0  0  0  0
  9 10  1  0  0  0  0
  9 11  1  0  0  0  0
  9 15  1  0  0  0  0
  7  8  1  0  0  0  0
  7  9  1  0  0  0  0
 19 20  1  0  0  0  0
 19 21  1  0  0  0  0
 19 22  1  0  0  0  0
 17 18  1  0  0  0  0
 17 19  1  0  0  0  0
M  END
$$$$
default_name
  -OEChem-01062215323D

 22 21  0     1  0  0  0  0  0999 V2000
   -2.5423   -3.6749    0.8058 H   0  0  0  0  0  0  0  0  0  0  0  0
   -2.5063   -2.6779    0.3688 C   0  0  0  0  0  0  0  0  0  0  0  0
   -3.1603   -2.0109    0.9268 H   0  0  0  0  0  0  0  0  0  0  0  0
   -2.8193   -2.7229   -0.6722 H   0  0  0  0  0  0  0  0  0  0  0  0
   -1.0873   -2.1629    0.4418 C   0  0  0  0  0  0  0  0  0  0  0  0
   -0.2073   -2.8549    0.9368 O   0  0  0  0  0  0  0  0  0  0  0  0
   -0.8713   -0.9449   -0.0482 N   0  0  0  0  0  0  0  0  0  0  0  0
   -1.6543   -0.4189   -0.4062 H   0  0  0  0  0  0  0  0  0  0  0  0
    0.4237   -0.2649   -0.0462 C   0  0  1  0  0  0  0  0  0  0  0  0
    0.3127    0.7065   -0.5308 H   0  0  0  0  0  0  0  0  0  0  0  0
    0.8652   -0.0374    1.4077 C   0  0  0  0  0  0  0  0  0  0  0  0
    0.9793   -0.9964    1.9157 H   0  0  0  0  0  0  0  0  0  0  0  0
    1.8154    0.4952    1.4303 H   0  0  0  0  0  0  0  0  0  0  0  0
    0.1163    0.5594    1.9311 H   0  0  0  0  0  0  0  0  0  0  0  0
    1.4729   -1.0715   -0.8361 C   0  0  0  0  0  0  0  0  0  0  0  0
    1.6183   -0.8904   -2.0448 O   0  0  0  0  0  0  0  0  0  0  0  0
    2.1906   -1.9708   -0.1512 N   0  0  0  0  0  0  0  0  0  0  0  0
    2.0106   -2.0658    0.8355 H   0  0  0  0  0  0  0  0  0  0  0  0
    3.2175   -2.8228   -0.7492 C   0  0  0  0  0  0  0  0  0  0  0  0
    3.9588   -2.2039   -1.2585 H   0  0  0  0  0  0  0  0  0  0  0  0
    3.7133   -3.4168    0.0198 H   0  0  0  0  0  0  0  0  0  0  0  0
    2.7608   -3.4899   -1.4822 H   0  0  0  0  0  0  0  0  0  0  0  0
  5  6  2  0  0  0  0
  5  7  1  0  0  0  0
  2  3  1  0  0  0  0
  2  4  1  0  0  0  0
  2  5  1  0  0  0  0
  1  2  1  0  0  0  0
 15 16  2  0  0  0  0
 15 17  1  0  0  0  0
 11 12  1  0  0  0  0
 11 13  1  0  0  0  0
 11 14  1  0  0  0  0
  9 10  1  0  0  0  0
  9 11  1  0  0  0  0
  9 15  1  0  0  0  0
  7  8  1  0  0  0  0
  7  9  1  0  0  0  0
 19 20  1  0  0  0  0
 19 21  1  0  0  0  0
 19 22  1  0  0  0  0
 17 18  1  0  0  0  0
 17 19  1  0  0  0  0
M  END
$$$$
default_name
  -OEChem-01062215323D

 22 21  0     1  0  0  0  0  0999 V2000
   -2.5423   -3.6749    0.8058 H   0  0  0  0  0  0  0  0  0  0  0  0
   -2.5063   -2.6779    0.3688 C   0  0  0  0  0  0  0  0  0  0  0  0
   -3.1603   -2.0109    0.9268 H   0  0  0  0  0  0  0  0  0  0  0  0
   -2.8193   -2.7229   -0.6722 H   0  0  0  0  0  0  0  0  0  0  0  0
   -1.0873   -2.1629    0.4418 C   0  0  0  0  0  0  0  0  0  0  0  0
   -0.2073   -2.8549    0.9368 O   0  0  0  0  0  0  0  0  0  0  0  0
   -0.8713   -0.9449   -0.0482 N   0  0  0  0  0  0  0  0  0  0  0  0
   -1.6543   -0.4189   -0.4062 H   0  0  0  0  0  0  0  0  0  0  0  0
    0.4237   -0.2649   -0.0462 C   0  0  1  0  0  0  0  0  0  0  0  0
    0.3127    0.7065   -0.5308 H   0  0  0  0  0  0  0  0  0  0  0  0
    0.8652   -0.0374    1.4077 C   0  0  0  0  0  0  0  0  0  0  0  0
    0.9793   -0.9964    1.9157 H   0  0  0  0  0  0  0  0  0  0  0  0
    1.8154    0.4952    1.4303 H   0  0  0  0  0  0  0  0  0  0  0  0
    0.1163    0.5594    1.9311 H   0  0  0  0  0  0  0  0  0  0  0  0
    1.4729   -1.0715   -0.8361 C   0  0  0  0  0  0  0  0  0  0  0  0
    1.8156   -0.7140   -1.9629 O   0  0  0  0  0  0  0  0  0  0  0  0
    1.9682   -2.1669   -0.2464 N   0  0  0  0  0  0  0  0  0  0  0  0
    1.6346   -2.3983    0.6757 H   0  0  0  0  0  0  0  0  0  0  0  0
    2.9617   -3.0466   -0.8604 C   0  0  0  0  0  0  0  0  0  0  0  0
    3.8391   -2.4652   -1.1506 H   0  0  0  0  0  0  0  0  0  0  0  0
    3.2636   -3.8262   -0.1595 H   0  0  0  0  0  0  0  0  0  0  0  0
    2.5410   -3.5086   -1.7551 H   0  0  0  0  0  0  0  0  0  0  0  0
  5  6  2  0  0  0  0
  5  7  1  0  0  0  0
  2  3  1  0  0  0  0
  2  4  1  0  0  0  0
  2  5  1  0  0  0  0
  1  2  1  0  0  0  0
 15 16  2  0  0  0  0
 15 17  1  0  0  0  0
 11 12  1  0  0  0  0
 11 13  1  0  0  0  0
 11 14  1  0  0  0  0
  9 10  1  0  0  0  0
  9 11  1  0  0  0  0
  9 15  1  0  0  0  0
  7  8  1  0  0  0  0
  7  9  1  0  0  0  0
 19 20  1  0  0  0  0
 19 21  1  0  0  0  0
 19 22  1  0  0  0  0
 17 18  1  0  0  0  0
 17 19  1  0  0  0  0
M  END
$$$$
default_name
  -OEChem-01062215323D

 22 21  0     1  0  0  0  0  0999 V2000
   -2.5423   -3.6749    0.8058 H   0  0  0  0  0  0  0  0  0  0  0  0
   -2.5063   -2.6779    0.3688 C   0  0  0  0  0  0  0  0  0  0  0  0
   -3.1603   -2.0109    0.9268 H   0  0  0  0  0  0  0  0  0  0  0  0
   -2.8193   -2.7229   -0.6722 H   0  0  0  0  0  0  0  0  0  0  0  0
   -1.0873   -2.1629    0.4418 C   0  0  0  0  0  0  0  0  0  0  0  0
   -0.2073   -2.8549    0.9368 O   0  0  0  0  0  0  0  0  0  0  0  0
   -0.8713   -0.9449   -0.0482 N   0  0  0  0  0  0  0  0  0  0  0  0
   -1.6543   -0.4189   -0.4062 H   0  0  0  0  0  0  0  0  0  0  0  0
    0.4237   -0.2649   -0.0462 C   0  0  1  0  0  0  0  0  0  0  0  0
    0.3127    0.7065   -0.5308 H   0  0  0  0  0  0  0  0  0  0  0  0
    0.8652   -0.0374    1.4077 C   0  0  0  0  0  0  0  0  0  0  0  0
    0.9793   -0.9964    1.9157 H   0  0  0  0  0  0  0  0  0  0  0  0
    1.8154    0.4952    1.4303 H   0  0  0  0  0  0  0  0  0  0  0  0
    0.1163    0.5594    1.9311 H   0  0  0  0  0  0  0  0  0  0  0  0
    1.4729   -1.0715   -0.8361 C   0  0  0  0  0  0  0  0  0  0  0  0
    2.0184   -0.5843   -1.8260 O   0  0  0  0  0  0  0  0  0  0  0  0
    1.7402   -2.3100   -0.4031 N   0  0  0  0  0  0  0  0  0  0  0  0
    1.2491   -2.6415    0.4117 H   0  0  0  0  0  0  0  0  0  0  0  0
    2.7000   -3.2092   -1.0419 C   0  0  0  0  0  0  0  0  0  0  0  0
    3.6743   -2.7208   -1.1086 H   0  0  0  0  0  0  0  0  0  0  0  0
    2.7992   -4.1303   -0.4658 H   0  0  0  0  0  0  0  0  0  0  0  0
    2.3632   -3.4494   -2.0518 H   0  0  0  0  0  0  0  0  0  0  0  0
  5  6  2  0  0  0  0
  5  7  1  0  0  0  0
  2  3  1  0  0  0  0
  2  4  1  0  0  0  0
  2  5  1  0  0  0  0
  1  2  1  0  0  0  0
 15 16  2  0  0  0  0
 15 17  1  0  0  0  0
 11 12  1  0  0  0  0
 11 13  1  0  0  0  0
 11 14  1  0  0  0  0
  9 10  1  0  0  0  0
  9 11  1  0  0  0  0
  9 15  1  0  0  0  0
  7  8  1  0  0  0  0
  7  9  1  0  0  0  0
 19 20  1  0  0  0  0
 19 21  1  0  0  0  0
 19 22  1  0  0  0  0
 17 18  1  0  0  0  0
 17 19  1  0  0  0  0
M  END
$$$$
default_name
  -OEChem-01062215323D

 22 21  0     1  0  0  0  0  0999 V2000
   -2.5423   -3.6749    0.8058 H   0  0  0  0  0  0  0  0  0  0  0  0
   -2.5063   -2.6779    0.3688 C   0  0  0  0  0  0  0  0  0  0  0  0
   -3.1603   -2.0109    0.9268 H   0  0  0  0  0  0  0  0  0  0  0  0
   -2.8193   -2.7229   -0.6722 H   0  0  0  0  0  0  0  0  0  0  0  0
   -1.0873   -2.1629    0.4418 C   0  0  0  0  0  0  0  0  0  0  0  0
   -0.2073   -2.8549    0.9368 O   0  0  0  0  0  0  0  0  0  0  0  0
   -0.8713   -0.9449   -0.0482 N   0  0  0  0  0  0  0  0  0  0  0  0
   -1.6543   -0.4189   -0.4062 H   0  0  0  0  0  0  0  0  0  0  0  0
    0.4237   -0.2649   -0.0462 C   0  0  1  0  0  0  0  0  0  0  0  0
    0.3127    0.7065   -0.5308 H   0  0  0  0  0  0  0  0  0  0  0  0
    0.8652   -0.0374    1.4077 C   0  0  0  0  0  0  0  0  0  0  0  0
    0.9793   -0.9964    1.9157 H   0  0  0  0  0  0  0  0  0  0  0  0
    1.8154    0.4952    1.4303 H   0  0  0  0  0  0  0  0  0  0  0  0
    0.1163    0.5594    1.9311 H   0  0  0  0  0  0  0  0  0  0  0  0
    1.4729   -1.0715   -0.8361 C   0  0  0  0  0  0  0  0  0  0  0  0
    2.2130   -0.5099   -1.6435 O   0  0  0  0  0  0  0  0  0  0  0  0
    1.5223   -2.3904   -0.6105 N   0  0  0  0  0  0  0  0  0  0  0  0
    0.8801   -2.7787    0.0617 H   0  0  0  0  0  0  0  0  0  0  0  0
    2.4503   -3.2996   -1.2813 C   0  0  0  0  0  0  0  0  0  0  0  0
    3.4754   -2.9532   -1.1355 H   0  0  0  0  0  0  0  0  0  0  0  0
    2.3518   -4.3085   -0.8782 H   0  0  0  0  0  0  0  0  0  0  0  0
    2.2394   -3.3164   -2.3520 H   0  0  0  0  0  0  0  0  0  0  0  0
  5  6  2  0  0  0  0
  5  7  1  0  0  0  0
  2  3  1  0  0  0  0
  2  4  1  0  0  0  0
  2  5  1  0  0  0  0
  1  2  1  0  0  0  0
 15 16  2  0  0  0  0
 15 17  1  0  0  0  0
 11 12  1  0  0  0  0
 11 13  1  0  0  0  0
 11 14  1  0  0  0  0
  9 10  1  0  0  0  0
  9 11  1  0  0  0  0
  9 15  1  0  0  0  0
  7  8  1  0  0  0  0
  7  9  1  0  0  0  0
 19 20  1  0  0  0  0
 19 21  1  0  0  0  0
 19 22  1  0  0  0  0
 17 18  1  0  0  0  0
 17 19  1  0  0  0  0
M  END
$$$$
default_name
  -OEChem-01062215323D

 22 21  0     1  0  0  0  0  0999 V2000
   -2.5423   -3.6749    0.8058 H   0  0  0  0  0  0  0  0  0  0  0  0
   -2.5063   -2.6779    0.3688 C   0  0  0  0  0  0  0  0  0  0  0  0
   -3.1603   -2.0109    0.9268 H   0  0  0  0  0  0  0  0  0  0  0  0
   -2.8193   -2.7229   -0.6722 H   0  0  0  0  0  0  0  0  0  0  0  0
   -1.0873   -2.1629    0.4418 C   0  0  0  0  0  0  0  0  0  0  0  0
   -0.2073   -2.8549    0.9368 O   0  0  0  0  0  0  0  0  0  0  0  0
   -0.8713   -0.9449   -0.0482 N   0  0  0  0  0  0  0  0  0  0  0  0
   -1.6543   -0.4189   -0.4062 H   0  0  0  0  0  0  0  0  0  0  0  0
    0.4237   -0.2649   -0.0462 C   0  0  1  0  0  0  0  0  0  0  0  0
    0.3127    0.7065   -0.5308 H   0  0  0  0  0  0  0  0  0  0  0  0
    0.8652   -0.0374    1.4077 C   0  0  0  0  0  0  0  0  0  0  0  0
    0.9793   -0.9964    1.9157 H   0  0  0  0  0  0  0  0  0  0  0  0
    1.8154    0.4952    1.4303 H   0  0  0  0  0  0  0  0  0  0  0  0
    0.1163    0.5594    1.9311 H   0  0  0  0  0  0  0  0  0  0  0  0
    1.4729   -1.0715   -0.8361 C   0  0  0  0  0  0  0  0  0  0  0  0
    2.3861   -0.4961   -1.4277 O   0  0  0  0  0  0  0  0  0  0  0  0
    1.3292   -2.4026   -0.8545 N   0  0  0  0  0  0  0  0  0  0  0  0
    0.5529   -2.8006   -0.3505 H   0  0  0  0  0  0  0  0  0  0  0  0
    2.2295   -3.3116   -1.5623 C   0  0  0  0  0  0  0  0  0  0  0  0
    3.2561   -3.1465   -1.2293 H   0  0  0  0  0  0  0  0  0  0  0  0
    1.9518   -4.3486   -1.3685 H   0  0  0  0  0  0  0  0  0  0  0  0
    2.1782   -3.1186   -2.6352 H   0  0  0  0  0  0  0  0  0  0  0  0
  5  6  2  0  0  0  0
  5  7  1  0  0  0  0
  2  3  1  0  0  0  0
  2  4  1  0  0  0  0
  2  5  1  0  0  0  0
  1  2  1  0  0  0  0
 15 16  2  0  0  0  0
 15 17  1  0  0  0  0
 11 12  1  0  0  0  0
 11 13  1  0  0  0  0
 11 14  1  0  0  0  0
  9 10  1  0  0  0  0
  9 11  1  0  0  0  0
  9 15  1  0  0  0  0
  7  8  1  0  0  0  0
  7  9  1  0  0  0  0
 19 20  1  0  0  0  0
 19 21  1  0  0  0  0
 19 22  1  0  0  0  0
 17 18  1  0  0  0  0
 17 19  1  0  0  0  0
M  END
$$$$
default_name
  -OEChem-01062215323D

 22 21  0     1  0  0  0  0  0999 V2000
   -2.5423   -3.6749    0.8058 H   0  0  0  0  0  0  0  0  0  0  0  0
   -2.5063   -2.6779    0.3688 C   0  0  0  0  0  0  0  0  0  0  0  0
   -3.1603   -2.0109    0.9268 H   0  0  0  0  0  0  0  0  0  0  0  0
   -2.8193   -2.7229   -0.6722 H   0  0  0  0  0  0  0  0  0  0  0  0
   -1.0873   -2.1629    0.4418 C   0  0  0  0  0  0  0  0  0  0  0  0
   -0.2073   -2.8549    0.9368 O   0  0  0  0  0  0  0  0  0  0  0  0
   -0.8713   -0.9449   -0.0482 N   0  0  0  0  0  0  0  0  0  0  0  0
   -1.6543   -0.4189   -0.4062 H   0  0  0  0  0  0  0  0  0  0  0  0
    0.4237   -0.2649   -0.0462 C   0  0  1  0  0  0  0  0  0  0  0  0
    0.3127    0.7065   -0.5308 H   0  0  0  0  0  0  0  0  0  0  0  0
    0.8652   -0.0374    1.4077 C   0  0  0  0  0  0  0  0  0  0  0  0
    0.9793   -0.9964    1.9157 H   0  0  0  0  0  0  0  0  0  0  0  0
    1.8154    0.4952    1.4303 H   0  0  0  0  0  0  0  0  0  0  0  0
    0.1163    0.5594    1.9311 H   0  0  0  0  0  0  0  0  0  0  0  0
    1.4729   -1.0715   -0.8361 C   0  0  0  0  0  0  0  0  0  0  0  0
    2.5259   -0.5437   -1.1933 O   0  0  0  0  0  0  0  0  0  0  0  0
    1.1741   -2.3458   -1.1185 N   0  0  0  0  0  0  0  0  0  0  0  0
    0.2898   -2.7057   -0.7968 H   0  0  0  0  0  0  0  0  0  0  0  0
    2.0527   -3.2444   -1.8658 C   0  0  0  0  0  0  0  0  0  0  0  0
    3.0314   -3.2877   -1.3837 H   0  0  0  0  0  0  0  0  0  0  0  0
    1.6266   -4.2480   -1.9033 H   0  0  0  0  0  0  0  0  0  0  0  0
    2.1837   -2.8695   -2.8823 H   0  0  0  0  0  0  0  0  0  0  0  0
  5  6  2  0  0  0  0
  5  7  1  0  0  0  0
  2  3  1  0  0  0  0
  2  4  1  0  0  0  0
  2  5  1  0  0  0  0
  1  2  1  0  0  0  0
 15 16  2  0  0  0  0
 15 17  1  0  0  0  0
 11 12  1  0  0  0  0
 11 13  1  0  0  0  0
 11 14  1  0  0  0  0
  9 10  1  0  0  0  0
  9 11  1  0  0  0  0
  9 15  1  0  0  0  0
  7  8  1  0  0  0  0
  7  9  1  0  0  0  0
 19 20  1  0  0  0  0
 19 21  1  0  0  0  0
 19 22  1  0  0  0  0
 17 18  1  0  0  0  0
 17 19  1  0  0  0  0
M  END
$$$$
default_name
  -OEChem-01062215323D

 22 21  0     1  0  0  0  0  0999 V2000
   -2.5423   -3.6749    0.8058 H   0  0  0  0  0  0  0  0  0  0  0  0
   -2.5063   -2.6779    0.3688 C   0  0  0  0  0  0  0  0  0  0  0  0
   -3.1603   -2.0109    0.9268 H   0  0  0  0  0  0  0  0  0  0  0  0
   -2.8193   -2.7229   -0.6722 H   0  0  0  0  0  0  0  0  0  0  0  0
   -1.0873   -2.1629    0.4418 C   0  0  0  0  0  0  0  0  0  0  0  0
   -0.2073   -2.8549    0.9368 O   0  0  0  0  0  0  0  0  0  0  0  0
   -0.8713   -0.9449   -0.0482 N   0  0  0  0  0  0  0  0  0  0  0  0
   -1.6543   -0.4189   -0.4062 H   0  0  0  0  0  0  0  0  0  0  0  0
    0.4237   -0.2649   -0.0462 C   0  0  1  0  0  0  0  0  0  0  0  0
    0.3127    0.7065   -0.5308 H   0  0  0  0  0  0  0  0  0  0  0  0
    0.8652   -0.0374    1.4077 C   0  0  0  0  0  0  0  0  0  0  0  0
    0.9793   -0.9964    1.9157 H   0  0  0  0  0  0  0  0  0  0  0  0
    1.8154    0.4952    1.4303 H   0  0  0  0  0  0  0  0  0  0  0  0
    0.1163    0.5594    1.9311 H   0  0  0  0  0  0  0  0  0  0  0  0
    1.4729   -1.0715   -0.8361 C   0  0  0  0  0  0  0  0  0  0  0  0
    2.6229   -0.6495   -0.9565 O   0  0  0  0  0  0  0  0  0  0  0  0
    1.0676   -2.2238   -1.3845 N   0  0  0  0  0  0  0  0  0  0  0  0
    0.1087   -2.5005   -1.2469 H   0  0  0  0  0  0  0  0  0  0  0  0
    1.9320   -3.1026   -2.1710 C   0  0  0  0  0  0  0  0  0  0  0  0
    2.8165   -3.3670   -1.5881 H   0  0  0  0  0  0  0  0  0  0  0  0
    1.3982   -4.0133   -2.4463 H   0  0  0  0  0  0  0  0  0  0  0  0
    2.2555   -2.5861   -3.0763 H   0  0  0  0  0  0  0  0  0  0  0  0
  5  6  2  0  0  0  0
  5  7  1  0  0  0  0
  2  3  1  0  0  0  0
  2  4  1  0  0  0  0
  2  5  1  0  0  0  0
  1  2  1  0  0  0  0
 15 16  2  0  0  0  0
 15 17  1  0  0  0  0
 11 12  1  0  0  0  0
 11 13  1  0  0  0  0
 11 14  1  0  0  0  0
  9 10  1  0  0  0  0
  9 11  1  0  0  0  0
  9 15  1  0  0  0  0
  7  8  1  0  0  0  0
  7  9  1  0  0  0  0
 19 20  1  0  0  0  0
 19 21  1  0  0  0  0
 19 22  1  0  0  0  0
 17 18  1  0  0  0  0
 17 19  1  0  0  0  0
M  END
$$$$
default_name
  -OEChem-01062215323D

 22 21  0     1  0  0  0  0  0999 V2000
   -2.5423   -3.6749    0.8058 H   0  0  0  0  0  0  0  0  0  0  0  0
   -2.5063   -2.6779    0.3688 C   0  0  0  0  0  0  0  0  0  0  0  0
   -3.1603   -2.0109    0.9268 H   0  0  0  0  0  0  0  0  0  0  0  0
   -2.8193   -2.7229   -0.6722 H   0  0  0  0  0  0  0  0  0  0  0  0
   -1.0873   -2.1629    0.4418 C   0  0  0  0  0  0  0  0  0  0  0  0
   -0.2073   -2.8549    0.9368 O   0  0  0  0  0  0  0  0  0  0  0  0
   -0.8713   -0.9449   -0.0482 N   0  0  0  0  0  0  0  0  0  0  0  0
   -1.6543   -0.4189   -0.4062 H   0  0  0  0  0  0  0  0  0  0  0  0
    0.4237   -0.2649   -0.0462 C   0  0  1  0  0  0  0  0  0  0  0  0
    0.3127    0.7065   -0.5308 H   0  0  0  0  0  0  0  0  0  0  0  0
    0.8652   -0.0374    1.4077 C   0  0  0  0  0  0  0  0  0  0  0  0
    0.9793   -0.9964    1.9157 H   0  0  0  0  0  0  0  0  0  0  0  0
    1.8154    0.4952    1.4303 H   0  0  0  0  0  0  0  0  0  0  0  0
    0.1163    0.5594    1.9311 H   0  0  0  0  0  0  0  0  0  0  0  0
    1.4729   -1.0715   -0.8361 C   0  0  0  0  0  0  0  0  0  0  0  0
    2.6704   -0.8064   -0.7332 O   0  0  0  0  0  0  0  0  0  0  0  0
    1.0169   -2.0450   -1.6344 N   0  0  0  0  0  0  0  0  0  0  0  0
    0.0219   -2.1990   -1.6700 H   0  0  0  0  0  0  0  0  0  0  0  0
    1.8755   -2.8958   -2.4572 C   0  0  0  0  0  0  0  0  0  0  0  0
    2.6261   -3.3791   -1.8287 H   0  0  0  0  0  0  0  0  0  0  0  0
    1.2823   -3.6607   -2.9603 H   0  0  0  0  0  0  0  0  0  0  0  0
    2.3887   -2.2877   -3.2041 H   0  0  0  0  0  0  0  0  0  0  0  0
  5  6  2  0  0  0  0
  5  7  1  0  0  0  0
  2  3  1  0  0  0  0
  2  4  1  0  0  0  0
  2  5  1  0  0  0  0
  1  2  1  0  0  0  0
 15 16  2  0  0  0  0
 15 17  1  0  0  0  0
 11 12  1  0  0  0  0
 11 13  1  0  0  0  0
 11 14  1  0  0  0  0
  9 10  1  0  0  0  0
  9 11  1  0  0  0  0
  9 15  1  0  0  0  0
  7  8  1  0  0  0  0
  7  9  1  0  0  0  0
 19 20  1  0  0  0  0
 19 21  1  0  0  0  0
 19 22  1  0  0  0  0
 17 18  1  0  0  0  0
 17 19  1  0  0  0  0
M  END
$$$$
default_name
  -OEChem-01062215323D

 22 21  0     1  0  0  0  0  0999 V2000
   -2.5423   -3.6749    0.8058 H   0  0  0  0  0  0  0  0  0  0  0  0
   -2.5063   -2.6779    0.3688 C   0  0  0  0  0  0  0  0  0  0  0  0
   -3.1603   -2.0109    0.9268 H   0  0  0  0  0  0  0  0  0  0  0  0
   -2.8193   -2.7229   -0.6722 H   0  0  0  0  0  0  0  0  0  0  0  0
   -1.0873   -2.1629    0.4418 C   0  0  0  0  0  0  0  0  0  0  0  0
   -0.2073   -2.8549    0.9368 O   0  0  0  0  0  0  0  0  0  0  0  0
   -0.8713   -0.9449   -0.0482 N   0  0  0  0  0  0  0  0  0  0  0  0
   -1.6543   -0.4189   -0.4062 H   0  0  0  0  0  0  0  0  0  0  0  0
    0.4237   -0.2649   -0.0462 C   0  0  1  0  0  0  0  0  0  0  0  0
    0.3127    0.7065   -0.5308 H   0  0  0  0  0  0  0  0  0  0  0  0
    0.8652   -0.0374    1.4077 C   0  0  0  0  0  0  0  0  0  0  0  0
    0.9793   -0.9964    1.9157 H   0  0  0  0  0  0  0  0  0  0  0  0
    1.8154    0.4952    1.4303 H   0  0  0  0  0  0  0  0  0  0  0  0
    0.1163    0.5594    1.9311 H   0  0  0  0  0  0  0  0  0  0  0  0
    1.4729   -1.0715   -0.8361 C   0  0  0  0  0  0  0  0  0  0  0  0
    2.6653   -1.0035   -0.5386 O   0  0  0  0  0  0  0  0  0  0  0  0
    1.0256   -1.8215   -1.8511 N   0  0  0  0  0  0  0  0  0  0  0  0
    0.0355   -1.8217   -2.0373 H   0  0  0  0  0  0  0  0  0  0  0  0
    1.8871   -2.6381   -2.7048 C   0  0  0  0  0  0  0  0  0  0  0  0
    2.4732   -3.3232   -2.0890 H   0  0  0  0  0  0  0  0  0  0  0  0
    1.2867   -3.2142   -3.4104 H   0  0  0  0  0  0  0  0  0  0  0  0
    2.5743   -1.9946   -3.2568 H   0  0  0  0  0  0  0  0  0  0  0  0
  5  6  2  0  0  0  0
  5  7  1  0  0  0  0
  2  3  1  0  0  0  0
  2  4  1  0  0  0  0
  2  5  1  0  0  0  0
  1  2  1  0  0  0  0
 15 16  2  0  0  0  0
 15 17  1  0  0  0  0
 11 12  1  0  0  0  0
 11 13  1  0  0  0  0
 11 14  1  0  0  0  0
  9 10  1  0  0  0  0
  9 11  1  0  0  0  0
  9 15  1  0  0  0  0
  7  8  1  0  0  0  0
  7  9  1  0  0  0  0
 19 20  1  0  0  0  0
 19 21  1  0  0  0  0
 19 22  1  0  0  0  0
 17 18  1  0  0  0  0
 17 19  1  0  0  0  0
M  END
$$$$
default_name
  -OEChem-01062215323D

 22 21  0     1  0  0  0  0  0999 V2000
   -2.5423   -3.6749    0.8058 H   0  0  0  0  0  0  0  0  0  0  0  0
   -2.5063   -2.6779    0.3688 C   0  0  0  0  0  0  0  0  0  0  0  0
   -3.1603   -2.0109    0.9268 H   0  0  0  0  0  0  0  0  0  0  0  0
   -2.8193   -2.7229   -0.6722 H   0  0  0  0  0  0  0  0  0  0  0  0
   -1.0873   -2.1629    0.4418 C   0  0  0  0  0  0  0  0  0  0  0  0
   -0.2073   -2.8549    0.9368 O   0  0  0  0  0  0  0  0  0  0  0  0
   -0.8713   -0.9449   -0.0482 N   0  0  0  0  0  0  0  0  0  0  0  0
   -1.6543   -0.4189   -0.4062 H   0  0  0  0  0  0  0  0  0  0  0  0
    0.4237   -0.2649   -0.0462 C   0  0  1  0  0  0  0  0  0  0  0  0
    0.3127    0.7065   -0.5308 H   0  0  0  0  0  0  0  0  0  0  0  0
    0.8652   -0.0374    1.4077 C   0  0  0  0  0  0  0  0  0  0  0  0
    0.9793   -0.9964    1.9157 H   0  0  0  0  0  0  0  0  0  0  0  0
    1.8154    0.4952    1.4303 H   0  0  0  0  0  0  0  0  0  0  0  0
    0.1163    0.5594    1.9311 H   0  0  0  0  0  0  0  0  0  0  0  0
    1.4729   -1.0715   -0.8361 C   0  0  0  0  0  0  0  0  0  0  0  0
    2.6079   -1.2275   -0.3862 O   0  0  0  0  0  0  0  0  0  0  0  0
    1.0929   -1.5686   -2.0199 N   0  0  0  0  0  0  0  0  0  0  0  0
    0.1483   -1.3944   -2.3238 H   0  0  0  0  0  0  0  0  0  0  0  0
    1.9661   -2.3471   -2.8971 C   0  0  0  0  0  0  0  0  0  0  0  0
    2.3681   -3.2030   -2.3512 H   0  0  0  0  0  0  0  0  0  0  0  0
    1.4112   -2.7042   -3.7658 H   0  0  0  0  0  0  0  0  0  0  0  0
    2.7996   -1.7268   -3.2310 H   0  0  0  0  0  0  0  0  0  0  0  0
  5  6  2  0  0  0  0
  5  7  1  0  0  0  0
  2  3  1  0  0  0  0
  2  4  1  0  0  0  0
  2  5  1  0  0  0  0
  1  2  1  0  0  0  0
 15 16  2  0  0  0  0
 15 17  1  0  0  0  0
 11 12  1  0  0  0  0
 11 13  1  0  0  0  0
 11 14  1  0  0  0  0
  9 10  1  0  0  0  0
  9 11  1  0  0  0  0
  9 15  1  0  0  0  0
  7  8  1  0  0  0  0
  7  9  1  0  0  0  0
 19 20  1  0  0  0  0
 19 21  1  0  0  0  0
 19 22  1  0  0  0  0
 17 18  1  0  0  0  0
 17 19  1  0  0  0  0
M  END
$$$$
default_name
  -OEChem-01062215323D

 22 21  0     1  0  0  0  0  0999 V2000
   -2.5423   -3.6749    0.8058 H   0  0  0  0  0  0  0  0  0  0  0  0
   -2.5063   -2.6779    0.3688 C   0  0  0  0  0  0  0  0  0  0  0  0
   -3.1603   -2.0109    0.9268 H   0  0  0  0  0  0  0  0  0  0  0  0
   -2.8193   -2.7229   -0.6722 H   0  0  0  0  0  0  0  0  0  0  0  0
   -1.0873   -2.1629    0.4418 C   0  0  0  0  0  0  0  0  0  0  0  0
   -0.2073   -2.8549    0.9368 O   0  0  0  0  0  0  0  0  0  0  0  0
   -0.8713   -0.9449   -0.0482 N   0  0  0  0  0  0  0  0  0  0  0  0
   -1.6543   -0.4189   -0.4062 H   0  0  0  0  0  0  0  0  0  0  0  0
    0.4237   -0.2649   -0.0462 C   0  0  1  0  0  0  0  0  0  0  0  0
    0.3127    0.7065   -0.5308 H   0  0  0  0  0  0  0  0  0  0  0  0
    0.8652   -0.0374    1.4077 C   0  0  0  0  0  0  0  0  0  0  0  0
    0.9793   -0.9964    1.9157 H   0  0  0  0  0  0  0  0  0  0  0  0
    1.8154    0.4952    1.4303 H   0  0  0  0  0  0  0  0  0  0  0  0
    0.1163    0.5594    1.9311 H   0  0  0  0  0  0  0  0  0  0  0  0
    1.4729   -1.0715   -0.8361 C   0  0  0  0  0  0  0  0  0  0  0  0
    2.5020   -1.4631   -0.2862 O   0  0  0  0  0  0  0  0  0  0  0  0
    1.2144   -1.3035   -2.1293 N   0  0  0  0  0  0  0  0  0  0  0  0
    0.3528   -0.9461   -2.5099 H   0  0  0  0  0  0  0  0  0  0  0  0
    2.1070   -2.0427   -3.0208 C   0  0  0  0  0  0  0  0  0  0  0  0
    2.3181   -3.0268   -2.5976 H   0  0  0  0  0  0  0  0  0  0  0  0
    1.6472   -2.1654   -4.0024 H   0  0  0  0  0  0  0  0  0  0  0  0
    3.0492   -1.5026   -3.1284 H   0  0  0  0  0  0  0  0  0  0  0  0
  5  6  2  0  0  0  0
  5  7  1  0  0  0  0
  2  3  1  0  0  0  0
  2  4  1  0  0  0  0
  2  5  1  0  0  0  0
  1  2  1  0  0  0  0
 15 16  2  0  0  0  0
 15 17  1  0  0  0  0
 11 12  1  0  0  0  0
 11 13  1  0  0  0  0
 11 14  1  0  0  0  0
  9 10  1  0  0  0  0
  9 11  1  0  0  0  0
  9 15  1  0  0  0  0
  7  8  1  0  0  0  0
  7  9  1  0  0  0  0
 19 20  1  0  0  0  0
 19 21  1  0  0  0  0
 19 22  1  0  0  0  0
 17 18  1  0  0  0  0
 17 19  1  0  0  0  0
M  END
$$$$
default_name
  -OEChem-01062215323D

 22 21  0     1  0  0  0  0  0999 V2000
   -2.5423   -3.6749    0.8058 H   0  0  0  0  0  0  0  0  0  0  0  0
   -2.5063   -2.6779    0.3688 C   0  0  0  0  0  0  0  0  0  0  0  0
   -3.1603   -2.0109    0.9268 H   0  0  0  0  0  0  0  0  0  0  0  0
   -2.8193   -2.7229   -0.6722 H   0  0  0  0  0  0  0  0  0  0  0  0
   -1.0873   -2.1629    0.4418 C   0  0  0  0  0  0  0  0  0  0  0  0
   -0.2073   -2.8549    0.9368 O   0  0  0  0  0  0  0  0  0  0  0  0
   -0.8713   -0.9449   -0.0482 N   0  0  0  0  0  0  0  0  0  0  0  0
   -1.6543   -0.4189   -0.4062 H   0  0  0  0  0  0  0  0  0  0  0  0
    0.4237   -0.2649   -0.0462 C   0  0  1  0  0  0  0  0  0  0  0  0
    0.3127    0.7065   -0.5308 H   0  0  0  0  0  0  0  0  0  0  0  0
    0.8652   -0.0374    1.4077 C   0  0  0  0  0  0  0  0  0  0  0  0
    0.9793   -0.9964    1.9157 H   0  0  0  0  0  0  0  0  0  0  0  0
    1.8154    0.4952    1.4303 H   0  0  0  0  0  0  0  0  0  0  0  0
    0.1163    0.5594    1.9311 H   0  0  0  0  0  0  0  0  0  0  0  0
    1.4729   -1.0715   -0.8361 C   0  0  0  0  0  0  0  0  0  0  0  0
    2.3550   -1.6943   -0.2455 O   0  0  0  0  0  0  0  0  0  0  0  0
    1.3817   -1.0443   -2.1718 N   0  0  0  0  0  0  0  0  0  0  0  0
    0.6350   -0.5074   -2.5830 H   0  0  0  0  0  0  0  0  0  0  0  0
    2.3002   -1.7455   -3.0676 C   0  0  0  0  0  0  0  0  0  0  0  0
    2.3266   -2.8065   -2.8113 H   0  0  0  0  0  0  0  0  0  0  0  0
    1.9787   -1.6346   -4.1041 H   0  0  0  0  0  0  0  0  0  0  0  0
    3.3062   -1.3372   -2.9559 H   0  0  0  0  0  0  0  0  0  0  0  0
  5  6  2  0  0  0  0
  5  7  1  0  0  0  0
  2  3  1  0  0  0  0
  2  4  1  0  0  0  0
  2  5  1  0  0  0  0
  1  2  1  0  0  0  0
 15 16  2  0  0  0  0
 15 17  1  0  0  0  0
 11 12  1  0  0  0  0
 11 13  1  0  0  0  0
 11 14  1  0  0  0  0
  9 10  1  0  0  0  0
  9 11  1  0  0  0  0
  9 15  1  0  0  0  0
  7  8  1  0  0  0  0
  7  9  1  0  0  0  0
 19 20  1  0  0  0  0
 19 21  1  0  0  0  0
 19 22  1  0  0  0  0
 17 18  1  0  0  0  0
 17 19  1  0  0  0  0
M  END
$$$$
default_name
  -OEChem-01062215323D

 22 21  0     1  0  0  0  0  0999 V2000
   -2.5423   -3.6749    0.8058 H   0  0  0  0  0  0  0  0  0  0  0  0
   -2.5063   -2.6779    0.3688 C   0  0  0  0  0  0  0  0  0  0  0  0
   -3.1603   -2.0109    0.9268 H   0  0  0  0  0  0  0  0  0  0  0  0
   -2.8193   -2.7229   -0.6722 H   0  0  0  0  0  0  0  0  0  0  0  0
   -1.0873   -2.1629    0.4418 C   0  0  0  0  0  0  0  0  0  0  0  0
   -0.2073   -2.8549    0.9368 O   0  0  0  0  0  0  0  0  0  0  0  0
   -0.8713   -0.9449   -0.0482 N   0  0  0  0  0  0  0  0  0  0  0  0
   -1.6543   -0.4189   -0.4062 H   0  0  0  0  0  0  0  0  0  0  0  0
    0.4237   -0.2649   -0.0462 C   0  0  1  0  0  0  0  0  0  0  0  0
    0.3127    0.7065   -0.5308 H   0  0  0  0  0  0  0  0  0  0  0  0
    0.8652   -0.0374    1.4077 C   0  0  0  0  0  0  0  0  0  0  0  0
    0.9793   -0.9964    1.9157 H   0  0  0  0  0  0  0  0  0  0  0  0
    1.8154    0.4952    1.4303 H   0  0  0  0  0  0  0  0  0  0  0  0
    0.1163    0.5594    1.9311 H   0  0  0  0  0  0  0  0  0  0  0  0
    1.4729   -1.0715   -0.8361 C   0  0  0  0  0  0  0  0  0  0  0  0
    2.1768   -1.9053   -0.2668 O   0  0  0  0  0  0  0  0  0  0  0  0
    1.5834   -0.8086   -2.1445 N   0  0  0  0  0  0  0  0  0  0  0  0
    0.9757   -0.1082   -2.5381 H   0  0  0  0  0  0  0  0  0  0  0  0
    2.5327   -1.4758   -3.0342 C   0  0  0  0  0  0  0  0  0  0  0  0
    2.3929   -2.5572   -2.9778 H   0  0  0  0  0  0  0  0  0  0  0  0
    2.3831   -1.1479   -4.0639 H   0  0  0  0  0  0  0  0  0  0  0  0
    3.5530   -1.2419   -2.7254 H   0  0  0  0  0  0  0  0  0  0  0  0
  5  6  2  0  0  0  0
  5  7  1  0  0  0  0
  2  3  1  0  0  0  0
  2  4  1  0  0  0  0
  2  5  1  0  0  0  0
  1  2  1  0  0  0  0
 15 16  2  0  0  0  0
 15 17  1  0  0  0  0
 11 12  1  0  0  0  0
 11 13  1  0  0  0  0
 11 14  1  0  0  0  0
  9 10  1  0  0  0  0
  9 11  1  0  0  0  0
  9 15  1  0  0  0  0
  7  8  1  0  0  0  0
  7  9  1  0  0  0  0
 19 20  1  0  0  0  0
 19 21  1  0  0  0  0
 19 22  1  0  0  0  0
 17 18  1  0  0  0  0
 17 19  1  0  0  0  0
M  END
$$$$
default_name
  -OEChem-01062215323D

 22 21  0     1  0  0  0  0  0999 V2000
   -2.5423   -3.6749    0.8058 H   0  0  0  0  0  0  0  0  0  0  0  0
   -2.5063   -2.6779    0.3688 C   0  0  0  0  0  0  0  0  0  0  0  0
   -3.1603   -2.0109    0.9268 H   0  0  0  0  0  0  0  0  0  0  0  0
   -2.8193   -2.7229   -0.6722 H   0  0  0  0  0  0  0  0  0  0  0  0
   -1.0873   -2.1629    0.4418 C   0  0  0  0  0  0  0  0  0  0  0  0
   -0.2073   -2.8549    0.9368 O   0  0  0  0  0  0  0  0  0  0  0  0
   -0.8713   -0.9449   -0.0482 N   0  0  0  0  0  0  0  0  0  0  0  0
   -1.6543   -0.4189   -0.4062 H   0  0  0  0  0  0  0  0  0  0  0  0
    0.4237   -0.2649   -0.0462 C   0  0  1  0  0  0  0  0  0  0  0  0
    0.3127    0.7065   -0.5308 H   0  0  0  0  0  0  0  0  0  0  0  0
    0.8652   -0.0374    1.4077 C   0  0  0  0  0  0  0  0  0  0  0  0
    0.9793   -0.9964    1.9157 H   0  0  0  0  0  0  0  0  0  0  0  0
    1.8154    0.4952    1.4303 H   0  0  0  0  0  0  0  0  0  0  0  0
    0.1163    0.5594    1.9311 H   0  0  0  0  0  0  0  0  0  0  0  0
    1.4729   -1.0715   -0.8361 C   0  0  0  0  0  0  0  0  0  0  0  0
    1.9795   -2.0817   -0.3486 O   0  0  0  0  0  0  0  0  0  0  0  0
    1.8058   -0.6126   -2.0492 N   0  0  0  0  0  0  0  0  0  0  0  0
    1.3516    0.2244   -2.3783 H   0  0  0  0  0  0  0  0  0  0  0  0
    2.7884   -1.2520   -2.9230 C   0  0  0  0  0  0  0  0  0  0  0  0
    2.5126   -2.2958   -3.0857 H   0  0  0  0  0  0  0  0  0  0  0  0
    2.8328   -0.7386   -3.8845 H   0  0  0  0  0  0  0  0  0  0  0  0
    3.7728   -1.2232   -2.4526 H   0  0  0  0  0  0  0  0  0  0  0  0
  5  6  2  0  0  0  0
  5  7  1  0  0  0  0
  2  3  1  0  0  0  0
  2  4  1  0  0  0  0
  2  5  1  0  0  0  0
  1  2  1  0  0  0  0
 15 16  2  0  0  0  0
 15 17  1  0  0  0  0
 11 12  1  0  0  0  0
 11 13  1  0  0  0  0
 11 14  1  0  0  0  0
  9 10  1  0  0  0  0
  9 11  1  0  0  0  0
  9 15  1  0  0  0  0
  7  8  1  0  0  0  0
  7  9  1  0  0  0  0
 19 20  1  0  0  0  0
 19 21  1  0  0  0  0
 19 22  1  0  0  0  0
 17 18  1  0  0  0  0
 17 19  1  0  0  0  0
M  END
$$$$
default_name
  -OEChem-01062215323D

 22 21  0     1  0  0  0  0  0999 V2000
   -2.5423   -3.6749    0.8058 H   0  0  0  0  0  0  0  0  0  0  0  0
   -2.5063   -2.6779    0.3688 C   0  0  0  0  0  0  0  0  0  0  0  0
   -3.1603   -2.0109    0.9268 H   0  0  0  0  0  0  0  0  0  0  0  0
   -2.8193   -2.7229   -0.6722 H   0  0  0  0  0  0  0  0  0  0  0  0
   -1.0873   -2.1629    0.4418 C   0  0  0  0  0  0  0  0  0  0  0  0
   -0.2073   -2.8549    0.9368 O   0  0  0  0  0  0  0  0  0  0  0  0
   -0.8713   -0.9449   -0.0482 N   0  0  0  0  0  0  0  0  0  0  0  0
   -1.6543   -0.4189   -0.4062 H   0  0  0  0  0  0  0  0  0  0  0  0
    0.4237   -0.2649   -0.0462 C   0  0  1  0  0  0  0  0  0  0  0  0
    0.3127    0.7065   -0.5308 H   0  0  0  0  0  0  0  0  0  0  0  0
    0.8652   -0.0374    1.4077 C   0  0  0  0  0  0  0  0  0  0  0  0
    0.9793   -0.9964    1.9157 H   0  0  0  0  0  0  0  0  0  0  0  0
    1.8154    0.4952    1.4303 H   0  0  0  0  0  0  0  0  0  0  0  0
    0.1163    0.5594    1.9311 H   0  0  0  0  0  0  0  0  0  0  0  0
    1.4729   -1.0715   -0.8361 C   0  0  0  0  0  0  0  0  0  0  0  0
    1.7767   -2.2115   -0.4855 O   0  0  0  0  0  0  0  0  0  0  0  0
    2.0338   -0.4694   -1.8926 N   0  0  0  0  0  0  0  0  0  0  0  0
    1.7372    0.4675   -2.1144 H   0  0  0  0  0  0  0  0  0  0  0  0
    3.0501   -1.0894   -2.7415 C   0  0  0  0  0  0  0  0  0  0  0  0
    2.6775   -2.0402   -3.1276 H   0  0  0  0  0  0  0  0  0  0  0  0
    3.2972   -0.4345   -3.5782 H   0  0  0  0  0  0  0  0  0  0  0  0
    3.9506   -1.2824   -2.1559 H   0  0  0  0  0  0  0  0  0  0  0  0
  5  6  2  0  0  0  0
  5  7  1  0  0  0  0
  2  3  1  0  0  0  0
  2  4  1  0  0  0  0
  2  5  1  0  0  0  0
  1  2  1  0  0  0  0
 15 16  2  0  0  0  0
 15 17  1  0  0  0  0
 11 12  1  0  0  0  0
 11 13  1  0  0  0  0
 11 14  1  0  0  0  0
  9 10  1  0  0  0  0
  9 11  1  0  0  0  0
  9 15  1  0  0  0  0
  7  8  1  0  0  0  0
  7  9  1  0  0  0  0
 19 20  1  0  0  0  0
 19 21  1  0  0  0  0
 19 22  1  0  0  0  0
 17 18  1  0  0  0  0
 17 19  1  0  0  0  0
M  END
$$$$
default_name
  -OEChem-01062215323D

 22 21  0     1  0  0  0  0  0999 V2000
   -2.5423   -3.6749    0.8058 H   0  0  0  0  0  0  0  0  0  0  0  0
   -2.5063   -2.6779    0.3688 C   0  0  0  0  0  0  0  0  0  0  0  0
   -3.1603   -2.0109    0.9268 H   0  0  0  0  0  0  0  0  0  0  0  0
   -2.8193   -2.7229   -0.6722 H   0  0  0  0  0  0  0  0  0  0  0  0
   -1.0873   -2.1629    0.4418 C   0  0  0  0  0  0  0  0  0  0  0  0
   -0.2073   -2.8549    0.9368 O   0  0  0  0  0  0  0  0  0  0  0  0
   -0.8713   -0.9449   -0.0482 N   0  0  0  0  0  0  0  0  0  0  0  0
   -1.6543   -0.4189   -0.4062 H   0  0  0  0  0  0  0  0  0  0  0  0
    0.4237   -0.2649   -0.0462 C   0  0  1  0  0  0  0  0  0  0  0  0
    0.3127    0.7065   -0.5308 H   0  0  0  0  0  0  0  0  0  0  0  0
    0.8652   -0.0374    1.4077 C   0  0  0  0  0  0  0  0  0  0  0  0
    0.9793   -0.9964    1.9157 H   0  0  0  0  0  0  0  0  0  0  0  0
    1.8154    0.4952    1.4303 H   0  0  0  0  0  0  0  0  0  0  0  0
    0.1163    0.5594    1.9311 H   0  0  0  0  0  0  0  0  0  0  0  0
    1.4729   -1.0715   -0.8361 C   0  0  0  0  0  0  0  0  0  0  0  0
    1.5821   -2.2858   -0.6681 O   0  0  0  0  0  0  0  0  0  0  0  0
    2.2517   -0.3891   -1.6852 N   0  0  0  0  0  0  0  0  0  0  0  0
    2.1062    0.6047   -1.7644 H   0  0  0  0  0  0  0  0  0  0  0  0
    3.2998   -0.9990   -2.5021 C   0  0  0  0  0  0  0  0  0  0  0  0
    2.8763   -1.8079   -3.1008 H   0  0  0  0  0  0  0  0  0  0  0  0
    3.7446   -0.2563   -3.1658 H   0  0  0  0  0  0  0  0  0  0  0  0
    4.0743   -1.4155   -1.8557 H   0  0  0  0  0  0  0  0  0  0  0  0
  5  6  2  0  0  0  0
  5  7  1  0  0  0  0
  2  3  1  0  0  0  0
  2  4  1  0  0  0  0
  2  5  1  0  0  0  0
  1  2  1  0  0  0  0
 15 16  2  0  0  0  0
 15 17  1  0  0  0  0
 11 12  1  0  0  0  0
 11 13  1  0  0  0  0
 11 14  1  0  0  0  0
  9 10  1  0  0  0  0
  9 11  1  0  0  0  0
  9 15  1  0  0  0  0
  7  8  1  0  0  0  0
  7  9  1  0  0  0  0
 19 20  1  0  0  0  0
 19 21  1  0  0  0  0
 19 22  1  0  0  0  0
 17 18  1  0  0  0  0
 17 19  1  0  0  0  0
M  END
$$$$
default_name
  -OEChem-01062215323D

 22 21  0     1  0  0  0  0  0999 V2000
   -2.5423   -3.6749    0.8058 H   0  0  0  0  0  0  0  0  0  0  0  0
   -2.5063   -2.6779    0.3688 C   0  0  0  0  0  0  0  0  0  0  0  0
   -3.1603   -2.0109    0.9268 H   0  0  0  0  0  0  0  0  0  0  0  0
   -2.8193   -2.7229   -0.6722 H   0  0  0  0  0  0  0  0  0  0  0  0
   -1.0873   -2.1629    0.4418 C   0  0  0  0  0  0  0  0  0  0  0  0
   -0.2073   -2.8549    0.9368 O   0  0  0  0  0  0  0  0  0  0  0  0
   -0.8713   -0.9449   -0.0482 N   0  0  0  0  0  0  0  0  0  0  0  0
   -1.6543   -0.4189   -0.4062 H   0  0  0  0  0  0  0  0  0  0  0  0
    0.4237   -0.2649   -0.0462 C   0  0  1  0  0  0  0  0  0  0  0  0
    0.3127    0.7065   -0.5308 H   0  0  0  0  0  0  0  0  0  0  0  0
    0.8652   -0.0374    1.4077 C   0  0  0  0  0  0  0  0  0  0  0  0
    0.9793   -0.9964    1.9157 H   0  0  0  0  0  0  0  0  0  0  0  0
    1.8154    0.4952    1.4303 H   0  0  0  0  0  0  0  0  0  0  0  0
    0.1163    0.5594    1.9311 H   0  0  0  0  0  0  0  0  0  0  0  0
    1.4729   -1.0715   -0.8361 C   0  0  0  0  0  0  0  0  0  0  0  0
    1.4090   -2.2997   -0.8839 O   0  0  0  0  0  0  0  0  0  0  0  0
    2.4448   -0.3768   -1.4411 N   0  0  0  0  0  0  0  0  0  0  0  0
    2.4334    0.6266   -1.3522 H   0  0  0  0  0  0  0  0  0  0  0  0
    3.5206   -0.9870   -2.2210 C   0  0  0  0  0  0  0  0  0  0  0  0
    3.0956   -1.6145   -3.0070 H   0  0  0  0  0  0  0  0  0  0  0  0
    4.1446   -0.2161   -2.6755 H   0  0  0  0  0  0  0  0  0  0  0  0
    4.1355   -1.6133   -1.5724 H   0  0  0  0  0  0  0  0  0  0  0  0
  5  6  2  0  0  0  0
  5  7  1  0  0  0  0
  2  3  1  0  0  0  0
  2  4  1  0  0  0  0
  2  5  1  0  0  0  0
  1  2  1  0  0  0  0
 15 16  2  0  0  0  0
 15 17  1  0  0  0  0
 11 12  1  0  0  0  0
 11 13  1  0  0  0  0
 11 14  1  0  0  0  0
  9 10  1  0  0  0  0
  9 11  1  0  0  0  0
  9 15  1  0  0  0  0
  7  8  1  0  0  0  0
  7  9  1  0  0  0  0
 19 20  1  0  0  0  0
 19 21  1  0  0  0  0
 19 22  1  0  0  0  0
 17 18  1  0  0  0  0
 17 19  1  0  0  0  0
M  END
$$$$
default_name
  -OEChem-01062215323D

 22 21  0     1  0  0  0  0  0999 V2000
   -2.5423   -3.6749    0.8058 H   0  0  0  0  0  0  0  0  0  0  0  0
   -2.5063   -2.6779    0.3688 C   0  0  0  0  0  0  0  0  0  0  0  0
   -3.1603   -2.0109    0.9268 H   0  0  0  0  0  0  0  0  0  0  0  0
   -2.8193   -2.7229   -0.6722 H   0  0  0  0  0  0  0  0  0  0  0  0
   -1.0873   -2.1629    0.4418 C   0  0  0  0  0  0  0  0  0  0  0  0
   -0.2073   -2.8549    0.9368 O   0  0  0  0  0  0  0  0  0  0  0  0
   -0.8713   -0.9449   -0.0482 N   0  0  0  0  0  0  0  0  0  0  0  0
   -1.6543   -0.4189   -0.4062 H   0  0  0  0  0  0  0  0  0  0  0  0
    0.4237   -0.2649   -0.0462 C   0  0  1  0  0  0  0  0  0  0  0  0
    0.3127    0.7065   -0.5308 H   0  0  0  0  0  0  0  0  0  0  0  0
    0.8652   -0.0374    1.4077 C   0  0  0  0  0  0  0  0  0  0  0  0
    0.9793   -0.9964    1.9157 H   0  0  0  0  0  0  0  0  0  0  0  0
    1.8154    0.4952    1.4303 H   0  0  0  0  0  0  0  0  0  0  0  0
    0.1163    0.5594    1.9311 H   0  0  0  0  0  0  0  0  0  0  0  0
    1.4729   -1.0715   -0.8361 C   0  0  0  0  0  0  0  0  0  0  0  0
    1.2692   -2.2520   -1.1182 O   0  0  0  0  0  0  0  0  0  0  0  0
    2.5999   -0.4337   -1.1771 N   0  0  0  0  0  0  0  0  0  0  0  0
    2.6965    0.5318   -0.9058 H   0  0  0  0  0  0  0  0  0  0  0  0
    3.6974   -1.0542   -1.9176 C   0  0  0  0  0  0  0  0  0  0  0  0
    3.3203   -1.4733   -2.8526 H   0  0  0  0  0  0  0  0  0  0  0  0
    4.4698   -0.3168   -2.1407 H   0  0  0  0  0  0  0  0  0  0  0  0
    4.1300   -1.8624   -1.3254 H   0  0  0  0  0  0  0  0  0  0  0  0
  5  6  2  0  0  0  0
  5  7  1  0  0  0  0
  2  3  1  0  0  0  0
  2  4  1  0  0  0  0
  2  5  1  0  0  0  0
  1  2  1  0  0  0  0
 15 16  2  0  0  0  0
 15 17  1  0  0  0  0
 11 12  1  0  0  0  0
 11 13  1  0  0  0  0
 11 14  1  0  0  0  0
  9 10  1  0  0  0  0
  9 11  1  0  0  0  0
  9 15  1  0  0  0  0
  7  8  1  0  0  0  0
  7  9  1  0  0  0  0
 19 20  1  0  0  0  0
 19 21  1  0  0  0  0
 19 22  1  0  0  0  0
 17 18  1  0  0  0  0
 17 19  1  0  0  0  0
M  END
$$$$
default_name
  -OEChem-01062215323D

 22 21  0     1  0  0  0  0  0999 V2000
   -2.5423   -3.6749    0.8058 H   0  0  0  0  0  0  0  0  0  0  0  0
   -2.5063   -2.6779    0.3688 C   0  0  0  0  0  0  0  0  0  0  0  0
   -3.1603   -2.0109    0.9268 H   0  0  0  0  0  0  0  0  0  0  0  0
   -2.8193   -2.7229   -0.6722 H   0  0  0  0  0  0  0  0  0  0  0  0
   -1.0873   -2.1629    0.4418 C   0  0  0  0  0  0  0  0  0  0  0  0
   -0.2073   -2.8549    0.9368 O   0  0  0  0  0  0  0  0  0  0  0  0
   -0.8713   -0.9449   -0.0482 N   0  0  0  0  0  0  0  0  0  0  0  0
   -1.6543   -0.4189   -0.4062 H   0  0  0  0  0  0  0  0  0  0  0  0
    0.4237   -0.2649   -0.0462 C   0  0  1  0  0  0  0  0  0  0  0  0
    0.2685    0.7900   -0.2783 H   0  0  0  0  0  0  0  0  0  0  0  0
    1.0400   -0.3703    1.3572 C   0  0  0  0  0  0  0  0  0  0  0  0
    1.2013   -1.4185    1.6144 H   0  0  0  0  0  0  0  0  0  0  0  0
    1.9932    0.1565    1.3868 H   0  0  0  0  0  0  0  0  0  0  0  0
    0.3678    0.0799    2.0896 H   0  0  0  0  0  0  0  0  0  0  0  0
    1.3591   -0.8538   -1.1202 C   0  0  0  0  0  0  0  0  0  0  0  0
    0.9835   -1.7853   -1.8317 O   0  0  0  0  0  0  0  0  0  0  0  0
    2.5815   -0.3169   -1.2228 N   0  0  0  0  0  0  0  0  0  0  0  0
    2.8183    0.4399   -0.6014 H   0  0  0  0  0  0  0  0  0  0  0  0
    3.5919   -0.7635   -2.1807 C   0  0  0  0  0  0  0  0  0  0  0  0
    3.1837   -0.7229   -3.1925 H   0  0  0  0  0  0  0  0  0  0  0  0
    4.4760   -0.1268   -2.1247 H   0  0  0  0  0  0  0  0  0  0  0  0
    3.8752   -1.7946   -1.9626 H   0  0  0  0  0  0  0  0  0  0  0  0
  5  6  2  0  0  0  0
  5  7  1  0  0  0  0
  2  3  1  0  0  0  0
  2  4  1  0  0  0  0
  2  5  1  0  0  0  0
  1  2  1  0  0  0  0
 15 16  2  0  0  0  0
 15 17  1  0  0  0  0
 11 12  1  0  0  0  0
 11 13  1  0  0  0  0
 11 14  1  0  0  0  0
  9 10  1  0  0  0  0
  9 11  1  0  0  0  0
  9 15  1  0  0  0  0
  7  8  1  0  0  0  0
  7  9  1  0  0  0  0
 19 20  1  0  0  0  0
 19 21  1  0  0  0  0
 19 22  1  0  0  0  0
 17 18  1  0  0  0  0
 17 19  1  0  0  0  0
M  END
$$$$
default_name
  -OEChem-01062215323D

 22 21  0     1  0  0  0  0  0999 V2000
   -2.5423   -3.6749    0.8058 H   0  0  0  0  0  0  0  0  0  0  0  0
   -2.5063   -2.6779    0.3688 C   0  0  0  0  0  0  0  0  0  0  0  0
   -3.1603   -2.0109    0.9268 H   0  0  0  0  0  0  0  0  0  0  0  0
   -2.8193   -2.7229   -0.6722 H   0  0  0  0  0  0  0  0  0  0  0  0
   -1.0873   -2.1629    0.4418 C   0  0  0  0  0  0  0  0  0  0  0  0
   -0.2073   -2.8549    0.9368 O   0  0  0  0  0  0  0  0  0  0  0  0
   -0.8713   -0.9449   -0.0482 N   0  0  0  0  0  0  0  0  0  0  0  0
   -1.6543   -0.4189   -0.4062 H   0  0  0  0  0  0  0  0  0  0  0  0
    0.4237   -0.2649   -0.0462 C   0  0  1  0  0  0  0  0  0  0  0  0
    0.2685    0.7900   -0.2783 H   0  0  0  0  0  0  0  0  0  0  0  0
    1.0400   -0.3703    1.3572 C   0  0  0  0  0  0  0  0  0  0  0  0
    1.2013   -1.4185    1.6144 H   0  0  0  0  0  0  0  0  0  0  0  0
    1.9932    0.1565    1.3868 H   0  0  0  0  0  0  0  0  0  0  0  0
    0.3678    0.0799    2.0896 H   0  0  0  0  0  0  0  0  0  0  0  0
    1.3591   -0.8538   -1.1202 C   0  0  0  0  0  0  0  0  0  0  0  0
    0.9115   -1.5822   -2.0057 O   0  0  0  0  0  0  0  0  0  0  0  0
    2.6594   -0.5475   -1.0285 N   0  0  0  0  0  0  0  0  0  0  0  0
    2.9512    0.0507   -0.2722 H   0  0  0  0  0  0  0  0  0  0  0  0
    3.6796   -1.0295   -1.9584 C   0  0  0  0  0  0  0  0  0  0  0  0
    3.4018   -0.7635   -2.9803 H   0  0  0  0  0  0  0  0  0  0  0  0
    4.6481   -0.5861   -1.7230 H   0  0  0  0  0  0  0  0  0  0  0  0
    3.7542   -2.1163   -1.8916 H   0  0  0  0  0  0  0  0  0  0  0  0
  5  6  2  0  0  0  0
  5  7  1  0  0  0  0
  2  3  1  0  0  0  0
  2  4  1  0  0  0  0
  2  5  1  0  0  0  0
  1  2  1  0  0  0  0
 15 16  2  0  0  0  0
 15 17  1  0  0  0  0
 11 12  1  0  0  0  0
 11 13  1  0  0  0  0
 11 14  1  0  0  0  0
  9 10  1  0  0  0  0
  9 11  1  0  0  0  0
  9 15  1  0  0  0  0
  7  8  1  0  0  0  0
  7  9  1  0  0  0  0
 19 20  1  0  0  0  0
 19 21  1  0  0  0  0
 19 22  1  0  0  0  0
 17 18  1  0  0  0  0
 17 19  1  0  0  0  0
M  END
$$$$
default_name
  -OEChem-01062215323D

 22 21  0     1  0  0  0  0  0999 V2000
   -2.5423   -3.6749    0.8058 H   0  0  0  0  0  0  0  0  0  0  0  0
   -2.5063   -2.6779    0.3688 C   0  0  0  0  0  0  0  0  0  0  0  0
   -3.1603   -2.0109    0.9268 H   0  0  0  0  0  0  0  0  0  0  0  0
   -2.8193   -2.7229   -0.6722 H   0  0  0  0  0  0  0  0  0  0  0  0
   -1.0873   -2.1629    0.4418 C   0  0  0  0  0  0  0  0  0  0  0  0
   -0.2073   -2.8549    0.9368 O   0  0  0  0  0  0  0  0  0  0  0  0
   -0.8713   -0.9449   -0.0482 N   0  0  0  0  0  0  0  0  0  0  0  0
   -1.6543   -0.4189   -0.4062 H   0  0  0  0  0  0  0  0  0  0  0  0
    0.4237   -0.2649   -0.0462 C   0  0  1  0  0  0  0  0  0  0  0  0
    0.2685    0.7900   -0.2783 H   0  0  0  0  0  0  0  0  0  0  0  0
    1.0400   -0.3703    1.3572 C   0  0  0  0  0  0  0  0  0  0  0  0
    1.2013   -1.4185    1.6144 H   0  0  0  0  0  0  0  0  0  0  0  0
    1.9932    0.1565    1.3868 H   0  0  0  0  0  0  0  0  0  0  0  0
    0.3678    0.0799    2.0896 H   0  0  0  0  0  0  0  0  0  0  0  0
    1.3591   -0.8538   -1.1202 C   0  0  0  0  0  0  0  0  0  0  0  0
    0.8959   -1.3457   -2.1490 O   0  0  0  0  0  0  0  0  0  0  0  0
    2.6739   -0.8148   -0.8694 N   0  0  0  0  0  0  0  0  0  0  0  0
    2.9769   -0.4008   -0.0023 H   0  0  0  0  0  0  0  0  0  0  0  0
    3.6943   -1.3372   -1.7769 C   0  0  0  0  0  0  0  0  0  0  0  0
    3.5842   -0.8754   -2.7601 H   0  0  0  0  0  0  0  0  0  0  0  0
    4.6918   -1.1239   -1.3900 H   0  0  0  0  0  0  0  0  0  0  0  0
    3.5723   -2.4163   -1.8854 H   0  0  0  0  0  0  0  0  0  0  0  0
  5  6  2  0  0  0  0
  5  7  1  0  0  0  0
  2  3  1  0  0  0  0
  2  4  1  0  0  0  0
  2  5  1  0  0  0  0
  1  2  1  0  0  0  0
 15 16  2  0  0  0  0
 15 17  1  0  0  0  0
 11 12  1  0  0  0  0
 11 13  1  0  0  0  0
 11 14  1  0  0  0  0
  9 10  1  0  0  0  0
  9 11  1  0  0  0  0
  9 15  1  0  0  0  0
  7  8  1  0  0  0  0
  7  9  1  0  0  0  0
 19 20  1  0  0  0  0
 19 21  1  0  0  0  0
 19 22  1  0  0  0  0
 17 18  1  0  0  0  0
 17 19  1  0  0  0  0
M  END
$$$$
default_name
  -OEChem-01062215323D

 22 21  0     1  0  0  0  0  0999 V2000
   -2.5423   -3.6749    0.8058 H   0  0  0  0  0  0  0  0  0  0  0  0
   -2.5063   -2.6779    0.3688 C   0  0  0  0  0  0  0  0  0  0  0  0
   -3.1603   -2.0109    0.9268 H   0  0  0  0  0  0  0  0  0  0  0  0
   -2.8193   -2.7229   -0.6722 H   0  0  0  0  0  0  0  0  0  0  0  0
   -1.0873   -2.1629    0.4418 C   0  0  0  0  0  0  0  0  0  0  0  0
   -0.2073   -2.8549    0.9368 O   0  0  0  0  0  0  0  0  0  0  0  0
   -0.8713   -0.9449   -0.0482 N   0  0  0  0  0  0  0  0  0  0  0  0
   -1.6543   -0.4189   -0.4062 H   0  0  0  0  0  0  0  0  0  0  0  0
    0.4237   -0.2649   -0.0462 C   0  0  1  0  0  0  0  0  0  0  0  0
    0.2685    0.7900   -0.2783 H   0  0  0  0  0  0  0  0  0  0  0  0
    1.0400   -0.3703    1.3572 C   0  0  0  0  0  0  0  0  0  0  0  0
    1.2013   -1.4185    1.6144 H   0  0  0  0  0  0  0  0  0  0  0  0
    1.9932    0.1565    1.3868 H   0  0  0  0  0  0  0  0  0  0  0  0
    0.3678    0.0799    2.0896 H   0  0  0  0  0  0  0  0  0  0  0  0
    1.3591   -0.8538   -1.1202 C   0  0  0  0  0  0  0  0  0  0  0  0
    0.9376   -1.0919   -2.2518 O   0  0  0  0  0  0  0  0  0  0  0  0
    2.6239   -1.1006   -0.7562 N   0  0  0  0  0  0  0  0  0  0  0  0
    2.8935   -0.8840    0.1901 H   0  0  0  0  0  0  0  0  0  0  0  0
    3.6351   -1.6656   -1.6484 C   0  0  0  0  0  0  0  0  0  0  0  0
    3.7184   -1.0510   -2.5469 H   0  0  0  0  0  0  0  0  0  0  0  0
    4.6041   -1.7036   -1.1486 H   0  0  0  0  0  0  0  0  0  0  0  0
    3.3419   -2.6742   -1.9446 H   0  0  0  0  0  0  0  0  0  0  0  0
  5  6  2  0  0  0  0
  5  7  1  0  0  0  0
  2  3  1  0  0  0  0
  2  4  1  0  0  0  0
  2  5  1  0  0  0  0
  1  2  1  0  0  0  0
 15 16  2  0  0  0  0
 15 17  1  0  0  0  0
 11 12  1  0  0  0  0
 11 13  1  0  0  0  0
 11 14  1  0  0  0  0
  9 10  1  0  0  0  0
  9 11  1  0  0  0  0
  9 15  1  0  0  0  0
  7  8  1  0  0  0  0
  7  9  1  0  0  0  0
 19 20  1  0  0  0  0
 19 21  1  0  0  0  0
 19 22  1  0  0  0  0
 17 18  1  0  0  0  0
 17 19  1  0  0  0  0
M  END
$$$$
default_name
  -OEChem-01062215323D

 22 21  0     1  0  0  0  0  0999 V2000
   -2.5423   -3.6749    0.8058 H   0  0  0  0  0  0  0  0  0  0  0  0
   -2.5063   -2.6779    0.3688 C   0  0  0  0  0  0  0  0  0  0  0  0
   -3.1603   -2.0109    0.9268 H   0  0  0  0  0  0  0  0  0  0  0  0
   -2.8193   -2.7229   -0.6722 H   0  0  0  0  0  0  0  0  0  0  0  0
   -1.0873   -2.1629    0.4418 C   0  0  0  0  0  0  0  0  0  0  0  0
   -0.2073   -2.8549    0.9368 O   0  0  0  0  0  0  0  0  0  0  0  0
   -0.8713   -0.9449   -0.0482 N   0  0  0  0  0  0  0  0  0  0  0  0
   -1.6543   -0.4189   -0.4062 H   0  0  0  0  0  0  0  0  0  0  0  0
    0.4237   -0.2649   -0.0462 C   0  0  1  0  0  0  0  0  0  0  0  0
    0.2685    0.7900   -0.2783 H   0  0  0  0  0  0  0  0  0  0  0  0
    1.0400   -0.3703    1.3572 C   0  0  0  0  0  0  0  0  0  0  0  0
    1.2013   -1.4185    1.6144 H   0  0  0  0  0  0  0  0  0  0  0  0
    1.9932    0.1565    1.3868 H   0  0  0  0  0  0  0  0  0  0  0  0
    0.3678    0.0799    2.0896 H   0  0  0  0  0  0  0  0  0  0  0  0
    1.3591   -0.8538   -1.1202 C   0  0  0  0  0  0  0  0  0  0  0  0
    1.0339   -0.8381   -2.3072 O   0  0  0  0  0  0  0  0  0  0  0  0
    2.5129   -1.3854   -0.6967 N   0  0  0  0  0  0  0  0  0  0  0  0
    2.7068   -1.3660    0.2917 H   0  0  0  0  0  0  0  0  0  0  0  0
    3.5060   -1.9923   -1.5817 C   0  0  0  0  0  0  0  0  0  0  0  0
    3.7953   -1.2783   -2.3553 H   0  0  0  0  0  0  0  0  0  0  0  0
    4.3909   -2.2856   -1.0151 H   0  0  0  0  0  0  0  0  0  0  0  0
    3.0787   -2.8725   -2.0651 H   0  0  0  0  0  0  0  0  0  0  0  0
  5  6  2  0  0  0  0
  5  7  1  0  0  0  0
  2  3  1  0  0  0  0
  2  4  1  0  0  0  0
  2  5  1  0  0  0  0
  1  2  1  0  0  0  0
 15 16  2  0  0  0  0
 15 17  1  0  0  0  0
 11 12  1  0  0  0  0
 11 13  1  0  0  0  0
 11 14  1  0  0  0  0
  9 10  1  0  0  0  0
  9 11  1  0  0  0  0
  9 15  1  0  0  0  0
  7  8  1  0  0  0  0
  7  9  1  0  0  0  0
 19 20  1  0  0  0  0
 19 21  1  0  0  0  0
 19 22  1  0  0  0  0
 17 18  1  0  0  0  0
 17 19  1  0  0  0  0
M  END
$$$$
default_name
  -OEChem-01062215323D

 22 21  0     1  0  0  0  0  0999 V2000
   -2.5423   -3.6749    0.8058 H   0  0  0  0  0  0  0  0  0  0  0  0
   -2.5063   -2.6779    0.3688 C   0  0  0  0  0  0  0  0  0  0  0  0
   -3.1603   -2.0109    0.9268 H   0  0  0  0  0  0  0  0  0  0  0  0
   -2.8193   -2.7229   -0.6722 H   0  0  0  0  0  0  0  0  0  0  0  0
   -1.0873   -2.1629    0.4418 C   0  0  0  0  0  0  0  0  0  0  0  0
   -0.2073   -2.8549    0.9368 O   0  0  0  0  0  0  0  0  0  0  0  0
   -0.8713   -0.9449   -0.0482 N   0  0  0  0  0  0  0  0  0  0  0  0
   -1.6543   -0.4189   -0.4062 H   0  0  0  0  0  0  0  0  0  0  0  0
    0.4237   -0.2649   -0.0462 C   0  0  1  0  0  0  0  0  0  0  0  0
    0.2685    0.7900   -0.2783 H   0  0  0  0  0  0  0  0  0  0  0  0
    1.0400   -0.3703    1.3572 C   0  0  0  0  0  0  0  0  0  0  0  0
    1.2013   -1.4185    1.6144 H   0  0  0  0  0  0  0  0  0  0  0  0
    1.9932    0.1565    1.3868 H   0  0  0  0  0  0  0  0  0  0  0  0
    0.3678    0.0799    2.0896 H   0  0  0  0  0  0  0  0  0  0  0  0
    1.3591   -0.8538   -1.1202 C   0  0  0  0  0  0  0  0  0  0  0  0
    1.1781   -0.6017   -2.3112 O   0  0  0  0  0  0  0  0  0  0  0  0
    2.3484   -1.6498   -0.6950 N   0  0  0  0  0  0  0  0  0  0  0  0
    2.4295   -1.8138    0.2958 H   0  0  0  0  0  0  0  0  0  0  0  0
    3.3157   -2.2951   -1.5814 C   0  0  0  0  0  0  0  0  0  0  0  0
    3.8096   -1.5418   -2.1984 H   0  0  0  0  0  0  0  0  0  0  0  0
    4.0668   -2.8302   -0.9987 H   0  0  0  0  0  0  0  0  0  0  0  0
    2.8007   -2.9977   -2.2387 H   0  0  0  0  0  0  0  0  0  0  0  0
  5  6  2  0  0  0  0
  5  7  1  0  0  0  0
  2  3  1  0  0  0  0
  2  4  1  0  0  0  0
  2  5  1  0  0  0  0
  1  2  1  0  0  0  0
 15 16  2  0  0  0  0
 15 17  1  0  0  0  0
 11 12  1  0  0  0  0
 11 13  1  0  0  0  0
 11 14  1  0  0  0  0
  9 10  1  0  0  0  0
  9 11  1  0  0  0  0
  9 15  1  0  0  0  0
  7  8  1  0  0  0  0
  7  9  1  0  0  0  0
 19 20  1  0  0  0  0
 19 21  1  0  0  0  0
 19 22  1  0  0  0  0
 17 18  1  0  0  0  0
 17 19  1  0  0  0  0
M  END
$$$$
default_name
  -OEChem-01062215323D

 22 21  0     1  0  0  0  0  0999 V2000
   -2.5423   -3.6749    0.8058 H   0  0  0  0  0  0  0  0  0  0  0  0
   -2.5063   -2.6779    0.3688 C   0  0  0  0  0  0  0  0  0  0  0  0
   -3.1603   -2.0109    0.9268 H   0  0  0  0  0  0  0  0  0  0  0  0
   -2.8193   -2.7229   -0.6722 H   0  0  0  0  0  0  0  0  0  0  0  0
   -1.0873   -2.1629    0.4418 C   0  0  0  0  0  0  0  0  0  0  0  0
   -0.2073   -2.8549    0.9368 O   0  0  0  0  0  0  0  0  0  0  0  0
   -0.8713   -0.9449   -0.0482 N   0  0  0  0  0  0  0  0  0  0  0  0
   -1.6543   -0.4189   -0.4062 H   0  0  0  0  0  0  0  0  0  0  0  0
    0.4237   -0.2649   -0.0462 C   0  0  1  0  0  0  0  0  0  0  0  0
    0.2685    0.7900   -0.2783 H   0  0  0  0  0  0  0  0  0  0  0  0
    1.0400   -0.3703    1.3572 C   0  0  0  0  0  0  0  0  0  0  0  0
    1.2013   -1.4185    1.6144 H   0  0  0  0  0  0  0  0  0  0  0  0
    1.9932    0.1565    1.3868 H   0  0  0  0  0  0  0  0  0  0  0  0
    0.3678    0.0799    2.0896 H   0  0  0  0  0  0  0  0  0  0  0  0
    1.3591   -0.8538   -1.1202 C   0  0  0  0  0  0  0  0  0  0  0  0
    1.3604   -0.3986   -2.2638 O   0  0  0  0  0  0  0  0  0  0  0  0
    2.1416   -1.8758   -0.7511 N   0  0  0  0  0  0  0  0  0  0  0  0
    2.0804   -2.1969    0.2019 H   0  0  0  0  0  0  0  0  0  0  0  0
    3.0773   -2.5533   -1.6474 C   0  0  0  0  0  0  0  0  0  0  0  0
    3.7604   -1.8235   -2.0867 H   0  0  0  0  0  0  0  0  0  0  0  0
    3.6539   -3.3005   -1.1004 H   0  0  0  0  0  0  0  0  0  0  0  0
    2.5266   -3.0412   -2.4535 H   0  0  0  0  0  0  0  0  0  0  0  0
  5  6  2  0  0  0  0
  5  7  1  0  0  0  0
  2  3  1  0  0  0  0
  2  4  1  0  0  0  0
  2  5  1  0  0  0  0
  1  2  1  0  0  0  0
 15 16  2  0  0  0  0
 15 17  1  0  0  0  0
 11 12  1  0  0  0  0
 11 13  1  0  0  0  0
 11 14  1  0  0  0  0
  9 10  1  0  0  0  0
  9 11  1  0  0  0  0
  9 15  1  0  0  0  0
  7  8  1  0  0  0  0
  7  9  1  0  0  0  0
 19 20  1  0  0  0  0
 19 21  1  0  0  0  0
 19 22  1  0  0  0  0
 17 18  1  0  0  0  0
 17 19  1  0  0  0  0
M  END
$$$$
default_name
  -OEChem-01062215323D

 22 21  0     1  0  0  0  0  0999 V2000
   -2.5423   -3.6749    0.8058 H   0  0  0  0  0  0  0  0  0  0  0  0
   -2.5063   -2.6779    0.3688 C   0  0  0  0  0  0  0  0  0  0  0  0
   -3.1603   -2.0109    0.9268 H   0  0  0  0  0  0  0  0  0  0  0  0
   -2.8193   -2.7229   -0.6722 H   0  0  0  0  0  0  0  0  0  0  0  0
   -1.0873   -2.1629    0.4418 C   0  0  0  0  0  0  0  0  0  0  0  0
   -0.2073   -2.8549    0.9368 O   0  0  0  0  0  0  0  0  0  0  0  0
   -0.8713   -0.9449   -0.0482 N   0  0  0  0  0  0  0  0  0  0  0  0
   -1.6543   -0.4189   -0.4062 H   0  0  0  0  0  0  0  0  0  0  0  0
    0.4237   -0.2649   -0.0462 C   0  0  1  0  0  0  0  0  0  0  0  0
    0.2685    0.7900   -0.2783 H   0  0  0  0  0  0  0  0  0  0  0  0
    1.0400   -0.3703    1.3572 C   0  0  0  0  0  0  0  0  0  0  0  0
    1.2013   -1.4185    1.6144 H   0  0  0  0  0  0  0  0  0  0  0  0
    1.9932    0.1565    1.3868 H   0  0  0  0  0  0  0  0  0  0  0  0
    0.3678    0.0799    2.0896 H   0  0  0  0  0  0  0  0  0  0  0  0
    1.3591   -0.8538   -1.1202 C   0  0  0  0  0  0  0  0  0  0  0  0
    1.5685   -0.2429   -2.1680 O   0  0  0  0  0  0  0  0  0  0  0  0
    1.9067   -2.0480   -0.8612 N   0  0  0  0  0  0  0  0  0  0  0  0
    1.6835   -2.4893    0.0165 H   0  0  0  0  0  0  0  0  0  0  0  0
    2.8070   -2.7493   -1.7754 C   0  0  0  0  0  0  0  0  0  0  0  0
    3.6510   -2.1043   -2.0280 H   0  0  0  0  0  0  0  0  0  0  0  0
    3.1804   -3.6643   -1.3134 H   0  0  0  0  0  0  0  0  0  0  0  0
    2.2754   -3.0000   -2.6949 H   0  0  0  0  0  0  0  0  0  0  0  0
  5  6  2  0  0  0  0
  5  7  1  0  0  0  0
  2  3  1  0  0  0  0
  2  4  1  0  0  0  0
  2  5  1  0  0  0  0
  1  2  1  0  0  0  0
 15 16  2  0  0  0  0
 15 17  1  0  0  0  0
 11 12  1  0  0  0  0
 11 13  1  0  0  0  0
 11 14  1  0  0  0  0
  9 10  1  0  0  0  0
  9 11  1  0  0  0  0
  9 15  1  0  0  0  0
  7  8  1  0  0  0  0
  7  9  1  0  0  0  0
 19 20  1  0  0  0  0
 19 21  1  0  0  0  0
 19 22  1  0  0  0  0
 17 18  1  0  0  0  0
 17 19  1  0  0  0  0
M  END
$$$$
default_name
  -OEChem-01062215323D

 22 21  0     1  0  0  0  0  0999 V2000
   -2.5423   -3.6749    0.8058 H   0  0  0  0  0  0  0  0  0  0  0  0
   -2.5063   -2.6779    0.3688 C   0  0  0  0  0  0  0  0  0  0  0  0
   -3.1603   -2.0109    0.9268 H   0  0  0  0  0  0  0  0  0  0  0  0
   -2.8193   -2.7229   -0.6722 H   0  0  0  0  0  0  0  0  0  0  0  0
   -1.0873   -2.1629    0.4418 C   0  0  0  0  0  0  0  0  0  0  0  0
   -0.2073   -2.8549    0.9368 O   0  0  0  0  0  0  0  0  0  0  0  0
   -0.8713   -0.9449   -0.0482 N   0  0  0  0  0  0  0  0  0  0  0  0
   -1.6543   -0.4189   -0.4062 H   0  0  0  0  0  0  0  0  0  0  0  0
    0.4237   -0.2649   -0.0462 C   0  0  1  0  0  0  0  0  0  0  0  0
    0.2685    0.7900   -0.2783 H   0  0  0  0  0  0  0  0  0  0  0  0
    1.0400   -0.3703    1.3572 C   0  0  0  0  0  0  0  0  0  0  0  0
    1.2013   -1.4185    1.6144 H   0  0  0  0  0  0  0  0  0  0  0  0
    1.9932    0.1565    1.3868 H   0  0  0  0  0  0  0  0  0  0  0  0
    0.3678    0.0799    2.0896 H   0  0  0  0  0  0  0  0  0  0  0  0
    1.3591   -0.8538   -1.1202 C   0  0  0  0  0  0  0  0  0  0  0  0
    1.7881   -0.1450   -2.0304 O   0  0  0  0  0  0  0  0  0  0  0  0
    1.6596   -2.1547   -1.0179 N   0  0  0  0  0  0  0  0  0  0  0  0
    1.2656   -2.6710   -0.2478 H   0  0  0  0  0  0  0  0  0  0  0  0
    2.5232   -2.8697   -1.9565 C   0  0  0  0  0  0  0  0  0  0  0  0
    3.4889   -2.3650   -2.0262 H   0  0  0  0  0  0  0  0  0  0  0  0
    2.6784   -3.8968   -1.6231 H   0  0  0  0  0  0  0  0  0  0  0  0
    2.0639   -2.8770   -2.9465 H   0  0  0  0  0  0  0  0  0  0  0  0
  5  6  2  0  0  0  0
  5  7  1  0  0  0  0
  2  3  1  0  0  0  0
  2  4  1  0  0  0  0
  2  5  1  0  0  0  0
  1  2  1  0  0  0  0
 15 16  2  0  0  0  0
 15 17  1  0  0  0  0
 11 12  1  0  0  0  0
 11 13  1  0  0  0  0
 11 14  1  0  0  0  0
  9 10  1  0  0  0  0
  9 11  1  0  0  0  0
  9 15  1  0  0  0  0
  7  8  1  0  0  0  0
  7  9  1  0  0  0  0
 19 20  1  0  0  0  0
 19 21  1  0  0  0  0
 19 22  1  0  0  0  0
 17 18  1  0  0  0  0
 17 19  1  0  0  0  0
M  END
$$$$
default_name
  -OEChem-01062215323D

 22 21  0     1  0  0  0  0  0999 V2000
   -2.5423   -3.6749    0.8058 H   0  0  0  0  0  0  0  0  0  0  0  0
   -2.5063   -2.6779    0.3688 C   0  0  0  0  0  0  0  0  0  0  0  0
   -3.1603   -2.0109    0.9268 H   0  0  0  0  0  0  0  0  0  0  0  0
   -2.8193   -2.7229   -0.6722 H   0  0  0  0  0  0  0  0  0  0  0  0
   -1.0873   -2.1629    0.4418 C   0  0  0  0  0  0  0  0  0  0  0  0
   -0.2073   -2.8549    0.9368 O   0  0  0  0  0  0  0  0  0  0  0  0
   -0.8713   -0.9449   -0.0482 N   0  0  0  0  0  0  0  0  0  0  0  0
   -1.6543   -0.4189   -0.4062 H   0  0  0  0  0  0  0  0  0  0  0  0
    0.4237   -0.2649   -0.0462 C   0  0  1  0  0  0  0  0  0  0  0  0
    0.2685    0.7900   -0.2783 H   0  0  0  0  0  0  0  0  0  0  0  0
    1.0400   -0.3703    1.3572 C   0  0  0  0  0  0  0  0  0  0  0  0
    1.2013   -1.4185    1.6144 H   0  0  0  0  0  0  0  0  0  0  0  0
    1.9932    0.1565    1.3868 H   0  0  0  0  0  0  0  0  0  0  0  0
    0.3678    0.0799    2.0896 H   0  0  0  0  0  0  0  0  0  0  0  0
    1.3591   -0.8538   -1.1202 C   0  0  0  0  0  0  0  0  0  0  0  0
    2.0042   -0.1117   -1.8604 O   0  0  0  0  0  0  0  0  0  0  0  0
    1.4172   -2.1886   -1.2105 N   0  0  0  0  0  0  0  0  0  0  0  0
    0.8554   -2.7297   -0.5729 H   0  0  0  0  0  0  0  0  0  0  0  0
    2.2452   -2.9064   -2.1785 C   0  0  0  0  0  0  0  0  0  0  0  0
    3.2851   -2.5879   -2.0815 H   0  0  0  0  0  0  0  0  0  0  0  0
    2.1822   -3.9822   -2.0084 H   0  0  0  0  0  0  0  0  0  0  0  0
    1.9068   -2.6805   -3.1911 H   0  0  0  0  0  0  0  0  0  0  0  0
  5  6  2  0  0  0  0
  5  7  1  0  0  0  0
  2  3  1  0  0  0  0
  2  4  1  0  0  0  0
  2  5  1  0  0  0  0
  1  2  1  0  0  0  0
 15 16  2  0  0  0  0
 15 17  1  0  0  0  0
 11 12  1  0  0  0  0
 11 13  1  0  0  0  0
 11 14  1  0  0  0  0
  9 10  1  0  0  0  0
  9 11  1  0  0  0  0
  9 15  1  0  0  0  0
  7  8  1  0  0  0  0
  7  9  1  0  0  0  0
 19 20  1  0  0  0  0
 19 21  1  0  0  0  0
 19 22  1  0  0  0  0
 17 18  1  0  0  0  0
 17 19  1  0  0  0  0
M  END
$$$$
default_name
  -OEChem-01062215323D

 22 21  0     1  0  0  0  0  0999 V2000
   -2.5423   -3.6749    0.8058 H   0  0  0  0  0  0  0  0  0  0  0  0
   -2.5063   -2.6779    0.3688 C   0  0  0  0  0  0  0  0  0  0  0  0
   -3.1603   -2.0109    0.9268 H   0  0  0  0  0  0  0  0  0  0  0  0
   -2.8193   -2.7229   -0.6722 H   0  0  0  0  0  0  0  0  0  0  0  0
   -1.0873   -2.1629    0.4418 C   0  0  0  0  0  0  0  0  0  0  0  0
   -0.2073   -2.8549    0.9368 O   0  0  0  0  0  0  0  0  0  0  0  0
   -0.8713   -0.9449   -0.0482 N   0  0  0  0  0  0  0  0  0  0  0  0
   -1.6543   -0.4189   -0.4062 H   0  0  0  0  0  0  0  0  0  0  0  0
    0.4237   -0.2649   -0.0462 C   0  0  1  0  0  0  0  0  0  0  0  0
    0.2685    0.7900   -0.2783 H   0  0  0  0  0  0  0  0  0  0  0  0
    1.0400   -0.3703    1.3572 C   0  0  0  0  0  0  0  0  0  0  0  0
    1.2013   -1.4185    1.6144 H   0  0  0  0  0  0  0  0  0  0  0  0
    1.9932    0.1565    1.3868 H   0  0  0  0  0  0  0  0  0  0  0  0
    0.3678    0.0799    2.0896 H   0  0  0  0  0  0  0  0  0  0  0  0
    1.3591   -0.8538   -1.1202 C   0  0  0  0  0  0  0  0  0  0  0  0
    2.2022   -0.1452   -1.6696 O   0  0  0  0  0  0  0  0  0  0  0  0
    1.1960   -2.1473   -1.4258 N   0  0  0  0  0  0  0  0  0  0  0  0
    0.4807   -2.6613   -0.9367 H   0  0  0  0  0  0  0  0  0  0  0  0
    1.9921   -2.8569   -2.4261 C   0  0  0  0  0  0  0  0  0  0  0  0
    3.0535   -2.7578   -2.1901 H   0  0  0  0  0  0  0  0  0  0  0  0
    1.7256   -3.9146   -2.4431 H   0  0  0  0  0  0  0  0  0  0  0  0
    1.8147   -2.4239   -3.4120 H   0  0  0  0  0  0  0  0  0  0  0  0
  5  6  2  0  0  0  0
  5  7  1  0  0  0  0
  2  3  1  0  0  0  0
  2  4  1  0  0  0  0
  2  5  1  0  0  0  0
  1  2  1  0  0  0  0
 15 16  2  0  0  0  0
 15 17  1  0  0  0  0
 11 12  1  0  0  0  0
 11 13  1  0  0  0  0
 11 14  1  0  0  0  0
  9 10  1  0  0  0  0
  9 11  1  0  0  0  0
  9 15  1  0  0  0  0
  7  8  1  0  0  0  0
  7  9  1  0  0  0  0
 19 20  1  0  0  0  0
 19 21  1  0  0  0  0
 19 22  1  0  0  0  0
 17 18  1  0  0  0  0
 17 19  1  0  0  0  0
M  END
$$$$
default_name
  -OEChem-01062215323D

 22 21  0     1  0  0  0  0  0999 V2000
   -2.5423   -3.6749    0.8058 H   0  0  0  0  0  0  0  0  0  0  0  0
   -2.5063   -2.6779    0.3688 C   0  0  0  0  0  0  0  0  0  0  0  0
   -3.1603   -2.0109    0.9268 H   0  0  0  0  0  0  0  0  0  0  0  0
   -2.8193   -2.7229   -0.6722 H   0  0  0  0  0  0  0  0  0  0  0  0
   -1.0873   -2.1629    0.4418 C   0  0  0  0  0  0  0  0  0  0  0  0
   -0.2073   -2.8549    0.9368 O   0  0  0  0  0  0  0  0  0  0  0  0
   -0.8713   -0.9449   -0.0482 N   0  0  0  0  0  0  0  0  0  0  0  0
   -1.6543   -0.4189   -0.4062 H   0  0  0  0  0  0  0  0  0  0  0  0
    0.4237   -0.2649   -0.0462 C   0  0  1  0  0  0  0  0  0  0  0  0
    0.2685    0.7900   -0.2783 H   0  0  0  0  0  0  0  0  0  0  0  0
    1.0400   -0.3703    1.3572 C   0  0  0  0  0  0  0  0  0  0  0  0
    1.2013   -1.4185    1.6144 H   0  0  0  0  0  0  0  0  0  0  0  0
    1.9932    0.1565    1.3868 H   0  0  0  0  0  0  0  0  0  0  0  0
    0.3678    0.0799    2.0896 H   0  0  0  0  0  0  0  0  0  0  0  0
    1.3591   -0.8538   -1.1202 C   0  0  0  0  0  0  0  0  0  0  0  0
    2.3685   -0.2432   -1.4710 O   0  0  0  0  0  0  0  0  0  0  0  0
    1.0110   -2.0337   -1.6491 N   0  0  0  0  0  0  0  0  0  0  0  0
    0.1671   -2.4705   -1.3145 H   0  0  0  0  0  0  0  0  0  0  0  0
    1.7810   -2.7245   -2.6825 C   0  0  0  0  0  0  0  0  0  0  0  0
    2.8099   -2.8630   -2.3445 H   0  0  0  0  0  0  0  0  0  0  0  0
    1.3397   -3.6988   -2.8975 H   0  0  0  0  0  0  0  0  0  0  0  0
    1.7938   -2.1248   -3.5943 H   0  0  0  0  0  0  0  0  0  0  0  0
  5  6  2  0  0  0  0
  5  7  1  0  0  0  0
  2  3  1  0  0  0  0
  2  4  1  0  0  0  0
  2  5  1  0  0  0  0
  1  2  1  0  0  0  0
 15 16  2  0  0  0  0
 15 17  1  0  0  0  0
 11 12  1  0  0  0  0
 11 13  1  0  0  0  0
 11 14  1  0  0  0  0
  9 10  1  0  0  0  0
  9 11  1  0  0  0  0
  9 15  1  0  0  0  0
  7  8  1  0  0  0  0
  7  9  1  0  0  0  0
 19 20  1  0  0  0  0
 19 21  1  0  0  0  0
 19 22  1  0  0  0  0
 17 18  1  0  0  0  0
 17 19  1  0  0  0  0
M  END
$$$$
default_name
  -OEChem-01062215323D

 22 21  0     1  0  0  0  0  0999 V2000
   -2.5423   -3.6749    0.8058 H   0  0  0  0  0  0  0  0  0  0  0  0
   -2.5063   -2.6779    0.3688 C   0  0  0  0  0  0  0  0  0  0  0  0
   -3.1603   -2.0109    0.9268 H   0  0  0  0  0  0  0  0  0  0  0  0
   -2.8193   -2.7229   -0.6722 H   0  0  0  0  0  0  0  0  0  0  0  0
   -1.0873   -2.1629    0.4418 C   0  0  0  0  0  0  0  0  0  0  0  0
   -0.2073   -2.8549    0.9368 O   0  0  0  0  0  0  0  0  0  0  0  0
   -0.8713   -0.9449   -0.0482 N   0  0  0  0  0  0  0  0  0  0  0  0
   -1.6543   -0.4189   -0.4062 H   0  0  0  0  0  0  0  0  0  0  0  0
    0.4237   -0.2649   -0.0462 C   0  0  1  0  0  0  0  0  0  0  0  0
    0.2685    0.7900   -0.2783 H   0  0  0  0  0  0  0  0  0  0  0  0
    1.0400   -0.3703    1.3572 C   0  0  0  0  0  0  0  0  0  0  0  0
    1.2013   -1.4185    1.6144 H   0  0  0  0  0  0  0  0  0  0  0  0
    1.9932    0.1565    1.3868 H   0  0  0  0  0  0  0  0  0  0  0  0
    0.3678    0.0799    2.0896 H   0  0  0  0  0  0  0  0  0  0  0  0
    1.3591   -0.8538   -1.1202 C   0  0  0  0  0  0  0  0  0  0  0  0
    2.4919   -0.3991   -1.2781 O   0  0  0  0  0  0  0  0  0  0  0  0
    0.8750   -1.8556   -1.8653 N   0  0  0  0  0  0  0  0  0  0  0  0
   -0.0641   -2.1703   -1.6804 H   0  0  0  0  0  0  0  0  0  0  0  0
    1.6263   -2.5183   -2.9303 C   0  0  0  0  0  0  0  0  0  0  0  0
    2.5709   -2.8965   -2.5343 H   0  0  0  0  0  0  0  0  0  0  0  0
    1.0509   -3.3493   -3.3407 H   0  0  0  0  0  0  0  0  0  0  0  0
    1.8456   -1.8035   -3.7254 H   0  0  0  0  0  0  0  0  0  0  0  0
  5  6  2  0  0  0  0
  5  7  1  0  0  0  0
  2  3  1  0  0  0  0
  2  4  1  0  0  0  0
  2  5  1  0  0  0  0
  1  2  1  0  0  0  0
 15 16  2  0  0  0  0
 15 17  1  0  0  0  0
 11 12  1  0  0  0  0
 11 13  1  0  0  0  0
 11 14  1  0  0  0  0
  9 10  1  0  0  0  0
  9 11  1  0  0  0  0
  9 15  1  0  0  0  0
  7  8  1  0  0  0  0
  7  9  1  0  0  0  0
 19 20  1  0  0  0  0
 19 21  1  0  0  0  0
 19 22  1  0  0  0  0
 17 18  1  0  0  0  0
 17 19  1  0  0  0  0
M  END
$$$$
default_name
  -OEChem-01062215323D

 22 21  0     1  0  0  0  0  0999 V2000
   -2.5423   -3.6749    0.8058 H   0  0  0  0  0  0  0  0  0  0  0  0
   -2.5063   -2.6779    0.3688 C   0  0  0  0  0  0  0  0  0  0  0  0
   -3.1603   -2.0109    0.9268 H   0  0  0  0  0  0  0  0  0  0  0  0
   -2.8193   -2.7229   -0.6722 H   0  0  0  0  0  0  0  0  0  0  0  0
   -1.0873   -2.1629    0.4418 C   0  0  0  0  0  0  0  0  0  0  0  0
   -0.2073   -2.8549    0.9368 O   0  0  0  0  0  0  0  0  0  0  0  0
   -0.8713   -0.9449   -0.0482 N   0  0  0  0  0  0  0  0  0  0  0  0
   -1.6543   -0.4189   -0.4062 H   0  0  0  0  0  0  0  0  0  0  0  0
    0.4237   -0.2649   -0.0462 C   0  0  1  0  0  0  0  0  0  0  0  0
    0.2685    0.7900   -0.2783 H   0  0  0  0  0  0  0  0  0  0  0  0
    1.0400   -0.3703    1.3572 C   0  0  0  0  0  0  0  0  0  0  0  0
    1.2013   -1.4185    1.6144 H   0  0  0  0  0  0  0  0  0  0  0  0
    1.9932    0.1565    1.3868 H   0  0  0  0  0  0  0  0  0  0  0  0
    0.3678    0.0799    2.0896 H   0  0  0  0  0  0  0  0  0  0  0  0
    1.3591   -0.8538   -1.1202 C   0  0  0  0  0  0  0  0  0  0  0  0
    2.5638   -0.6022   -1.1041 O   0  0  0  0  0  0  0  0  0  0  0  0
    0.7971   -1.6250   -2.0596 N   0  0  0  0  0  0  0  0  0  0  0  0
   -0.1970   -1.7811   -2.0096 H   0  0  0  0  0  0  0  0  0  0  0  0
    1.5386   -2.2522   -3.1526 C   0  0  0  0  0  0  0  0  0  0  0  0
    2.3528   -2.8559   -2.7465 H   0  0  0  0  0  0  0  0  0  0  0  0
    0.8788   -2.8900   -3.7425 H   0  0  0  0  0  0  0  0  0  0  0  0
    1.9665   -1.4819   -3.7964 H   0  0  0  0  0  0  0  0  0  0  0  0
  5  6  2  0  0  0  0
  5  7  1  0  0  0  0
  2  3  1  0  0  0  0
  2  4  1  0  0  0  0
  2  5  1  0  0  0  0
  1  2  1  0  0  0  0
 15 16  2  0  0  0  0
 15 17  1  0  0  0  0
 11 12  1  0  0  0  0
 11 13  1  0  0  0  0
 11 14  1  0  0  0  0
  9 10  1  0  0  0  0
  9 11  1  0  0  0  0
  9 15  1  0  0  0  0
  7  8  1  0  0  0  0
  7  9  1  0  0  0  0
 19 20  1  0  0  0  0
 19 21  1  0  0  0  0
 19 22  1  0  0  0  0
 17 18  1  0  0  0  0
 17 19  1  0  0  0  0
M  END
$$$$
default_name
  -OEChem-01062215323D

 22 21  0     1  0  0  0  0  0999 V2000
   -2.5423   -3.6749    0.8058 H   0  0  0  0  0  0  0  0  0  0  0  0
   -2.5063   -2.6779    0.3688 C   0  0  0  0  0  0  0  0  0  0  0  0
   -3.1603   -2.0109    0.9268 H   0  0  0  0  0  0  0  0  0  0  0  0
   -2.8193   -2.7229   -0.6722 H   0  0  0  0  0  0  0  0  0  0  0  0
   -1.0873   -2.1629    0.4418 C   0  0  0  0  0  0  0  0  0  0  0  0
   -0.2073   -2.8549    0.9368 O   0  0  0  0  0  0  0  0  0  0  0  0
   -0.8713   -0.9449   -0.0482 N   0  0  0  0  0  0  0  0  0  0  0  0
   -1.6543   -0.4189   -0.4062 H   0  0  0  0  0  0  0  0  0  0  0  0
    0.4237   -0.2649   -0.0462 C   0  0  1  0  0  0  0  0  0  0  0  0
    0.2685    0.7900   -0.2783 H   0  0  0  0  0  0  0  0  0  0  0  0
    1.0400   -0.3703    1.3572 C   0  0  0  0  0  0  0  0  0  0  0  0
    1.2013   -1.4185    1.6144 H   0  0  0  0  0  0  0  0  0  0  0  0
    1.9932    0.1565    1.3868 H   0  0  0  0  0  0  0  0  0  0  0  0
    0.3678    0.0799    2.0896 H   0  0  0  0  0  0  0  0  0  0  0  0
    1.3591   -0.8538   -1.1202 C   0  0  0  0  0  0  0  0  0  0  0  0
    2.5794   -0.8387   -0.9608 O   0  0  0  0  0  0  0  0  0  0  0  0
    0.7826   -1.3577   -2.2188 N   0  0  0  0  0  0  0  0  0  0  0  0
   -0.2226   -1.3295   -2.2795 H   0  0  0  0  0  0  0  0  0  0  0  0
    1.5239   -1.9445   -3.3341 C   0  0  0  0  0  0  0  0  0  0  0  0
    2.1704   -2.7440   -2.9667 H   0  0  0  0  0  0  0  0  0  0  0  0
    0.8351   -2.3522   -4.0754 H   0  0  0  0  0  0  0  0  0  0  0  0
    2.1484   -1.1818   -3.8025 H   0  0  0  0  0  0  0  0  0  0  0  0
  5  6  2  0  0  0  0
  5  7  1  0  0  0  0
  2  3  1  0  0  0  0
  2  4  1  0  0  0  0
  2  5  1  0  0  0  0
  1  2  1  0  0  0  0
 15 16  2  0  0  0  0
 15 17  1  0  0  0  0
 11 12  1  0  0  0  0
 11 13  1  0  0  0  0
 11 14  1  0  0  0  0
  9 10  1  0  0  0  0
  9 11  1  0  0  0  0
  9 15  1  0  0  0  0
  7  8  1  0  0  0  0
  7  9  1  0  0  0  0
 19 20  1  0  0  0  0
 19 21  1  0  0  0  0
 19 22  1  0  0  0  0
 17 18  1  0  0  0  0
 17 19  1  0  0  0  0
M  END
$$$$
default_name
  -OEChem-01062215323D

 22 21  0     1  0  0  0  0  0999 V2000
   -2.5423   -3.6749    0.8058 H   0  0  0  0  0  0  0  0  0  0  0  0
   -2.5063   -2.6779    0.3688 C   0  0  0  0  0  0  0  0  0  0  0  0
   -3.1603   -2.0109    0.9268 H   0  0  0  0  0  0  0  0  0  0  0  0
   -2.8193   -2.7229   -0.6722 H   0  0  0  0  0  0  0  0  0  0  0  0
   -1.0873   -2.1629    0.4418 C   0  0  0  0  0  0  0  0  0  0  0  0
   -0.2073   -2.8549    0.9368 O   0  0  0  0  0  0  0  0  0  0  0  0
   -0.8713   -0.9449   -0.0482 N   0  0  0  0  0  0  0  0  0  0  0  0
   -1.6543   -0.4189   -0.4062 H   0  0  0  0  0  0  0  0  0  0  0  0
    0.4237   -0.2649   -0.0462 C   0  0  1  0  0  0  0  0  0  0  0  0
    0.2685    0.7900   -0.2783 H   0  0  0  0  0  0  0  0  0  0  0  0
    1.0400   -0.3703    1.3572 C   0  0  0  0  0  0  0  0  0  0  0  0
    1.2013   -1.4185    1.6144 H   0  0  0  0  0  0  0  0  0  0  0  0
    1.9932    0.1565    1.3868 H   0  0  0  0  0  0  0  0  0  0  0  0
    0.3678    0.0799    2.0896 H   0  0  0  0  0  0  0  0  0  0  0  0
    1.3591   -0.8538   -1.1202 C   0  0  0  0  0  0  0  0  0  0  0  0
    2.5377   -1.0925   -0.8579 O   0  0  0  0  0  0  0  0  0  0  0  0
    0.8326   -1.0720   -2.3320 N   0  0  0  0  0  0  0  0  0  0  0  0
   -0.1393   -0.8463   -2.4719 H   0  0  0  0  0  0  0  0  0  0  0  0
    1.5831   -1.6161   -3.4626 C   0  0  0  0  0  0  0  0  0  0  0  0
    2.0362   -2.5684   -3.1799 H   0  0  0  0  0  0  0  0  0  0  0  0
    0.9229   -1.7726   -4.3169 H   0  0  0  0  0  0  0  0  0  0  0  0
    2.3788   -0.9239   -3.7433 H   0  0  0  0  0  0  0  0  0  0  0  0
  5  6  2  0  0  0  0
  5  7  1  0  0  0  0
  2  3  1  0  0  0  0
  2  4  1  0  0  0  0
  2  5  1  0  0  0  0
  1  2  1  0  0  0  0
 15 16  2  0  0  0  0
 15 17  1  0  0  0  0
 11 12  1  0  0  0  0
 11 13  1  0  0  0  0
 11 14  1  0  0  0  0
  9 10  1  0  0  0  0
  9 11  1  0  0  0  0
  9 15  1  0  0  0  0
  7  8  1  0  0  0  0
  7  9  1  0  0  0  0
 19 20  1  0  0  0  0
 19 21  1  0  0  0  0
 19 22  1  0  0  0  0
 17 18  1  0  0  0  0
 17 19  1  0  0  0  0
M  END
$$$$
default_name
  -OEChem-01062215323D

 22 21  0     1  0  0  0  0  0999 V2000
   -2.5423   -3.6749    0.8058 H   0  0  0  0  0  0  0  0  0  0  0  0
   -2.5063   -2.6779    0.3688 C   0  0  0  0  0  0  0  0  0  0  0  0
   -3.1603   -2.0109    0.9268 H   0  0  0  0  0  0  0  0  0  0  0  0
   -2.8193   -2.7229   -0.6722 H   0  0  0  0  0  0  0  0  0  0  0  0
   -1.0873   -2.1629    0.4418 C   0  0  0  0  0  0  0  0  0  0  0  0
   -0.2073   -2.8549    0.9368 O   0  0  0  0  0  0  0  0  0  0  0  0
   -0.8713   -0.9449   -0.0482 N   0  0  0  0  0  0  0  0  0  0  0  0
   -1.6543   -0.4189   -0.4062 H   0  0  0  0  0  0  0  0  0  0  0  0
    0.4237   -0.2649   -0.0462 C   0  0  1  0  0  0  0  0  0  0  0  0
    0.2685    0.7900   -0.2783 H   0  0  0  0  0  0  0  0  0  0  0  0
    1.0400   -0.3703    1.3572 C   0  0  0  0  0  0  0  0  0  0  0  0
    1.2013   -1.4185    1.6144 H   0  0  0  0  0  0  0  0  0  0  0  0
    1.9932    0.1565    1.3868 H   0  0  0  0  0  0  0  0  0  0  0  0
    0.3678    0.0799    2.0896 H   0  0  0  0  0  0  0  0  0  0  0  0
    1.3591   -0.8538   -1.1202 C   0  0  0  0  0  0  0  0  0  0  0  0
    2.4415   -1.3463   -0.8026 O   0  0  0  0  0  0  0  0  0  0  0  0
    0.9436   -0.7871   -2.3914 N   0  0  0  0  0  0  0  0  0  0  0  0
    0.0474   -0.3644   -2.5736 H   0  0  0  0  0  0  0  0  0  0  0  0
    1.7123   -1.2894   -3.5293 C   0  0  0  0  0  0  0  0  0  0  0  0
    1.9593   -2.3412   -3.3715 H   0  0  0  0  0  0  0  0  0  0  0  0
    1.1360   -1.1906   -4.4503 H   0  0  0  0  0  0  0  0  0  0  0  0
    2.6420   -0.7256   -3.6228 H   0  0  0  0  0  0  0  0  0  0  0  0
  5  6  2  0  0  0  0
  5  7  1  0  0  0  0
  2  3  1  0  0  0  0
  2  4  1  0  0  0  0
  2  5  1  0  0  0  0
  1  2  1  0  0  0  0
 15 16  2  0  0  0  0
 15 17  1  0  0  0  0
 11 12  1  0  0  0  0
 11 13  1  0  0  0  0
 11 14  1  0  0  0  0
  9 10  1  0  0  0  0
  9 11  1  0  0  0  0
  9 15  1  0  0  0  0
  7  8  1  0  0  0  0
  7  9  1  0  0  0  0
 19 20  1  0  0  0  0
 19 21  1  0  0  0  0
 19 22  1  0  0  0  0
 17 18  1  0  0  0  0
 17 19  1  0  0  0  0
M  END
$$$$
default_name
  -OEChem-01062215323D

 22 21  0     1  0  0  0  0  0999 V2000
   -2.5423   -3.6749    0.8058 H   0  0  0  0  0  0  0  0  0  0  0  0
   -2.5063   -2.6779    0.3688 C   0  0  0  0  0  0  0  0  0  0  0  0
   -3.1603   -2.0109    0.9268 H   0  0  0  0  0  0  0  0  0  0  0  0
   -2.8193   -2.7229   -0.6722 H   0  0  0  0  0  0  0  0  0  0  0  0
   -1.0873   -2.1629    0.4418 C   0  0  0  0  0  0  0  0  0  0  0  0
   -0.2073   -2.8549    0.9368 O   0  0  0  0  0  0  0  0  0  0  0  0
   -0.8713   -0.9449   -0.0482 N   0  0  0  0  0  0  0  0  0  0  0  0
   -1.6543   -0.4189   -0.4062 H   0  0  0  0  0  0  0  0  0  0  0  0
    0.4237   -0.2649   -0.0462 C   0  0  1  0  0  0  0  0  0  0  0  0
    0.2685    0.7900   -0.2783 H   0  0  0  0  0  0  0  0  0  0  0  0
    1.0400   -0.3703    1.3572 C   0  0  0  0  0  0  0  0  0  0  0  0
    1.2013   -1.4185    1.6144 H   0  0  0  0  0  0  0  0  0  0  0  0
    1.9932    0.1565    1.3868 H   0  0  0  0  0  0  0  0  0  0  0  0
    0.3678    0.0799    2.0896 H   0  0  0  0  0  0  0  0  0  0  0  0
    1.3591   -0.8538   -1.1202 C   0  0  0  0  0  0  0  0  0  0  0  0
    2.2972   -1.5827   -0.7985 O   0  0  0  0  0  0  0  0  0  0  0  0
    1.1081   -0.5227   -2.3932 N   0  0  0  0  0  0  0  0  0  0  0  0
    0.3248    0.0834   -2.5776 H   0  0  0  0  0  0  0  0  0  0  0  0
    1.9025   -0.9867   -3.5296 C   0  0  0  0  0  0  0  0  0  0  0  0
    1.9450   -2.0777   -3.5284 H   0  0  0  0  0  0  0  0  0  0  0  0
    1.4601   -0.6459   -4.4668 H   0  0  0  0  0  0  0  0  0  0  0  0
    2.9201   -0.6004   -3.4493 H   0  0  0  0  0  0  0  0  0  0  0  0
  5  6  2  0  0  0  0
  5  7  1  0  0  0  0
  2  3  1  0  0  0  0
  2  4  1  0  0  0  0
  2  5  1  0  0  0  0
  1  2  1  0  0  0  0
 15 16  2  0  0  0  0
 15 17  1  0  0  0  0
 11 12  1  0  0  0  0
 11 13  1  0  0  0  0
 11 14  1  0  0  0  0
  9 10  1  0  0  0  0
  9 11  1  0  0  0  0
  9 15  1  0  0  0  0
  7  8  1  0  0  0  0
  7  9  1  0  0  0  0
 19 20  1  0  0  0  0
 19 21  1  0  0  0  0
 19 22  1  0  0  0  0
 17 18  1  0  0  0  0
 17 19  1  0  0  0  0
M  END
$$$$
default_name
  -OEChem-01062215323D

 22 21  0     1  0  0  0  0  0999 V2000
   -2.5423   -3.6749    0.8058 H   0  0  0  0  0  0  0  0  0  0  0  0
   -2.5063   -2.6779    0.3688 C   0  0  0  0  0  0  0  0  0  0  0  0
   -3.1603   -2.0109    0.9268 H   0  0  0  0  0  0  0  0  0  0  0  0
   -2.8193   -2.7229   -0.6722 H   0  0  0  0  0  0  0  0  0  0  0  0
   -1.0873   -2.1629    0.4418 C   0  0  0  0  0  0  0  0  0  0  0  0
   -0.2073   -2.8549    0.9368 O   0  0  0  0  0  0  0  0  0  0  0  0
   -0.8713   -0.9449   -0.0482 N   0  0  0  0  0  0  0  0  0  0  0  0
   -1.6543   -0.4189   -0.4062 H   0  0  0  0  0  0  0  0  0  0  0  0
    0.4237   -0.2649   -0.0462 C   0  0  1  0  0  0  0  0  0  0  0  0
    0.2685    0.7900   -0.2783 H   0  0  0  0  0  0  0  0  0  0  0  0
    1.0400   -0.3703    1.3572 C   0  0  0  0  0  0  0  0  0  0  0  0
    1.2013   -1.4185    1.6144 H   0  0  0  0  0  0  0  0  0  0  0  0
    1.9932    0.1565    1.3868 H   0  0  0  0  0  0  0  0  0  0  0  0
    0.3678    0.0799    2.0896 H   0  0  0  0  0  0  0  0  0  0  0  0
    1.3591   -0.8538   -1.1202 C   0  0  0  0  0  0  0  0  0  0  0  0
    2.1149   -1.7858   -0.8460 O   0  0  0  0  0  0  0  0  0  0  0  0
    1.3149   -0.2967   -2.3371 N   0  0  0  0  0  0  0  0  0  0  0  0
    0.6738    0.4666   -2.4837 H   0  0  0  0  0  0  0  0  0  0  0  0
    2.1409   -0.7285   -3.4636 C   0  0  0  0  0  0  0  0  0  0  0  0
    1.9942   -1.7959   -3.6401 H   0  0  0  0  0  0  0  0  0  0  0  0
    1.8730   -0.1756   -4.3650 H   0  0  0  0  0  0  0  0  0  0  0  0
    3.1941   -0.5570   -3.2344 H   0  0  0  0  0  0  0  0  0  0  0  0
  5  6  2  0  0  0  0
  5  7  1  0  0  0  0
  2  3  1  0  0  0  0
  2  4  1  0  0  0  0
  2  5  1  0  0  0  0
  1  2  1  0  0  0  0
 15 16  2  0  0  0  0
 15 17  1  0  0  0  0
 11 12  1  0  0  0  0
 11 13  1  0  0  0  0
 11 14  1  0  0  0  0
  9 10  1  0  0  0  0
  9 11  1  0  0  0  0
  9 15  1  0  0  0  0
  7  8  1  0  0  0  0
  7  9  1  0  0  0  0
 19 20  1  0  0  0  0
 19 21  1  0  0  0  0
 19 22  1  0  0  0  0
 17 18  1  0  0  0  0
 17 19  1  0  0  0  0
M  END
$$$$
default_name
  -OEChem-01062215323D

 22 21  0     1  0  0  0  0  0999 V2000
   -2.5423   -3.6749    0.8058 H   0  0  0  0  0  0  0  0  0  0  0  0
   -2.5063   -2.6779    0.3688 C   0  0  0  0  0  0  0  0  0  0  0  0
   -3.1603   -2.0109    0.9268 H   0  0  0  0  0  0  0  0  0  0  0  0
   -2.8193   -2.7229   -0.6722 H   0  0  0  0  0  0  0  0  0  0  0  0
   -1.0873   -2.1629    0.4418 C   0  0  0  0  0  0  0  0  0  0  0  0
   -0.2073   -2.8549    0.9368 O   0  0  0  0  0  0  0  0  0  0  0  0
   -0.8713   -0.9449   -0.0482 N   0  0  0  0  0  0  0  0  0  0  0  0
   -1.6543   -0.4189   -0.4062 H   0  0  0  0  0  0  0  0  0  0  0  0
    0.4237   -0.2649   -0.0462 C   0  0  1  0  0  0  0  0  0  0  0  0
    0.2685    0.7900   -0.2783 H   0  0  0  0  0  0  0  0  0  0  0  0
    1.0400   -0.3703    1.3572 C   0  0  0  0  0  0  0  0  0  0  0  0
    1.2013   -1.4185    1.6144 H   0  0  0  0  0  0  0  0  0  0  0  0
    1.9932    0.1565    1.3868 H   0  0  0  0  0  0  0  0  0  0  0  0
    0.3678    0.0799    2.0896 H   0  0  0  0  0  0  0  0  0  0  0  0
    1.3591   -0.8538   -1.1202 C   0  0  0  0  0  0  0  0  0  0  0  0
    1.9068   -1.9415   -0.9418 O   0  0  0  0  0  0  0  0  0  0  0  0
    1.5498   -0.1245   -2.2269 N   0  0  0  0  0  0  0  0  0  0  0  0
    1.0708    0.7590   -2.2983 H   0  0  0  0  0  0  0  0  0  0  0  0
    2.4113   -0.5325   -3.3356 C   0  0  0  0  0  0  0  0  0  0  0  0
    2.1036   -1.5151   -3.6988 H   0  0  0  0  0  0  0  0  0  0  0  0
    2.3466    0.1881   -4.1520 H   0  0  0  0  0  0  0  0  0  0  0  0
    3.4454   -0.5981   -2.9930 H   0  0  0  0  0  0  0  0  0  0  0  0
  5  6  2  0  0  0  0
  5  7  1  0  0  0  0
  2  3  1  0  0  0  0
  2  4  1  0  0  0  0
  2  5  1  0  0  0  0
  1  2  1  0  0  0  0
 15 16  2  0  0  0  0
 15 17  1  0  0  0  0
 11 12  1  0  0  0  0
 11 13  1  0  0  0  0
 11 14  1  0  0  0  0
  9 10  1  0  0  0  0
  9 11  1  0  0  0  0
  9 15  1  0  0  0  0
  7  8  1  0  0  0  0
  7  9  1  0  0  0  0
 19 20  1  0  0  0  0
 19 21  1  0  0  0  0
 19 22  1  0  0  0  0
 17 18  1  0  0  0  0
 17 19  1  0  0  0  0
M  END
$$$$
default_name
  -OEChem-01062215323D

 22 21  0     1  0  0  0  0  0999 V2000
   -2.5423   -3.6749    0.8058 H   0  0  0  0  0  0  0  0  0  0  0  0
   -2.5063   -2.6779    0.3688 C   0  0  0  0  0  0  0  0  0  0  0  0
   -3.1603   -2.0109    0.9268 H   0  0  0  0  0  0  0  0  0  0  0  0
   -2.8193   -2.7229   -0.6722 H   0  0  0  0  0  0  0  0  0  0  0  0
   -1.0873   -2.1629    0.4418 C   0  0  0  0  0  0  0  0  0  0  0  0
   -0.2073   -2.8549    0.9368 O   0  0  0  0  0  0  0  0  0  0  0  0
   -0.8713   -0.9449   -0.0482 N   0  0  0  0  0  0  0  0  0  0  0  0
   -1.6543   -0.4189   -0.4062 H   0  0  0  0  0  0  0  0  0  0  0  0
    0.4237   -0.2649   -0.0462 C   0  0  1  0  0  0  0  0  0  0  0  0
    0.2685    0.7900   -0.2783 H   0  0  0  0  0  0  0  0  0  0  0  0
    1.0400   -0.3703    1.3572 C   0  0  0  0  0  0  0  0  0  0  0  0
    1.2013   -1.4185    1.6144 H   0  0  0  0  0  0  0  0  0  0  0  0
    1.9932    0.1565    1.3868 H   0  0  0  0  0  0  0  0  0  0  0  0
    0.3678    0.0799    2.0896 H   0  0  0  0  0  0  0  0  0  0  0  0
    1.3591   -0.8538   -1.1202 C   0  0  0  0  0  0  0  0  0  0  0  0
    1.6873   -2.0394   -1.0794 O   0  0  0  0  0  0  0  0  0  0  0  0
    1.7969   -0.0178   -2.0702 N   0  0  0  0  0  0  0  0  0  0  0  0
    1.4886    0.9407   -2.0340 H   0  0  0  0  0  0  0  0  0  0  0  0
    2.6951   -0.4120   -3.1545 C   0  0  0  0  0  0  0  0  0  0  0  0
    2.2657   -1.2544   -3.7006 H   0  0  0  0  0  0  0  0  0  0  0  0
    2.8486    0.4207   -3.8423 H   0  0  0  0  0  0  0  0  0  0  0  0
    3.6568   -0.7212   -2.7414 H   0  0  0  0  0  0  0  0  0  0  0  0
  5  6  2  0  0  0  0
  5  7  1  0  0  0  0
  2  3  1  0  0  0  0
  2  4  1  0  0  0  0
  2  5  1  0  0  0  0
  1  2  1  0  0  0  0
 15 16  2  0  0  0  0
 15 17  1  0  0  0  0
 11 12  1  0  0  0  0
 11 13  1  0  0  0  0
 11 14  1  0  0  0  0
  9 10  1  0  0  0  0
  9 11  1  0  0  0  0
  9 15  1  0  0  0  0
  7  8  1  0  0  0  0
  7  9  1  0  0  0  0
 19 20  1  0  0  0  0
 19 21  1  0  0  0  0
 19 22  1  0  0  0  0
 17 18  1  0  0  0  0
 17 19  1  0  0  0  0
M  END
$$$$
default_name
  -OEChem-01062215323D

 22 21  0     1  0  0  0  0  0999 V2000
   -2.5423   -3.6749    0.8058 H   0  0  0  0  0  0  0  0  0  0  0  0
   -2.5063   -2.6779    0.3688 C   0  0  0  0  0  0  0  0  0  0  0  0
   -3.1603   -2.0109    0.9268 H   0  0  0  0  0  0  0  0  0  0  0  0
   -2.8193   -2.7229   -0.6722 H   0  0  0  0  0  0  0  0  0  0  0  0
   -1.0873   -2.1629    0.4418 C   0  0  0  0  0  0  0  0  0  0  0  0
   -0.2073   -2.8549    0.9368 O   0  0  0  0  0  0  0  0  0  0  0  0
   -0.8713   -0.9449   -0.0482 N   0  0  0  0  0  0  0  0  0  0  0  0
   -1.6543   -0.4189   -0.4062 H   0  0  0  0  0  0  0  0  0  0  0  0
    0.4237   -0.2649   -0.0462 C   0  0  1  0  0  0  0  0  0  0  0  0
    0.2685    0.7900   -0.2783 H   0  0  0  0  0  0  0  0  0  0  0  0
    1.0400   -0.3703    1.3572 C   0  0  0  0  0  0  0  0  0  0  0  0
    1.2013   -1.4185    1.6144 H   0  0  0  0  0  0  0  0  0  0  0  0
    1.9932    0.1565    1.3868 H   0  0  0  0  0  0  0  0  0  0  0  0
    0.3678    0.0799    2.0896 H   0  0  0  0  0  0  0  0  0  0  0  0
    1.3591   -0.8538   -1.1202 C   0  0  0  0  0  0  0  0  0  0  0  0
    1.4711   -2.0727   -1.2494 O   0  0  0  0  0  0  0  0  0  0  0  0
    2.0393    0.0161   -1.8776 N   0  0  0  0  0  0  0  0  0  0  0  0
    1.8989    0.9993   -1.7089 H   0  0  0  0  0  0  0  0  0  0  0  0
    2.9730   -0.3753   -2.9326 C   0  0  0  0  0  0  0  0  0  0  0  0
    2.4695   -1.0315   -3.6453 H   0  0  0  0  0  0  0  0  0  0  0  0
    3.3448    0.5060   -3.4570 H   0  0  0  0  0  0  0  0  0  0  0  0
    3.8139   -0.9176   -2.4968 H   0  0  0  0  0  0  0  0  0  0  0  0
  5  6  2  0  0  0  0
  5  7  1  0  0  0  0
  2  3  1  0  0  0  0
  2  4  1  0  0  0  0
  2  5  1  0  0  0  0
  1  2  1  0  0  0  0
 15 16  2  0  0  0  0
 15 17  1  0  0  0  0
 11 12  1  0  0  0  0
 11 13  1  0  0  0  0
 11 14  1  0  0  0  0
  9 10  1  0  0  0  0
  9 11  1  0  0  0  0
  9 15  1  0  0  0  0
  7  8  1  0  0  0  0
  7  9  1  0  0  0  0
 19 20  1  0  0  0  0
 19 21  1  0  0  0  0
 19 22  1  0  0  0  0
 17 18  1  0  0  0  0
 17 19  1  0  0  0  0
M  END
$$$$
default_name
  -OEChem-01062215323D

 22 21  0     1  0  0  0  0  0999 V2000
   -2.5423   -3.6749    0.8058 H   0  0  0  0  0  0  0  0  0  0  0  0
   -2.5063   -2.6779    0.3688 C   0  0  0  0  0  0  0  0  0  0  0  0
   -3.1603   -2.0109    0.9268 H   0  0  0  0  0  0  0  0  0  0  0  0
   -2.8193   -2.7229   -0.6722 H   0  0  0  0  0  0  0  0  0  0  0  0
   -1.0873   -2.1629    0.4418 C   0  0  0  0  0  0  0  0  0  0  0  0
   -0.2073   -2.8549    0.9368 O   0  0  0  0  0  0  0  0  0  0  0  0
   -0.8713   -0.9449   -0.0482 N   0  0  0  0  0  0  0  0  0  0  0  0
   -1.6543   -0.4189   -0.4062 H   0  0  0  0  0  0  0  0  0  0  0  0
    0.4237   -0.2649   -0.0462 C   0  0  1  0  0  0  0  0  0  0  0  0
    0.2685    0.7900   -0.2783 H   0  0  0  0  0  0  0  0  0  0  0  0
    1.0400   -0.3703    1.3572 C   0  0  0  0  0  0  0  0  0  0  0  0
    1.2013   -1.4185    1.6144 H   0  0  0  0  0  0  0  0  0  0  0  0
    1.9932    0.1565    1.3868 H   0  0  0  0  0  0  0  0  0  0  0  0
    0.3678    0.0799    2.0896 H   0  0  0  0  0  0  0  0  0  0  0  0
    1.3591   -0.8538   -1.1202 C   0  0  0  0  0  0  0  0  0  0  0  0
    1.2731   -2.0392   -1.4402 O   0  0  0  0  0  0  0  0  0  0  0  0
    2.2605   -0.0252   -1.6624 N   0  0  0  0  0  0  0  0  0  0  0  0
    2.2736    0.9309   -1.3451 H   0  0  0  0  0  0  0  0  0  0  0  0
    3.2262   -0.4249   -2.6849 C   0  0  0  0  0  0  0  0  0  0  0  0
    2.7011   -0.8617   -3.5367 H   0  0  0  0  0  0  0  0  0  0  0  0
    3.8014    0.4385   -3.0223 H   0  0  0  0  0  0  0  0  0  0  0  0
    3.9061   -1.1742   -2.2759 H   0  0  0  0  0  0  0  0  0  0  0  0
  5  6  2  0  0  0  0
  5  7  1  0  0  0  0
  2  3  1  0  0  0  0
  2  4  1  0  0  0  0
  2  5  1  0  0  0  0
  1  2  1  0  0  0  0
 15 16  2  0  0  0  0
 15 17  1  0  0  0  0
 11 12  1  0  0  0  0
 11 13  1  0  0  0  0
 11 14  1  0  0  0  0
  9 10  1  0  0  0  0
  9 11  1  0  0  0  0
  9 15  1  0  0  0  0
  7  8  1  0  0  0  0
  7  9  1  0  0  0  0
 19 20  1  0  0  0  0
 19 21  1  0  0  0  0
 19 22  1  0  0  0  0
 17 18  1  0  0  0  0
 17 19  1  0  0  0  0
M  END
$$$$
default_name
  -OEChem-01062215323D

 22 21  0     1  0  0  0  0  0999 V2000
   -2.5423   -3.6749    0.8058 H   0  0  0  0  0  0  0  0  0  0  0  0
   -2.5063   -2.6779    0.3688 C   0  0  0  0  0  0  0  0  0  0  0  0
   -3.1603   -2.0109    0.9268 H   0  0  0  0  0  0  0  0  0  0  0  0
   -2.8193   -2.7229   -0.6722 H   0  0  0  0  0  0  0  0  0  0  0  0
   -1.0873   -2.1629    0.4418 C   0  0  0  0  0  0  0  0  0  0  0  0
   -0.2073   -2.8549    0.9368 O   0  0  0  0  0  0  0  0  0  0  0  0
   -0.8713   -0.9449   -0.0482 N   0  0  0  0  0  0  0  0  0  0  0  0
   -1.6543   -0.4189   -0.4062 H   0  0  0  0  0  0  0  0  0  0  0  0
    0.4237   -0.2649   -0.0462 C   0  0  1  0  0  0  0  0  0  0  0  0
    0.2685    0.7900   -0.2783 H   0  0  0  0  0  0  0  0  0  0  0  0
    1.0400   -0.3703    1.3572 C   0  0  0  0  0  0  0  0  0  0  0  0
    1.2013   -1.4185    1.6144 H   0  0  0  0  0  0  0  0  0  0  0  0
    1.9932    0.1565    1.3868 H   0  0  0  0  0  0  0  0  0  0  0  0
    0.3678    0.0799    2.0896 H   0  0  0  0  0  0  0  0  0  0  0  0
    1.3591   -0.8538   -1.1202 C   0  0  0  0  0  0  0  0  0  0  0  0
    1.1068   -1.9412   -1.6388 O   0  0  0  0  0  0  0  0  0  0  0  0
    2.4454   -0.1388   -1.4390 N   0  0  0  0  0  0  0  0  0  0  0  0
    2.5872    0.7401   -0.9673 H   0  0  0  0  0  0  0  0  0  0  0  0
    3.4373   -0.5573   -2.4285 C   0  0  0  0  0  0  0  0  0  0  0  0
    2.9447   -0.7564   -3.3823 H   0  0  0  0  0  0  0  0  0  0  0  0
    4.1872    0.2226   -2.5679 H   0  0  0  0  0  0  0  0  0  0  0  0
    3.9269   -1.4733   -2.0937 H   0  0  0  0  0  0  0  0  0  0  0  0
  5  6  2  0  0  0  0
  5  7  1  0  0  0  0
  2  3  1  0  0  0  0
  2  4  1  0  0  0  0
  2  5  1  0  0  0  0
  1  2  1  0  0  0  0
 15 16  2  0  0  0  0
 15 17  1  0  0  0  0
 11 12  1  0  0  0  0
 11 13  1  0  0  0  0
 11 14  1  0  0  0  0
  9 10  1  0  0  0  0
  9 11  1  0  0  0  0
  9 15  1  0  0  0  0
  7  8  1  0  0  0  0
  7  9  1  0  0  0  0
 19 20  1  0  0  0  0
 19 21  1  0  0  0  0
 19 22  1  0  0  0  0
 17 18  1  0  0  0  0
 17 19  1  0  0  0  0
M  END
$$$$
default_name
  -OEChem-01062215323D

 22 21  0     1  0  0  0  0  0999 V2000
   -2.5423   -3.6749    0.8058 H   0  0  0  0  0  0  0  0  0  0  0  0
   -2.5063   -2.6779    0.3688 C   0  0  0  0  0  0  0  0  0  0  0  0
   -3.1603   -2.0109    0.9268 H   0  0  0  0  0  0  0  0  0  0  0  0
   -2.8193   -2.7229   -0.6722 H   0  0  0  0  0  0  0  0  0  0  0  0
   -1.0873   -2.1629    0.4418 C   0  0  0  0  0  0  0  0  0  0  0  0
   -0.2073   -2.8549    0.9368 O   0  0  0  0  0  0  0  0  0  0  0  0
   -0.8713   -0.9449   -0.0482 N   0  0  0  0  0  0  0  0  0  0  0  0
   -1.6543   -0.4189   -0.4062 H   0  0  0  0  0  0  0  0  0  0  0  0
    0.4237   -0.2649   -0.0462 C   0  0  1  0  0  0  0  0  0  0  0  0
    0.2561    0.8127   -0.0100 H   0  0  0  0  0  0  0  0  0  0  0  0
    1.2030   -0.6802    1.2111 C   0  0  0  0  0  0  0  0  0  0  0  0
    1.3797   -1.7570    1.1999 H   0  0  0  0  0  0  0  0  0  0  0  0
    2.1599   -0.1605    1.2458 H   0  0  0  0  0  0  0  0  0  0  0  0
    0.6300   -0.4195    2.1026 H   0  0  0  0  0  0  0  0  0  0  0  0
    1.2149   -0.5786   -1.3311 C   0  0  0  0  0  0  0  0  0  0  0  0
    0.7436   -1.3275   -2.1866 O   0  0  0  0  0  0  0  0  0  0  0  0
    2.4233   -0.0149   -1.4542 N   0  0  0  0  0  0  0  0  0  0  0  0
    2.7435    0.5827   -0.7090 H   0  0  0  0  0  0  0  0  0  0  0  0
    3.3049   -0.2156   -2.6033 C   0  0  0  0  0  0  0  0  0  0  0  0
    2.7784    0.0499   -3.5222 H   0  0  0  0  0  0  0  0  0  0  0  0
    4.1979    0.4040   -2.5097 H   0  0  0  0  0  0  0  0  0  0  0  0
    3.5982   -1.2651   -2.6630 H   0  0  0  0  0  0  0  0  0  0  0  0
  5  6  2  0  0  0  0
  5  7  1  0  0  0  0
  2  3  1  0  0  0  0
  2  4  1  0  0  0  0
  2  5  1  0  0  0  0
  1  2  1  0  0  0  0
 15 16  2  0  0  0  0
 15 17  1  0  0  0  0
 11 12  1  0  0  0  0
 11 13  1  0  0  0  0
 11 14  1  0  0  0  0
  9 10  1  0  0  0  0
  9 11  1  0  0  0  0
  9 15  1  0  0  0  0
  7  8  1  0  0  0  0
  7  9  1  0  0  0  0
 19 20  1  0  0  0  0
 19 21  1  0  0  0  0
 19 22  1  0  0  0  0
 17 18  1  0  0  0  0
 17 19  1  0  0  0  0
M  END
$$$$
default_name
  -OEChem-01062215323D

 22 21  0     1  0  0  0  0  0999 V2000
   -2.5423   -3.6749    0.8058 H   0  0  0  0  0  0  0  0  0  0  0  0
   -2.5063   -2.6779    0.3688 C   0  0  0  0  0  0  0  0  0  0  0  0
   -3.1603   -2.0109    0.9268 H   0  0  0  0  0  0  0  0  0  0  0  0
   -2.8193   -2.7229   -0.6722 H   0  0  0  0  0  0  0  0  0  0  0  0
   -1.0873   -2.1629    0.4418 C   0  0  0  0  0  0  0  0  0  0  0  0
   -0.2073   -2.8549    0.9368 O   0  0  0  0  0  0  0  0  0  0  0  0
   -0.8713   -0.9449   -0.0482 N   0  0  0  0  0  0  0  0  0  0  0  0
   -1.6543   -0.4189   -0.4062 H   0  0  0  0  0  0  0  0  0  0  0  0
    0.4237   -0.2649   -0.0462 C   0  0  1  0  0  0  0  0  0  0  0  0
    0.2561    0.8127   -0.0100 H   0  0  0  0  0  0  0  0  0  0  0  0
    1.2030   -0.6802    1.2111 C   0  0  0  0  0  0  0  0  0  0  0  0
    1.3797   -1.7570    1.1999 H   0  0  0  0  0  0  0  0  0  0  0  0
    2.1599   -0.1605    1.2458 H   0  0  0  0  0  0  0  0  0  0  0  0
    0.6300   -0.4195    2.1026 H   0  0  0  0  0  0  0  0  0  0  0  0
    1.2149   -0.5786   -1.3311 C   0  0  0  0  0  0  0  0  0  0  0  0
    0.6541   -1.0910   -2.2995 O   0  0  0  0  0  0  0  0  0  0  0  0
    2.5208   -0.2827   -1.3287 N   0  0  0  0  0  0  0  0  0  0  0  0
    2.9097    0.1304   -0.4962 H   0  0  0  0  0  0  0  0  0  0  0  0
    3.4150   -0.5242   -2.4601 C   0  0  0  0  0  0  0  0  0  0  0  0
    3.0199   -0.0351   -3.3528 H   0  0  0  0  0  0  0  0  0  0  0  0
    4.4108   -0.1326   -2.2476 H   0  0  0  0  0  0  0  0  0  0  0  0
    3.4822   -1.5961   -2.6536 H   0  0  0  0  0  0  0  0  0  0  0  0
  5  6  2  0  0  0  0
  5  7  1  0  0  0  0
  2  3  1  0  0  0  0
  2  4  1  0  0  0  0
  2  5  1  0  0  0  0
  1  2  1  0  0  0  0
 15 16  2  0  0  0  0
 15 17  1  0  0  0  0
 11 12  1  0  0  0  0
 11 13  1  0  0  0  0
 11 14  1  0  0  0  0
  9 10  1  0  0  0  0
  9 11  1  0  0  0  0
  9 15  1  0  0  0  0
  7  8  1  0  0  0  0
  7  9  1  0  0  0  0
 19 20  1  0  0  0  0
 19 21  1  0  0  0  0
 19 22  1  0  0  0  0
 17 18  1  0  0  0  0
 17 19  1  0  0  0  0
M  END
$$$$
default_name
  -OEChem-01062215323D

 22 21  0     1  0  0  0  0  0999 V2000
   -2.5423   -3.6749    0.8058 H   0  0  0  0  0  0  0  0  0  0  0  0
   -2.5063   -2.6779    0.3688 C   0  0  0  0  0  0  0  0  0  0  0  0
   -3.1603   -2.0109    0.9268 H   0  0  0  0  0  0  0  0  0  0  0  0
   -2.8193   -2.7229   -0.6722 H   0  0  0  0  0  0  0  0  0  0  0  0
   -1.0873   -2.1629    0.4418 C   0  0  0  0  0  0  0  0  0  0  0  0
   -0.2073   -2.8549    0.9368 O   0  0  0  0  0  0  0  0  0  0  0  0
   -0.8713   -0.9449   -0.0482 N   0  0  0  0  0  0  0  0  0  0  0  0
   -1.6543   -0.4189   -0.4062 H   0  0  0  0  0  0  0  0  0  0  0  0
    0.4237   -0.2649   -0.0462 C   0  0  1  0  0  0  0  0  0  0  0  0
    0.2561    0.8127   -0.0100 H   0  0  0  0  0  0  0  0  0  0  0  0
    1.2030   -0.6802    1.2111 C   0  0  0  0  0  0  0  0  0  0  0  0
    1.3797   -1.7570    1.1999 H   0  0  0  0  0  0  0  0  0  0  0  0
    2.1599   -0.1605    1.2458 H   0  0  0  0  0  0  0  0  0  0  0  0
    0.6300   -0.4195    2.1026 H   0  0  0  0  0  0  0  0  0  0  0  0
    1.2149   -0.5786   -1.3311 C   0  0  0  0  0  0  0  0  0  0  0  0
    0.6245   -0.8282   -2.3818 O   0  0  0  0  0  0  0  0  0  0  0  0
    2.5507   -0.5791   -1.2380 N   0  0  0  0  0  0  0  0  0  0  0  0
    2.9615   -0.3706   -0.3420 H   0  0  0  0  0  0  0  0  0  0  0  0
    3.4473   -0.8650   -2.3570 C   0  0  0  0  0  0  0  0  0  0  0  0
    3.2259   -0.1919   -3.1877 H   0  0  0  0  0  0  0  0  0  0  0  0
    4.4869   -0.7317   -2.0545 H   0  0  0  0  0  0  0  0  0  0  0  0
    3.2984   -1.8921   -2.6945 H   0  0  0  0  0  0  0  0  0  0  0  0
  5  6  2  0  0  0  0
  5  7  1  0  0  0  0
  2  3  1  0  0  0  0
  2  4  1  0  0  0  0
  2  5  1  0  0  0  0
  1  2  1  0  0  0  0
 15 16  2  0  0  0  0
 15 17  1  0  0  0  0
 11 12  1  0  0  0  0
 11 13  1  0  0  0  0
 11 14  1  0  0  0  0
  9 10  1  0  0  0  0
  9 11  1  0  0  0  0
  9 15  1  0  0  0  0
  7  8  1  0  0  0  0
  7  9  1  0  0  0  0
 19 20  1  0  0  0  0
 19 21  1  0  0  0  0
 19 22  1  0  0  0  0
 17 18  1  0  0  0  0
 17 19  1  0  0  0  0
M  END
$$$$
default_name
  -OEChem-01062215323D

 22 21  0     1  0  0  0  0  0999 V2000
   -2.5423   -3.6749    0.8058 H   0  0  0  0  0  0  0  0  0  0  0  0
   -2.5063   -2.6779    0.3688 C   0  0  0  0  0  0  0  0  0  0  0  0
   -3.1603   -2.0109    0.9268 H   0  0  0  0  0  0  0  0  0  0  0  0
   -2.8193   -2.7229   -0.6722 H   0  0  0  0  0  0  0  0  0  0  0  0
   -1.0873   -2.1629    0.4418 C   0  0  0  0  0  0  0  0  0  0  0  0
   -0.2073   -2.8549    0.9368 O   0  0  0  0  0  0  0  0  0  0  0  0
   -0.8713   -0.9449   -0.0482 N   0  0  0  0  0  0  0  0  0  0  0  0
   -1.6543   -0.4189   -0.4062 H   0  0  0  0  0  0  0  0  0  0  0  0
    0.4237   -0.2649   -0.0462 C   0  0  1  0  0  0  0  0  0  0  0  0
    0.2561    0.8127   -0.0100 H   0  0  0  0  0  0  0  0  0  0  0  0
    1.2030   -0.6802    1.2111 C   0  0  0  0  0  0  0  0  0  0  0  0
    1.3797   -1.7570    1.1999 H   0  0  0  0  0  0  0  0  0  0  0  0
    2.1599   -0.1605    1.2458 H   0  0  0  0  0  0  0  0  0  0  0  0
    0.6300   -0.4195    2.1026 H   0  0  0  0  0  0  0  0  0  0  0  0
    1.2149   -0.5786   -1.3311 C   0  0  0  0  0  0  0  0  0  0  0  0
    0.6570   -0.5570   -2.4280 O   0  0  0  0  0  0  0  0  0  0  0  0
    2.5108   -0.8839   -1.1881 N   0  0  0  0  0  0  0  0  0  0  0  0
    2.8953   -0.8861   -0.2569 H   0  0  0  0  0  0  0  0  0  0  0  0
    3.3995   -1.2149   -2.3010 C   0  0  0  0  0  0  0  0  0  0  0  0
    3.3824   -0.4097   -3.0382 H   0  0  0  0  0  0  0  0  0  0  0  0
    4.4209   -1.3525   -1.9436 H   0  0  0  0  0  0  0  0  0  0  0  0
    3.0590   -2.1329   -2.7831 H   0  0  0  0  0  0  0  0  0  0  0  0
  5  6  2  0  0  0  0
  5  7  1  0  0  0  0
  2  3  1  0  0  0  0
  2  4  1  0  0  0  0
  2  5  1  0  0  0  0
  1  2  1  0  0  0  0
 15 16  2  0  0  0  0
 15 17  1  0  0  0  0
 11 12  1  0  0  0  0
 11 13  1  0  0  0  0
 11 14  1  0  0  0  0
  9 10  1  0  0  0  0
  9 11  1  0  0  0  0
  9 15  1  0  0  0  0
  7  8  1  0  0  0  0
  7  9  1  0  0  0  0
 19 20  1  0  0  0  0
 19 21  1  0  0  0  0
 19 22  1  0  0  0  0
 17 18  1  0  0  0  0
 17 19  1  0  0  0  0
M  END
$$$$
default_name
  -OEChem-01062215323D

 22 21  0     1  0  0  0  0  0999 V2000
   -2.5423   -3.6749    0.8058 H   0  0  0  0  0  0  0  0  0  0  0  0
   -2.5063   -2.6779    0.3688 C   0  0  0  0  0  0  0  0  0  0  0  0
   -3.1603   -2.0109    0.9268 H   0  0  0  0  0  0  0  0  0  0  0  0
   -2.8193   -2.7229   -0.6722 H   0  0  0  0  0  0  0  0  0  0  0  0
   -1.0873   -2.1629    0.4418 C   0  0  0  0  0  0  0  0  0  0  0  0
   -0.2073   -2.8549    0.9368 O   0  0  0  0  0  0  0  0  0  0  0  0
   -0.8713   -0.9449   -0.0482 N   0  0  0  0  0  0  0  0  0  0  0  0
   -1.6543   -0.4189   -0.4062 H   0  0  0  0  0  0  0  0  0  0  0  0
    0.4237   -0.2649   -0.0462 C   0  0  1  0  0  0  0  0  0  0  0  0
    0.2561    0.8127   -0.0100 H   0  0  0  0  0  0  0  0  0  0  0  0
    1.2030   -0.6802    1.2111 C   0  0  0  0  0  0  0  0  0  0  0  0
    1.3797   -1.7570    1.1999 H   0  0  0  0  0  0  0  0  0  0  0  0
    2.1599   -0.1605    1.2458 H   0  0  0  0  0  0  0  0  0  0  0  0
    0.6300   -0.4195    2.1026 H   0  0  0  0  0  0  0  0  0  0  0  0
    1.2149   -0.5786   -1.3311 C   0  0  0  0  0  0  0  0  0  0  0  0
    0.7494   -0.2960   -2.4349 O   0  0  0  0  0  0  0  0  0  0  0  0
    2.4039   -1.1764   -1.1826 N   0  0  0  0  0  0  0  0  0  0  0  0
    2.7156   -1.3812   -0.2467 H   0  0  0  0  0  0  0  0  0  0  0  0
    3.2749   -1.5501   -2.2960 C   0  0  0  0  0  0  0  0  0  0  0  0
    3.4786   -0.6736   -2.9144 H   0  0  0  0  0  0  0  0  0  0  0  0
    4.2175   -1.9526   -1.9224 H   0  0  0  0  0  0  0  0  0  0  0  0
    2.7805   -2.3021   -2.9133 H   0  0  0  0  0  0  0  0  0  0  0  0
  5  6  2  0  0  0  0
  5  7  1  0  0  0  0
  2  3  1  0  0  0  0
  2  4  1  0  0  0  0
  2  5  1  0  0  0  0
  1  2  1  0  0  0  0
 15 16  2  0  0  0  0
 15 17  1  0  0  0  0
 11 12  1  0  0  0  0
 11 13  1  0  0  0  0
 11 14  1  0  0  0  0
  9 10  1  0  0  0  0
  9 11  1  0  0  0  0
  9 15  1  0  0  0  0
  7  8  1  0  0  0  0
  7  9  1  0  0  0  0
 19 20  1  0  0  0  0
 19 21  1  0  0  0  0
 19 22  1  0  0  0  0
 17 18  1  0  0  0  0
 17 19  1  0  0  0  0
M  END
$$$$
default_name
  -OEChem-01062215323D

 22 21  0     1  0  0  0  0  0999 V2000
   -2.5423   -3.6749    0.8058 H   0  0  0  0  0  0  0  0  0  0  0  0
   -2.5063   -2.6779    0.3688 C   0  0  0  0  0  0  0  0  0  0  0  0
   -3.1603   -2.0109    0.9268 H   0  0  0  0  0  0  0  0  0  0  0  0
   -2.8193   -2.7229   -0.6722 H   0  0  0  0  0  0  0  0  0  0  0  0
   -1.0873   -2.1629    0.4418 C   0  0  0  0  0  0  0  0  0  0  0  0
   -0.2073   -2.8549    0.9368 O   0  0  0  0  0  0  0  0  0  0  0  0
   -0.8713   -0.9449   -0.0482 N   0  0  0  0  0  0  0  0  0  0  0  0
   -1.6543   -0.4189   -0.4062 H   0  0  0  0  0  0  0  0  0  0  0  0
    0.4237   -0.2649   -0.0462 C   0  0  1  0  0  0  0  0  0  0  0  0
    0.2561    0.8127   -0.0100 H   0  0  0  0  0  0  0  0  0  0  0  0
    1.2030   -0.6802    1.2111 C   0  0  0  0  0  0  0  0  0  0  0  0
    1.3797   -1.7570    1.1999 H   0  0  0  0  0  0  0  0  0  0  0  0
    2.1599   -0.1605    1.2458 H   0  0  0  0  0  0  0  0  0  0  0  0
    0.6300   -0.4195    2.1026 H   0  0  0  0  0  0  0  0  0  0  0  0
    1.2149   -0.5786   -1.3311 C   0  0  0  0  0  0  0  0  0  0  0  0
    0.8953   -0.0628   -2.4020 O   0  0  0  0  0  0  0  0  0  0  0  0
    2.2372   -1.4365   -1.2217 N   0  0  0  0  0  0  0  0  0  0  0  0
    2.4347   -1.8219   -0.3121 H   0  0  0  0  0  0  0  0  0  0  0  0
    3.0819   -1.8475   -2.3422 C   0  0  0  0  0  0  0  0  0  0  0  0
    3.5081   -0.9659   -2.8249 H   0  0  0  0  0  0  0  0  0  0  0  0
    3.8903   -2.4911   -1.9923 H   0  0  0  0  0  0  0  0  0  0  0  0
    2.4819   -2.3882   -3.0762 H   0  0  0  0  0  0  0  0  0  0  0  0
  5  6  2  0  0  0  0
  5  7  1  0  0  0  0
  2  3  1  0  0  0  0
  2  4  1  0  0  0  0
  2  5  1  0  0  0  0
  1  2  1  0  0  0  0
 15 16  2  0  0  0  0
 15 17  1  0  0  0  0
 11 12  1  0  0  0  0
 11 13  1  0  0  0  0
 11 14  1  0  0  0  0
  9 10  1  0  0  0  0
  9 11  1  0  0  0  0
  9 15  1  0  0  0  0
  7  8  1  0  0  0  0
  7  9  1  0  0  0  0
 19 20  1  0  0  0  0
 19 21  1  0  0  0  0
 19 22  1  0  0  0  0
 17 18  1  0  0  0  0
 17 19  1  0  0  0  0
M  END
$$$$
default_name
  -OEChem-01062215323D

 22 21  0     1  0  0  0  0  0999 V2000
   -2.5423   -3.6749    0.8058 H   0  0  0  0  0  0  0  0  0  0  0  0
   -2.5063   -2.6779    0.3688 C   0  0  0  0  0  0  0  0  0  0  0  0
   -3.1603   -2.0109    0.9268 H   0  0  0  0  0  0  0  0  0  0  0  0
   -2.8193   -2.7229   -0.6722 H   0  0  0  0  0  0  0  0  0  0  0  0
   -1.0873   -2.1629    0.4418 C   0  0  0  0  0  0  0  0  0  0  0  0
   -0.2073   -2.8549    0.9368 O   0  0  0  0  0  0  0  0  0  0  0  0
   -0.8713   -0.9449   -0.0482 N   0  0  0  0  0  0  0  0  0  0  0  0
   -1.6543   -0.4189   -0.4062 H   0  0  0  0  0  0  0  0  0  0  0  0
    0.4237   -0.2649   -0.0462 C   0  0  1  0  0  0  0  0  0  0  0  0
    0.2561    0.8127   -0.0100 H   0  0  0  0  0  0  0  0  0  0  0  0
    1.2030   -0.6802    1.2111 C   0  0  0  0  0  0  0  0  0  0  0  0
    1.3797   -1.7570    1.1999 H   0  0  0  0  0  0  0  0  0  0  0  0
    2.1599   -0.1605    1.2458 H   0  0  0  0  0  0  0  0  0  0  0  0
    0.6300   -0.4195    2.1026 H   0  0  0  0  0  0  0  0  0  0  0  0
    1.2149   -0.5786   -1.3311 C   0  0  0  0  0  0  0  0  0  0  0  0
    1.0848    0.1265   -2.3315 O   0  0  0  0  0  0  0  0  0  0  0  0
    2.0221   -1.6466   -1.3029 N   0  0  0  0  0  0  0  0  0  0  0  0
    2.0717   -2.1784   -0.4486 H   0  0  0  0  0  0  0  0  0  0  0  0
    2.8337   -2.0871   -2.4365 C   0  0  0  0  0  0  0  0  0  0  0  0
    3.4689   -1.2664   -2.7757 H   0  0  0  0  0  0  0  0  0  0  0  0
    3.4618   -2.9314   -2.1487 H   0  0  0  0  0  0  0  0  0  0  0  0
    2.1834   -2.3852   -3.2607 H   0  0  0  0  0  0  0  0  0  0  0  0
  5  6  2  0  0  0  0
  5  7  1  0  0  0  0
  2  3  1  0  0  0  0
  2  4  1  0  0  0  0
  2  5  1  0  0  0  0
  1  2  1  0  0  0  0
 15 16  2  0  0  0  0
 15 17  1  0  0  0  0
 11 12  1  0  0  0  0
 11 13  1  0  0  0  0
 11 14  1  0  0  0  0
  9 10  1  0  0  0  0
  9 11  1  0  0  0  0
  9 15  1  0  0  0  0
  7  8  1  0  0  0  0
  7  9  1  0  0  0  0
 19 20  1  0  0  0  0
 19 21  1  0  0  0  0
 19 22  1  0  0  0  0
 17 18  1  0  0  0  0
 17 19  1  0  0  0  0
M  END
$$$$
default_name
  -OEChem-01062215323D

 22 21  0     1  0  0  0  0  0999 V2000
   -2.5423   -3.6749    0.8058 H   0  0  0  0  0  0  0  0  0  0  0  0
   -2.5063   -2.6779    0.3688 C   0  0  0  0  0  0  0  0  0  0  0  0
   -3.1603   -2.0109    0.9268 H   0  0  0  0  0  0  0  0  0  0  0  0
   -2.8193   -2.7229   -0.6722 H   0  0  0  0  0  0  0  0  0  0  0  0
   -1.0873   -2.1629    0.4418 C   0  0  0  0  0  0  0  0  0  0  0  0
   -0.2073   -2.8549    0.9368 O   0  0  0  0  0  0  0  0  0  0  0  0
   -0.8713   -0.9449   -0.0482 N   0  0  0  0  0  0  0  0  0  0  0  0
   -1.6543   -0.4189   -0.4062 H   0  0  0  0  0  0  0  0  0  0  0  0
    0.4237   -0.2649   -0.0462 C   0  0  1  0  0  0  0  0  0  0  0  0
    0.2561    0.8127   -0.0100 H   0  0  0  0  0  0  0  0  0  0  0  0
    1.2030   -0.6802    1.2111 C   0  0  0  0  0  0  0  0  0  0  0  0
    1.3797   -1.7570    1.1999 H   0  0  0  0  0  0  0  0  0  0  0  0
    2.1599   -0.1605    1.2458 H   0  0  0  0  0  0  0  0  0  0  0  0
    0.6300   -0.4195    2.1026 H   0  0  0  0  0  0  0  0  0  0  0  0
    1.2149   -0.5786   -1.3311 C   0  0  0  0  0  0  0  0  0  0  0  0
    1.3050    0.2591   -2.2283 O   0  0  0  0  0  0  0  0  0  0  0  0
    1.7733   -1.7924   -1.4205 N   0  0  0  0  0  0  0  0  0  0  0  0
    1.6513   -2.4262   -0.6469 H   0  0  0  0  0  0  0  0  0  0  0  0
    2.5473   -2.2524   -2.5725 C   0  0  0  0  0  0  0  0  0  0  0  0
    3.3635   -1.5547   -2.7702 H   0  0  0  0  0  0  0  0  0  0  0  0
    2.9610   -3.2435   -2.3808 H   0  0  0  0  0  0  0  0  0  0  0  0
    1.9055   -2.2934   -3.4542 H   0  0  0  0  0  0  0  0  0  0  0  0
  5  6  2  0  0  0  0
  5  7  1  0  0  0  0
  2  3  1  0  0  0  0
  2  4  1  0  0  0  0
  2  5  1  0  0  0  0
  1  2  1  0  0  0  0
 15 16  2  0  0  0  0
 15 17  1  0  0  0  0
 11 12  1  0  0  0  0
 11 13  1  0  0  0  0
 11 14  1  0  0  0  0
  9 10  1  0  0  0  0
  9 11  1  0  0  0  0
  9 15  1  0  0  0  0
  7  8  1  0  0  0  0
  7  9  1  0  0  0  0
 19 20  1  0  0  0  0
 19 21  1  0  0  0  0
 19 22  1  0  0  0  0
 17 18  1  0  0  0  0
 17 19  1  0  0  0  0
M  END
$$$$
default_name
  -OEChem-01062215323D

 22 21  0     1  0  0  0  0  0999 V2000
   -2.5423   -3.6749    0.8058 H   0  0  0  0  0  0  0  0  0  0  0  0
   -2.5063   -2.6779    0.3688 C   0  0  0  0  0  0  0  0  0  0  0  0
   -3.1603   -2.0109    0.9268 H   0  0  0  0  0  0  0  0  0  0  0  0
   -2.8193   -2.7229   -0.6722 H   0  0  0  0  0  0  0  0  0  0  0  0
   -1.0873   -2.1629    0.4418 C   0  0  0  0  0  0  0  0  0  0  0  0
   -0.2073   -2.8549    0.9368 O   0  0  0  0  0  0  0  0  0  0  0  0
   -0.8713   -0.9449   -0.0482 N   0  0  0  0  0  0  0  0  0  0  0  0
   -1.6543   -0.4189   -0.4062 H   0  0  0  0  0  0  0  0  0  0  0  0
    0.4237   -0.2649   -0.0462 C   0  0  1  0  0  0  0  0  0  0  0  0
    0.2561    0.8127   -0.0100 H   0  0  0  0  0  0  0  0  0  0  0  0
    1.2030   -0.6802    1.2111 C   0  0  0  0  0  0  0  0  0  0  0  0
    1.3797   -1.7570    1.1999 H   0  0  0  0  0  0  0  0  0  0  0  0
    2.1599   -0.1605    1.2458 H   0  0  0  0  0  0  0  0  0  0  0  0
    0.6300   -0.4195    2.1026 H   0  0  0  0  0  0  0  0  0  0  0  0
    1.2149   -0.5786   -1.3311 C   0  0  0  0  0  0  0  0  0  0  0  0
    1.5408    0.3260   -2.0994 O   0  0  0  0  0  0  0  0  0  0  0  0
    1.5077   -1.8638   -1.5666 N   0  0  0  0  0  0  0  0  0  0  0  0
    1.2023   -2.5485   -0.8936 H   0  0  0  0  0  0  0  0  0  0  0  0
    2.2422   -2.3323   -2.7409 C   0  0  0  0  0  0  0  0  0  0  0  0
    3.1993   -1.8112   -2.8088 H   0  0  0  0  0  0  0  0  0  0  0  0
    2.4223   -3.4060   -2.6729 H   0  0  0  0  0  0  0  0  0  0  0  0
    1.6671   -2.1191   -3.6436 H   0  0  0  0  0  0  0  0  0  0  0  0
  5  6  2  0  0  0  0
  5  7  1  0  0  0  0
  2  3  1  0  0  0  0
  2  4  1  0  0  0  0
  2  5  1  0  0  0  0
  1  2  1  0  0  0  0
 15 16  2  0  0  0  0
 15 17  1  0  0  0  0
 11 12  1  0  0  0  0
 11 13  1  0  0  0  0
 11 14  1  0  0  0  0
  9 10  1  0  0  0  0
  9 11  1  0  0  0  0
  9 15  1  0  0  0  0
  7  8  1  0  0  0  0
  7  9  1  0  0  0  0
 19 20  1  0  0  0  0
 19 21  1  0  0  0  0
 19 22  1  0  0  0  0
 17 18  1  0  0  0  0
 17 19  1  0  0  0  0
M  END
$$$$
default_name
  -OEChem-01062215323D

 22 21  0     1  0  0  0  0  0999 V2000
   -2.5423   -3.6749    0.8058 H   0  0  0  0  0  0  0  0  0  0  0  0
   -2.5063   -2.6779    0.3688 C   0  0  0  0  0  0  0  0  0  0  0  0
   -3.1603   -2.0109    0.9268 H   0  0  0  0  0  0  0  0  0  0  0  0
   -2.8193   -2.7229   -0.6722 H   0  0  0  0  0  0  0  0  0  0  0  0
   -1.0873   -2.1629    0.4418 C   0  0  0  0  0  0  0  0  0  0  0  0
   -0.2073   -2.8549    0.9368 O   0  0  0  0  0  0  0  0  0  0  0  0
   -0.8713   -0.9449   -0.0482 N   0  0  0  0  0  0  0  0  0  0  0  0
   -1.6543   -0.4189   -0.4062 H   0  0  0  0  0  0  0  0  0  0  0  0
    0.4237   -0.2649   -0.0462 C   0  0  1  0  0  0  0  0  0  0  0  0
    0.2561    0.8127   -0.0100 H   0  0  0  0  0  0  0  0  0  0  0  0
    1.2030   -0.6802    1.2111 C   0  0  0  0  0  0  0  0  0  0  0  0
    1.3797   -1.7570    1.1999 H   0  0  0  0  0  0  0  0  0  0  0  0
    2.1599   -0.1605    1.2458 H   0  0  0  0  0  0  0  0  0  0  0  0
    0.6300   -0.4195    2.1026 H   0  0  0  0  0  0  0  0  0  0  0  0
    1.2149   -0.5786   -1.3311 C   0  0  0  0  0  0  0  0  0  0  0  0
    1.7763    0.3226   -1.9536 O   0  0  0  0  0  0  0  0  0  0  0  0
    1.2434   -1.8562   -1.7312 N   0  0  0  0  0  0  0  0  0  0  0  0
    0.7551   -2.5370   -1.1717 H   0  0  0  0  0  0  0  0  0  0  0  0
    1.9391   -2.3211   -2.9303 C   0  0  0  0  0  0  0  0  0  0  0  0
    2.9873   -2.0184   -2.8887 H   0  0  0  0  0  0  0  0  0  0  0  0
    1.8822   -3.4080   -3.0050 H   0  0  0  0  0  0  0  0  0  0  0  0
    1.4843   -1.8741   -3.8159 H   0  0  0  0  0  0  0  0  0  0  0  0
  5  6  2  0  0  0  0
  5  7  1  0  0  0  0
  2  3  1  0  0  0  0
  2  4  1  0  0  0  0
  2  5  1  0  0  0  0
  1  2  1  0  0  0  0
 15 16  2  0  0  0  0
 15 17  1  0  0  0  0
 11 12  1  0  0  0  0
 11 13  1  0  0  0  0
 11 14  1  0  0  0  0
  9 10  1  0  0  0  0
  9 11  1  0  0  0  0
  9 15  1  0  0  0  0
  7  8  1  0  0  0  0
  7  9  1  0  0  0  0
 19 20  1  0  0  0  0
 19 21  1  0  0  0  0
 19 22  1  0  0  0  0
 17 18  1  0  0  0  0
 17 19  1  0  0  0  0
M  END
$$$$
default_name
  -OEChem-01062215323D

 22 21  0     1  0  0  0  0  0999 V2000
   -2.5423   -3.6749    0.8058 H   0  0  0  0  0  0  0  0  0  0  0  0
   -2.5063   -2.6779    0.3688 C   0  0  0  0  0  0  0  0  0  0  0  0
   -3.1603   -2.0109    0.9268 H   0  0  0  0  0  0  0  0  0  0  0  0
   -2.8193   -2.7229   -0.6722 H   0  0  0  0  0  0  0  0  0  0  0  0
   -1.0873   -2.1629    0.4418 C   0  0  0  0  0  0  0  0  0  0  0  0
   -0.2073   -2.8549    0.9368 O   0  0  0  0  0  0  0  0  0  0  0  0
   -0.8713   -0.9449   -0.0482 N   0  0  0  0  0  0  0  0  0  0  0  0
   -1.6543   -0.4189   -0.4062 H   0  0  0  0  0  0  0  0  0  0  0  0
    0.4237   -0.2649   -0.0462 C   0  0  1  0  0  0  0  0  0  0  0  0
    0.2561    0.8127   -0.0100 H   0  0  0  0  0  0  0  0  0  0  0  0
    1.2030   -0.6802    1.2111 C   0  0  0  0  0  0  0  0  0  0  0  0
    1.3797   -1.7570    1.1999 H   0  0  0  0  0  0  0  0  0  0  0  0
    2.1599   -0.1605    1.2458 H   0  0  0  0  0  0  0  0  0  0  0  0
    0.6300   -0.4195    2.1026 H   0  0  0  0  0  0  0  0  0  0  0  0
    1.2149   -0.5786   -1.3311 C   0  0  0  0  0  0  0  0  0  0  0  0
    1.9953    0.2492   -1.8008 O   0  0  0  0  0  0  0  0  0  0  0  0
    0.9985   -1.7698   -1.9031 N   0  0  0  0  0  0  0  0  0  0  0  0
    0.3403   -2.3924   -1.4624 H   0  0  0  0  0  0  0  0  0  0  0  0
    1.6586   -2.2198   -3.1277 C   0  0  0  0  0  0  0  0  0  0  0  0
    2.7420   -2.1622   -3.0046 H   0  0  0  0  0  0  0  0  0  0  0  0
    1.3776   -3.2492   -3.3544 H   0  0  0  0  0  0  0  0  0  0  0  0
    1.3698   -1.5751   -3.9594 H   0  0  0  0  0  0  0  0  0  0  0  0
  5  6  2  0  0  0  0
  5  7  1  0  0  0  0
  2  3  1  0  0  0  0
  2  4  1  0  0  0  0
  2  5  1  0  0  0  0
  1  2  1  0  0  0  0
 15 16  2  0  0  0  0
 15 17  1  0  0  0  0
 11 12  1  0  0  0  0
 11 13  1  0  0  0  0
 11 14  1  0  0  0  0
  9 10  1  0  0  0  0
  9 11  1  0  0  0  0
  9 15  1  0  0  0  0
  7  8  1  0  0  0  0
  7  9  1  0  0  0  0
 19 20  1  0  0  0  0
 19 21  1  0  0  0  0
 19 22  1  0  0  0  0
 17 18  1  0  0  0  0
 17 19  1  0  0  0  0
M  END
$$$$
default_name
  -OEChem-01062215323D

 22 21  0     1  0  0  0  0  0999 V2000
   -2.5423   -3.6749    0.8058 H   0  0  0  0  0  0  0  0  0  0  0  0
   -2.5063   -2.6779    0.3688 C   0  0  0  0  0  0  0  0  0  0  0  0
   -3.1603   -2.0109    0.9268 H   0  0  0  0  0  0  0  0  0  0  0  0
   -2.8193   -2.7229   -0.6722 H   0  0  0  0  0  0  0  0  0  0  0  0
   -1.0873   -2.1629    0.4418 C   0  0  0  0  0  0  0  0  0  0  0  0
   -0.2073   -2.8549    0.9368 O   0  0  0  0  0  0  0  0  0  0  0  0
   -0.8713   -0.9449   -0.0482 N   0  0  0  0  0  0  0  0  0  0  0  0
   -1.6543   -0.4189   -0.4062 H   0  0  0  0  0  0  0  0  0  0  0  0
    0.4237   -0.2649   -0.0462 C   0  0  1  0  0  0  0  0  0  0  0  0
    0.2561    0.8127   -0.0100 H   0  0  0  0  0  0  0  0  0  0  0  0
    1.2030   -0.6802    1.2111 C   0  0  0  0  0  0  0  0  0  0  0  0
    1.3797   -1.7570    1.1999 H   0  0  0  0  0  0  0  0  0  0  0  0
    2.1599   -0.1605    1.2458 H   0  0  0  0  0  0  0  0  0  0  0  0
    0.6300   -0.4195    2.1026 H   0  0  0  0  0  0  0  0  0  0  0  0
    1.2149   -0.5786   -1.3311 C   0  0  0  0  0  0  0  0  0  0  0  0
    2.1830    0.1106   -1.6514 O   0  0  0  0  0  0  0  0  0  0  0  0
    0.7896   -1.6108   -2.0705 N   0  0  0  0  0  0  0  0  0  0  0  0
   -0.0138   -2.1247   -1.7459 H   0  0  0  0  0  0  0  0  0  0  0  0
    1.4200   -2.0352   -3.3196 C   0  0  0  0  0  0  0  0  0  0  0  0
    2.4802   -2.2327   -3.1486 H   0  0  0  0  0  0  0  0  0  0  0  0
    0.9428   -2.9406   -3.6975 H   0  0  0  0  0  0  0  0  0  0  0  0
    1.3312   -1.2425   -4.0644 H   0  0  0  0  0  0  0  0  0  0  0  0
  5  6  2  0  0  0  0
  5  7  1  0  0  0  0
  2  3  1  0  0  0  0
  2  4  1  0  0  0  0
  2  5  1  0  0  0  0
  1  2  1  0  0  0  0
 15 16  2  0  0  0  0
 15 17  1  0  0  0  0
 11 12  1  0  0  0  0
 11 13  1  0  0  0  0
 11 14  1  0  0  0  0
  9 10  1  0  0  0  0
  9 11  1  0  0  0  0
  9 15  1  0  0  0  0
  7  8  1  0  0  0  0
  7  9  1  0  0  0  0
 19 20  1  0  0  0  0
 19 21  1  0  0  0  0
 19 22  1  0  0  0  0
 17 18  1  0  0  0  0
 17 19  1  0  0  0  0
M  END
$$$$
default_name
  -OEChem-01062215323D

 22 21  0     1  0  0  0  0  0999 V2000
   -2.5423   -3.6749    0.8058 H   0  0  0  0  0  0  0  0  0  0  0  0
   -2.5063   -2.6779    0.3688 C   0  0  0  0  0  0  0  0  0  0  0  0
   -3.1603   -2.0109    0.9268 H   0  0  0  0  0  0  0  0  0  0  0  0
   -2.8193   -2.7229   -0.6722 H   0  0  0  0  0  0  0  0  0  0  0  0
   -1.0873   -2.1629    0.4418 C   0  0  0  0  0  0  0  0  0  0  0  0
   -0.2073   -2.8549    0.9368 O   0  0  0  0  0  0  0  0  0  0  0  0
   -0.8713   -0.9449   -0.0482 N   0  0  0  0  0  0  0  0  0  0  0  0
   -1.6543   -0.4189   -0.4062 H   0  0  0  0  0  0  0  0  0  0  0  0
    0.4237   -0.2649   -0.0462 C   0  0  1  0  0  0  0  0  0  0  0  0
    0.2561    0.8127   -0.0100 H   0  0  0  0  0  0  0  0  0  0  0  0
    1.2030   -0.6802    1.2111 C   0  0  0  0  0  0  0  0  0  0  0  0
    1.3797   -1.7570    1.1999 H   0  0  0  0  0  0  0  0  0  0  0  0
    2.1599   -0.1605    1.2458 H   0  0  0  0  0  0  0  0  0  0  0  0
    0.6300   -0.4195    2.1026 H   0  0  0  0  0  0  0  0  0  0  0  0
    1.2149   -0.5786   -1.3311 C   0  0  0  0  0  0  0  0  0  0  0  0
    2.3265   -0.0835   -1.5156 O   0  0  0  0  0  0  0  0  0  0  0  0
    0.6310   -1.3898   -2.2221 N   0  0  0  0  0  0  0  0  0  0  0  0
   -0.2832   -1.7519   -2.0027 H   0  0  0  0  0  0  0  0  0  0  0  0
    1.2395   -1.7800   -3.4931 C   0  0  0  0  0  0  0  0  0  0  0  0
    2.2196   -2.2252   -3.3109 H   0  0  0  0  0  0  0  0  0  0  0  0
    0.6076   -2.5030   -4.0108 H   0  0  0  0  0  0  0  0  0  0  0  0
    1.3712   -0.8990   -4.1236 H   0  0  0  0  0  0  0  0  0  0  0  0
  5  6  2  0  0  0  0
  5  7  1  0  0  0  0
  2  3  1  0  0  0  0
  2  4  1  0  0  0  0
  2  5  1  0  0  0  0
  1  2  1  0  0  0  0
 15 16  2  0  0  0  0
 15 17  1  0  0  0  0
 11 12  1  0  0  0  0
 11 13  1  0  0  0  0
 11 14  1  0  0  0  0
  9 10  1  0  0  0  0
  9 11  1  0  0  0  0
  9 15  1  0  0  0  0
  7  8  1  0  0  0  0
  7  9  1  0  0  0  0
 19 20  1  0  0  0  0
 19 21  1  0  0  0  0
 19 22  1  0  0  0  0
 17 18  1  0  0  0  0
 17 19  1  0  0  0  0
M  END
$$$$
default_name
  -OEChem-01062215323D

 22 21  0     1  0  0  0  0  0999 V2000
   -2.5423   -3.6749    0.8058 H   0  0  0  0  0  0  0  0  0  0  0  0
   -2.5063   -2.6779    0.3688 C   0  0  0  0  0  0  0  0  0  0  0  0
   -3.1603   -2.0109    0.9268 H   0  0  0  0  0  0  0  0  0  0  0  0
   -2.8193   -2.7229   -0.6722 H   0  0  0  0  0  0  0  0  0  0  0  0
   -1.0873   -2.1629    0.4418 C   0  0  0  0  0  0  0  0  0  0  0  0
   -0.2073   -2.8549    0.9368 O   0  0  0  0  0  0  0  0  0  0  0  0
   -0.8713   -0.9449   -0.0482 N   0  0  0  0  0  0  0  0  0  0  0  0
   -1.6543   -0.4189   -0.4062 H   0  0  0  0  0  0  0  0  0  0  0  0
    0.4237   -0.2649   -0.0462 C   0  0  1  0  0  0  0  0  0  0  0  0
    0.2561    0.8127   -0.0100 H   0  0  0  0  0  0  0  0  0  0  0  0
    1.2030   -0.6802    1.2111 C   0  0  0  0  0  0  0  0  0  0  0  0
    1.3797   -1.7570    1.1999 H   0  0  0  0  0  0  0  0  0  0  0  0
    2.1599   -0.1605    1.2458 H   0  0  0  0  0  0  0  0  0  0  0  0
    0.6300   -0.4195    2.1026 H   0  0  0  0  0  0  0  0  0  0  0  0
    1.2149   -0.5786   -1.3311 C   0  0  0  0  0  0  0  0  0  0  0  0
    2.4161   -0.3200   -1.4027 O   0  0  0  0  0  0  0  0  0  0  0  0
    0.5334   -1.1220   -2.3476 N   0  0  0  0  0  0  0  0  0  0  0  0
   -0.4495   -1.2997   -2.2155 H   0  0  0  0  0  0  0  0  0  0  0  0
    1.1293   -1.4714   -3.6363 C   0  0  0  0  0  0  0  0  0  0  0  0
    1.9781   -2.1402   -3.4803 H   0  0  0  0  0  0  0  0  0  0  0  0
    0.3946   -1.9664   -4.2729 H   0  0  0  0  0  0  0  0  0  0  0  0
    1.4871   -0.5679   -4.1331 H   0  0  0  0  0  0  0  0  0  0  0  0
  5  6  2  0  0  0  0
  5  7  1  0  0  0  0
  2  3  1  0  0  0  0
  2  4  1  0  0  0  0
  2  5  1  0  0  0  0
  1  2  1  0  0  0  0
 15 16  2  0  0  0  0
 15 17  1  0  0  0  0
 11 12  1  0  0  0  0
 11 13  1  0  0  0  0
 11 14  1  0  0  0  0
  9 10  1  0  0  0  0
  9 11  1  0  0  0  0
  9 15  1  0  0  0  0
  7  8  1  0  0  0  0
  7  9  1  0  0  0  0
 19 20  1  0  0  0  0
 19 21  1  0  0  0  0
 19 22  1  0  0  0  0
 17 18  1  0  0  0  0
 17 19  1  0  0  0  0
M  END
$$$$
default_name
  -OEChem-01062215323D

 22 21  0     1  0  0  0  0  0999 V2000
   -2.5423   -3.6749    0.8058 H   0  0  0  0  0  0  0  0  0  0  0  0
   -2.5063   -2.6779    0.3688 C   0  0  0  0  0  0  0  0  0  0  0  0
   -3.1603   -2.0109    0.9268 H   0  0  0  0  0  0  0  0  0  0  0  0
   -2.8193   -2.7229   -0.6722 H   0  0  0  0  0  0  0  0  0  0  0  0
   -1.0873   -2.1629    0.4418 C   0  0  0  0  0  0  0  0  0  0  0  0
   -0.2073   -2.8549    0.9368 O   0  0  0  0  0  0  0  0  0  0  0  0
   -0.8713   -0.9449   -0.0482 N   0  0  0  0  0  0  0  0  0  0  0  0
   -1.6543   -0.4189   -0.4062 H   0  0  0  0  0  0  0  0  0  0  0  0
    0.4237   -0.2649   -0.0462 C   0  0  1  0  0  0  0  0  0  0  0  0
    0.2561    0.8127   -0.0100 H   0  0  0  0  0  0  0  0  0  0  0  0
    1.2030   -0.6802    1.2111 C   0  0  0  0  0  0  0  0  0  0  0  0
    1.3797   -1.7570    1.1999 H   0  0  0  0  0  0  0  0  0  0  0  0
    2.1599   -0.1605    1.2458 H   0  0  0  0  0  0  0  0  0  0  0  0
    0.6300   -0.4195    2.1026 H   0  0  0  0  0  0  0  0  0  0  0  0
    1.2149   -0.5786   -1.3311 C   0  0  0  0  0  0  0  0  0  0  0  0
    2.4456   -0.5829   -1.3204 O   0  0  0  0  0  0  0  0  0  0  0  0
    0.5035   -0.8256   -2.4384 N   0  0  0  0  0  0  0  0  0  0  0  0
   -0.5012   -0.7987   -2.3697 H   0  0  0  0  0  0  0  0  0  0  0  0
    1.0971   -1.1305   -3.7394 C   0  0  0  0  0  0  0  0  0  0  0  0
    1.7721   -1.9835   -3.6454 H   0  0  0  0  0  0  0  0  0  0  0  0
    0.3186   -1.3673   -4.4660 H   0  0  0  0  0  0  0  0  0  0  0  0
    1.6710   -0.2719   -4.0921 H   0  0  0  0  0  0  0  0  0  0  0  0
  5  6  2  0  0  0  0
  5  7  1  0  0  0  0
  2  3  1  0  0  0  0
  2  4  1  0  0  0  0
  2  5  1  0  0  0  0
  1  2  1  0  0  0  0
 15 16  2  0  0  0  0
 15 17  1  0  0  0  0
 11 12  1  0  0  0  0
 11 13  1  0  0  0  0
 11 14  1  0  0  0  0
  9 10  1  0  0  0  0
  9 11  1  0  0  0  0
  9 15  1  0  0  0  0
  7  8  1  0  0  0  0
  7  9  1  0  0  0  0
 19 20  1  0  0  0  0
 19 21  1  0  0  0  0
 19 22  1  0  0  0  0
 17 18  1  0  0  0  0
 17 19  1  0  0  0  0
M  END
$$$$
default_name
  -OEChem-01062215323D

 22 21  0     1  0  0  0  0  0999 V2000
   -2.5423   -3.6749    0.8058 H   0  0  0  0  0  0  0  0  0  0  0  0
   -2.5063   -2.6779    0.3688 C   0  0  0  0  0  0  0  0  0  0  0  0
   -3.1603   -2.0109    0.9268 H   0  0  0  0  0  0  0  0  0  0  0  0
   -2.8193   -2.7229   -0.6722 H   0  0  0  0  0  0  0  0  0  0  0  0
   -1.0873   -2.1629    0.4418 C   0  0  0  0  0  0  0  0  0  0  0  0
   -0.2073   -2.8549    0.9368 O   0  0  0  0  0  0  0  0  0  0  0  0
   -0.8713   -0.9449   -0.0482 N   0  0  0  0  0  0  0  0  0  0  0  0
   -1.6543   -0.4189   -0.4062 H   0  0  0  0  0  0  0  0  0  0  0  0
    0.4237   -0.2649   -0.0462 C   0  0  1  0  0  0  0  0  0  0  0  0
    0.2561    0.8127   -0.0100 H   0  0  0  0  0  0  0  0  0  0  0  0
    1.2030   -0.6802    1.2111 C   0  0  0  0  0  0  0  0  0  0  0  0
    1.3797   -1.7570    1.1999 H   0  0  0  0  0  0  0  0  0  0  0  0
    2.1599   -0.1605    1.2458 H   0  0  0  0  0  0  0  0  0  0  0  0
    0.6300   -0.4195    2.1026 H   0  0  0  0  0  0  0  0  0  0  0  0
    1.2149   -0.5786   -1.3311 C   0  0  0  0  0  0  0  0  0  0  0  0
    2.4131   -0.8540   -1.2742 O   0  0  0  0  0  0  0  0  0  0  0  0
    0.5434   -0.5208   -2.4882 N   0  0  0  0  0  0  0  0  0  0  0  0
   -0.4350   -0.2831   -2.4548 H   0  0  0  0  0  0  0  0  0  0  0  0
    1.1449   -0.7806   -3.7953 C   0  0  0  0  0  0  0  0  0  0  0  0
    1.6156   -1.7657   -3.7950 H   0  0  0  0  0  0  0  0  0  0  0  0
    0.3845   -0.7466   -4.5769 H   0  0  0  0  0  0  0  0  0  0  0  0
    1.9104   -0.0311   -4.0035 H   0  0  0  0  0  0  0  0  0  0  0  0
  5  6  2  0  0  0  0
  5  7  1  0  0  0  0
  2  3  1  0  0  0  0
  2  4  1  0  0  0  0
  2  5  1  0  0  0  0
  1  2  1  0  0  0  0
 15 16  2  0  0  0  0
 15 17  1  0  0  0  0
 11 12  1  0  0  0  0
 11 13  1  0  0  0  0
 11 14  1  0  0  0  0
  9 10  1  0  0  0  0
  9 11  1  0  0  0  0
  9 15  1  0  0  0  0
  7  8  1  0  0  0  0
  7  9  1  0  0  0  0
 19 20  1  0  0  0  0
 19 21  1  0  0  0  0
 19 22  1  0  0  0  0
 17 18  1  0  0  0  0
 17 19  1  0  0  0  0
M  END
$$$$
default_name
  -OEChem-01062215323D

 22 21  0     1  0  0  0  0  0999 V2000
   -2.5423   -3.6749    0.8058 H   0  0  0  0  0  0  0  0  0  0  0  0
   -2.5063   -2.6779    0.3688 C   0  0  0  0  0  0  0  0  0  0  0  0
   -3.1603   -2.0109    0.9268 H   0  0  0  0  0  0  0  0  0  0  0  0
   -2.8193   -2.7229   -0.6722 H   0  0  0  0  0  0  0  0  0  0  0  0
   -1.0873   -2.1629    0.4418 C   0  0  0  0  0  0  0  0  0  0  0  0
   -0.2073   -2.8549    0.9368 O   0  0  0  0  0  0  0  0  0  0  0  0
   -0.8713   -0.9449   -0.0482 N   0  0  0  0  0  0  0  0  0  0  0  0
   -1.6543   -0.4189   -0.4062 H   0  0  0  0  0  0  0  0  0  0  0  0
    0.4237   -0.2649   -0.0462 C   0  0  1  0  0  0  0  0  0  0  0  0
    0.2561    0.8127   -0.0100 H   0  0  0  0  0  0  0  0  0  0  0  0
    1.2030   -0.6802    1.2111 C   0  0  0  0  0  0  0  0  0  0  0  0
    1.3797   -1.7570    1.1999 H   0  0  0  0  0  0  0  0  0  0  0  0
    2.1599   -0.1605    1.2458 H   0  0  0  0  0  0  0  0  0  0  0  0
    0.6300   -0.4195    2.1026 H   0  0  0  0  0  0  0  0  0  0  0  0
    1.2149   -0.5786   -1.3311 C   0  0  0  0  0  0  0  0  0  0  0  0
    2.3208   -1.1151   -1.2674 O   0  0  0  0  0  0  0  0  0  0  0  0
    0.6504   -0.2284   -2.4937 N   0  0  0  0  0  0  0  0  0  0  0  0
   -0.2553    0.2119   -2.4650 H   0  0  0  0  0  0  0  0  0  0  0  0
    1.2695   -0.4455   -3.8004 C   0  0  0  0  0  0  0  0  0  0  0  0
    1.5194   -1.5017   -3.9187 H   0  0  0  0  0  0  0  0  0  0  0  0
    0.5880   -0.1465   -4.5981 H   0  0  0  0  0  0  0  0  0  0  0  0
    2.1888    0.1381   -3.8733 H   0  0  0  0  0  0  0  0  0  0  0  0
  5  6  2  0  0  0  0
  5  7  1  0  0  0  0
  2  3  1  0  0  0  0
  2  4  1  0  0  0  0
  2  5  1  0  0  0  0
  1  2  1  0  0  0  0
 15 16  2  0  0  0  0
 15 17  1  0  0  0  0
 11 12  1  0  0  0  0
 11 13  1  0  0  0  0
 11 14  1  0  0  0  0
  9 10  1  0  0  0  0
  9 11  1  0  0  0  0
  9 15  1  0  0  0  0
  7  8  1  0  0  0  0
  7  9  1  0  0  0  0
 19 20  1  0  0  0  0
 19 21  1  0  0  0  0
 19 22  1  0  0  0  0
 17 18  1  0  0  0  0
 17 19  1  0  0  0  0
M  END
$$$$
default_name
  -OEChem-01062215323D

 22 21  0     1  0  0  0  0  0999 V2000
   -2.5423   -3.6749    0.8058 H   0  0  0  0  0  0  0  0  0  0  0  0
   -2.5063   -2.6779    0.3688 C   0  0  0  0  0  0  0  0  0  0  0  0
   -3.1603   -2.0109    0.9268 H   0  0  0  0  0  0  0  0  0  0  0  0
   -2.8193   -2.7229   -0.6722 H   0  0  0  0  0  0  0  0  0  0  0  0
   -1.0873   -2.1629    0.4418 C   0  0  0  0  0  0  0  0  0  0  0  0
   -0.2073   -2.8549    0.9368 O   0  0  0  0  0  0  0  0  0  0  0  0
   -0.8713   -0.9449   -0.0482 N   0  0  0  0  0  0  0  0  0  0  0  0
   -1.6543   -0.4189   -0.4062 H   0  0  0  0  0  0  0  0  0  0  0  0
    0.4237   -0.2649   -0.0462 C   0  0  1  0  0  0  0  0  0  0  0  0
    0.2561    0.8127   -0.0100 H   0  0  0  0  0  0  0  0  0  0  0  0
    1.2030   -0.6802    1.2111 C   0  0  0  0  0  0  0  0  0  0  0  0
    1.3797   -1.7570    1.1999 H   0  0  0  0  0  0  0  0  0  0  0  0
    2.1599   -0.1605    1.2458 H   0  0  0  0  0  0  0  0  0  0  0  0
    0.6300   -0.4195    2.1026 H   0  0  0  0  0  0  0  0  0  0  0  0
    1.2149   -0.5786   -1.3311 C   0  0  0  0  0  0  0  0  0  0  0  0
    2.1749   -1.3482   -1.3003 O   0  0  0  0  0  0  0  0  0  0  0  0
    0.8170    0.0318   -2.4546 N   0  0  0  0  0  0  0  0  0  0  0  0
    0.0256    0.6527   -2.3996 H   0  0  0  0  0  0  0  0  0  0  0  0
    1.4625   -0.1480   -3.7542 C   0  0  0  0  0  0  0  0  0  0  0  0
    1.4899   -1.2095   -4.0082 H   0  0  0  0  0  0  0  0  0  0  0  0
    0.9152    0.3921   -4.5281 H   0  0  0  0  0  0  0  0  0  0  0  0
    2.4875    0.2242   -3.7105 H   0  0  0  0  0  0  0  0  0  0  0  0
  5  6  2  0  0  0  0
  5  7  1  0  0  0  0
  2  3  1  0  0  0  0
  2  4  1  0  0  0  0
  2  5  1  0  0  0  0
  1  2  1  0  0  0  0
 15 16  2  0  0  0  0
 15 17  1  0  0  0  0
 11 12  1  0  0  0  0
 11 13  1  0  0  0  0
 11 14  1  0  0  0  0
  9 10  1  0  0  0  0
  9 11  1  0  0  0  0
  9 15  1  0  0  0  0
  7  8  1  0  0  0  0
  7  9  1  0  0  0  0
 19 20  1  0  0  0  0
 19 21  1  0  0  0  0
 19 22  1  0  0  0  0
 17 18  1  0  0  0  0
 17 19  1  0  0  0  0
M  END
$$$$
default_name
  -OEChem-01062215323D

 22 21  0     1  0  0  0  0  0999 V2000
   -2.5423   -3.6749    0.8058 H   0  0  0  0  0  0  0  0  0  0  0  0
   -2.5063   -2.6779    0.3688 C   0  0  0  0  0  0  0  0  0  0  0  0
   -3.1603   -2.0109    0.9268 H   0  0  0  0  0  0  0  0  0  0  0  0
   -2.8193   -2.7229   -0.6722 H   0  0  0  0  0  0  0  0  0  0  0  0
   -1.0873   -2.1629    0.4418 C   0  0  0  0  0  0  0  0  0  0  0  0
   -0.2073   -2.8549    0.9368 O   0  0  0  0  0  0  0  0  0  0  0  0
   -0.8713   -0.9449   -0.0482 N   0  0  0  0  0  0  0  0  0  0  0  0
   -1.6543   -0.4189   -0.4062 H   0  0  0  0  0  0  0  0  0  0  0  0
    0.4237   -0.2649   -0.0462 C   0  0  1  0  0  0  0  0  0  0  0  0
    0.2561    0.8127   -0.0100 H   0  0  0  0  0  0  0  0  0  0  0  0
    1.2030   -0.6802    1.2111 C   0  0  0  0  0  0  0  0  0  0  0  0
    1.3797   -1.7570    1.1999 H   0  0  0  0  0  0  0  0  0  0  0  0
    2.1599   -0.1605    1.2458 H   0  0  0  0  0  0  0  0  0  0  0  0
    0.6300   -0.4195    2.1026 H   0  0  0  0  0  0  0  0  0  0  0  0
    1.2149   -0.5786   -1.3311 C   0  0  0  0  0  0  0  0  0  0  0  0
    1.9854   -1.5376   -1.3707 O   0  0  0  0  0  0  0  0  0  0  0  0
    1.0321    0.2419   -2.3735 N   0  0  0  0  0  0  0  0  0  0  0  0
    0.3886    1.0091   -2.2631 H   0  0  0  0  0  0  0  0  0  0  0  0
    1.7106    0.0916   -3.6599 C   0  0  0  0  0  0  0  0  0  0  0  0
    1.5291   -0.9090   -4.0574 H   0  0  0  0  0  0  0  0  0  0  0  0
    1.3437    0.8324   -4.3717 H   0  0  0  0  0  0  0  0  0  0  0  0
    2.7859    0.2212   -3.5260 H   0  0  0  0  0  0  0  0  0  0  0  0
  5  6  2  0  0  0  0
  5  7  1  0  0  0  0
  2  3  1  0  0  0  0
  2  4  1  0  0  0  0
  2  5  1  0  0  0  0
  1  2  1  0  0  0  0
 15 16  2  0  0  0  0
 15 17  1  0  0  0  0
 11 12  1  0  0  0  0
 11 13  1  0  0  0  0
 11 14  1  0  0  0  0
  9 10  1  0  0  0  0
  9 11  1  0  0  0  0
  9 15  1  0  0  0  0
  7  8  1  0  0  0  0
  7  9  1  0  0  0  0
 19 20  1  0  0  0  0
 19 21  1  0  0  0  0
 19 22  1  0  0  0  0
 17 18  1  0  0  0  0
 17 19  1  0  0  0  0
M  END
$$$$
default_name
  -OEChem-01062215323D

 22 21  0     1  0  0  0  0  0999 V2000
   -2.5423   -3.6749    0.8058 H   0  0  0  0  0  0  0  0  0  0  0  0
   -2.5063   -2.6779    0.3688 C   0  0  0  0  0  0  0  0  0  0  0  0
   -3.1603   -2.0109    0.9268 H   0  0  0  0  0  0  0  0  0  0  0  0
   -2.8193   -2.7229   -0.6722 H   0  0  0  0  0  0  0  0  0  0  0  0
   -1.0873   -2.1629    0.4418 C   0  0  0  0  0  0  0  0  0  0  0  0
   -0.2073   -2.8549    0.9368 O   0  0  0  0  0  0  0  0  0  0  0  0
   -0.8713   -0.9449   -0.0482 N   0  0  0  0  0  0  0  0  0  0  0  0
   -1.6543   -0.4189   -0.4062 H   0  0  0  0  0  0  0  0  0  0  0  0
    0.4237   -0.2649   -0.0462 C   0  0  1  0  0  0  0  0  0  0  0  0
    0.2561    0.8127   -0.0100 H   0  0  0  0  0  0  0  0  0  0  0  0
    1.2030   -0.6802    1.2111 C   0  0  0  0  0  0  0  0  0  0  0  0
    1.3797   -1.7570    1.1999 H   0  0  0  0  0  0  0  0  0  0  0  0
    2.1599   -0.1605    1.2458 H   0  0  0  0  0  0  0  0  0  0  0  0
    0.6300   -0.4195    2.1026 H   0  0  0  0  0  0  0  0  0  0  0  0
    1.2149   -0.5786   -1.3311 C   0  0  0  0  0  0  0  0  0  0  0  0
    1.7652   -1.6702   -1.4739 O   0  0  0  0  0  0  0  0  0  0  0  0
    1.2809    0.3876   -2.2558 N   0  0  0  0  0  0  0  0  0  0  0  0
    0.8089    1.2569   -2.0648 H   0  0  0  0  0  0  0  0  0  0  0  0
    1.9970    0.2569   -3.5239 C   0  0  0  0  0  0  0  0  0  0  0  0
    1.6345   -0.6207   -4.0629 H   0  0  0  0  0  0  0  0  0  0  0  0
    1.8444    1.1444   -4.1396 H   0  0  0  0  0  0  0  0  0  0  0  0
    3.0639    0.1294   -3.3324 H   0  0  0  0  0  0  0  0  0  0  0  0
  5  6  2  0  0  0  0
  5  7  1  0  0  0  0
  2  3  1  0  0  0  0
  2  4  1  0  0  0  0
  2  5  1  0  0  0  0
  1  2  1  0  0  0  0
 15 16  2  0  0  0  0
 15 17  1  0  0  0  0
 11 12  1  0  0  0  0
 11 13  1  0  0  0  0
 11 14  1  0  0  0  0
  9 10  1  0  0  0  0
  9 11  1  0  0  0  0
  9 15  1  0  0  0  0
  7  8  1  0  0  0  0
  7  9  1  0  0  0  0
 19 20  1  0  0  0  0
 19 21  1  0  0  0  0
 19 22  1  0  0  0  0
 17 18  1  0  0  0  0
 17 19  1  0  0  0  0
M  END
$$$$
default_name
  -OEChem-01062215323D

 22 21  0     1  0  0  0  0  0999 V2000
   -2.5423   -3.6749    0.8058 H   0  0  0  0  0  0  0  0  0  0  0  0
   -2.5063   -2.6779    0.3688 C   0  0  0  0  0  0  0  0  0  0  0  0
   -3.1603   -2.0109    0.9268 H   0  0  0  0  0  0  0  0  0  0  0  0
   -2.8193   -2.7229   -0.6722 H   0  0  0  0  0  0  0  0  0  0  0  0
   -1.0873   -2.1629    0.4418 C   0  0  0  0  0  0  0  0  0  0  0  0
   -0.2073   -2.8549    0.9368 O   0  0  0  0  0  0  0  0  0  0  0  0
   -0.8713   -0.9449   -0.0482 N   0  0  0  0  0  0  0  0  0  0  0  0
   -1.6543   -0.4189   -0.4062 H   0  0  0  0  0  0  0  0  0  0  0  0
    0.4237   -0.2649   -0.0462 C   0  0  1  0  0  0  0  0  0  0  0  0
    0.2561    0.8127   -0.0100 H   0  0  0  0  0  0  0  0  0  0  0  0
    1.2030   -0.6802    1.2111 C   0  0  0  0  0  0  0  0  0  0  0  0
    1.3797   -1.7570    1.1999 H   0  0  0  0  0  0  0  0  0  0  0  0
    2.1599   -0.1605    1.2458 H   0  0  0  0  0  0  0  0  0  0  0  0
    0.6300   -0.4195    2.1026 H   0  0  0  0  0  0  0  0  0  0  0  0
    1.2149   -0.5786   -1.3311 C   0  0  0  0  0  0  0  0  0  0  0  0
    1.5293   -1.7371   -1.6028 O   0  0  0  0  0  0  0  0  0  0  0  0
    1.5465    0.4591   -2.1098 N   0  0  0  0  0  0  0  0  0  0  0  0
    1.2580    1.3793   -1.8181 H   0  0  0  0  0  0  0  0  0  0  0  0
    2.3022    0.3367   -3.3555 C   0  0  0  0  0  0  0  0  0  0  0  0
    1.7987   -0.3642   -4.0244 H   0  0  0  0  0  0  0  0  0  0  0  0
    2.3832    1.3070   -3.8475 H   0  0  0  0  0  0  0  0  0  0  0  0
    3.3023   -0.0449   -3.1430 H   0  0  0  0  0  0  0  0  0  0  0  0
  5  6  2  0  0  0  0
  5  7  1  0  0  0  0
  2  3  1  0  0  0  0
  2  4  1  0  0  0  0
  2  5  1  0  0  0  0
  1  2  1  0  0  0  0
 15 16  2  0  0  0  0
 15 17  1  0  0  0  0
 11 12  1  0  0  0  0
 11 13  1  0  0  0  0
 11 14  1  0  0  0  0
  9 10  1  0  0  0  0
  9 11  1  0  0  0  0
  9 15  1  0  0  0  0
  7  8  1  0  0  0  0
  7  9  1  0  0  0  0
 19 20  1  0  0  0  0
 19 21  1  0  0  0  0
 19 22  1  0  0  0  0
 17 18  1  0  0  0  0
 17 19  1  0  0  0  0
M  END
$$$$
default_name
  -OEChem-01062215323D

 22 21  0     1  0  0  0  0  0999 V2000
   -2.5423   -3.6749    0.8058 H   0  0  0  0  0  0  0  0  0  0  0  0
   -2.5063   -2.6779    0.3688 C   0  0  0  0  0  0  0  0  0  0  0  0
   -3.1603   -2.0109    0.9268 H   0  0  0  0  0  0  0  0  0  0  0  0
   -2.8193   -2.7229   -0.6722 H   0  0  0  0  0  0  0  0  0  0  0  0
   -1.0873   -2.1629    0.4418 C   0  0  0  0  0  0  0  0  0  0  0  0
   -0.2073   -2.8549    0.9368 O   0  0  0  0  0  0  0  0  0  0  0  0
   -0.8713   -0.9449   -0.0482 N   0  0  0  0  0  0  0  0  0  0  0  0
   -1.6543   -0.4189   -0.4062 H   0  0  0  0  0  0  0  0  0  0  0  0
    0.4237   -0.2649   -0.0462 C   0  0  1  0  0  0  0  0  0  0  0  0
    0.2561    0.8127   -0.0100 H   0  0  0  0  0  0  0  0  0  0  0  0
    1.2030   -0.6802    1.2111 C   0  0  0  0  0  0  0  0  0  0  0  0
    1.3797   -1.7570    1.1999 H   0  0  0  0  0  0  0  0  0  0  0  0
    2.1599   -0.1605    1.2458 H   0  0  0  0  0  0  0  0  0  0  0  0
    0.6300   -0.4195    2.1026 H   0  0  0  0  0  0  0  0  0  0  0  0
    1.2149   -0.5786   -1.3311 C   0  0  0  0  0  0  0  0  0  0  0  0
    1.2939   -1.7337   -1.7486 O   0  0  0  0  0  0  0  0  0  0  0  0
    1.8108    0.4514   -1.9452 N   0  0  0  0  0  0  0  0  0  0  0  0
    1.7052    1.3677   -1.5400 H   0  0  0  0  0  0  0  0  0  0  0  0
    2.6053    0.3256   -3.1661 C   0  0  0  0  0  0  0  0  0  0  0  0
    2.0107   -0.1570   -3.9444 H   0  0  0  0  0  0  0  0  0  0  0  0
    2.9233    1.3090   -3.5155 H   0  0  0  0  0  0  0  0  0  0  0  0
    3.4850   -0.2900   -2.9707 H   0  0  0  0  0  0  0  0  0  0  0  0
  5  6  2  0  0  0  0
  5  7  1  0  0  0  0
  2  3  1  0  0  0  0
  2  4  1  0  0  0  0
  2  5  1  0  0  0  0
  1  2  1  0  0  0  0
 15 16  2  0  0  0  0
 15 17  1  0  0  0  0
 11 12  1  0  0  0  0
 11 13  1  0  0  0  0
 11 14  1  0  0  0  0
  9 10  1  0  0  0  0
  9 11  1  0  0  0  0
  9 15  1  0  0  0  0
  7  8  1  0  0  0  0
  7  9  1  0  0  0  0
 19 20  1  0  0  0  0
 19 21  1  0  0  0  0
 19 22  1  0  0  0  0
 17 18  1  0  0  0  0
 17 19  1  0  0  0  0
M  END
$$$$
default_name
  -OEChem-01062215323D

 22 21  0     1  0  0  0  0  0999 V2000
   -2.5423   -3.6749    0.8058 H   0  0  0  0  0  0  0  0  0  0  0  0
   -2.5063   -2.6779    0.3688 C   0  0  0  0  0  0  0  0  0  0  0  0
   -3.1603   -2.0109    0.9268 H   0  0  0  0  0  0  0  0  0  0  0  0
   -2.8193   -2.7229   -0.6722 H   0  0  0  0  0  0  0  0  0  0  0  0
   -1.0873   -2.1629    0.4418 C   0  0  0  0  0  0  0  0  0  0  0  0
   -0.2073   -2.8549    0.9368 O   0  0  0  0  0  0  0  0  0  0  0  0
   -0.8713   -0.9449   -0.0482 N   0  0  0  0  0  0  0  0  0  0  0  0
   -1.6543   -0.4189   -0.4062 H   0  0  0  0  0  0  0  0  0  0  0  0
    0.4237   -0.2649   -0.0462 C   0  0  1  0  0  0  0  0  0  0  0  0
    0.2561    0.8127   -0.0100 H   0  0  0  0  0  0  0  0  0  0  0  0
    1.2030   -0.6802    1.2111 C   0  0  0  0  0  0  0  0  0  0  0  0
    1.3797   -1.7570    1.1999 H   0  0  0  0  0  0  0  0  0  0  0  0
    2.1599   -0.1605    1.2458 H   0  0  0  0  0  0  0  0  0  0  0  0
    0.6300   -0.4195    2.1026 H   0  0  0  0  0  0  0  0  0  0  0  0
    1.2149   -0.5786   -1.3311 C   0  0  0  0  0  0  0  0  0  0  0  0
    1.0748   -1.6602   -1.9015 O   0  0  0  0  0  0  0  0  0  0  0  0
    2.0557    0.3651   -1.7733 N   0  0  0  0  0  0  0  0  0  0  0  0
    2.1199    1.2232   -1.2493 H   0  0  0  0  0  0  0  0  0  0  0  0
    2.8857    0.2243   -2.9687 C   0  0  0  0  0  0  0  0  0  0  0  0
    2.2560   -0.0132   -3.8285 H   0  0  0  0  0  0  0  0  0  0  0  0
    3.4279    1.1502   -3.1660 H   0  0  0  0  0  0  0  0  0  0  0  0
    3.5996   -0.5889   -2.8272 H   0  0  0  0  0  0  0  0  0  0  0  0
  5  6  2  0  0  0  0
  5  7  1  0  0  0  0
  2  3  1  0  0  0  0
  2  4  1  0  0  0  0
  2  5  1  0  0  0  0
  1  2  1  0  0  0  0
 15 16  2  0  0  0  0
 15 17  1  0  0  0  0
 11 12  1  0  0  0  0
 11 13  1  0  0  0  0
 11 14  1  0  0  0  0
  9 10  1  0  0  0  0
  9 11  1  0  0  0  0
  9 15  1  0  0  0  0
  7  8  1  0  0  0  0
  7  9  1  0  0  0  0
 19 20  1  0  0  0  0
 19 21  1  0  0  0  0
 19 22  1  0  0  0  0
 17 18  1  0  0  0  0
 17 19  1  0  0  0  0
M  END
$$$$
default_name
  -OEChem-01062215323D

 22 21  0     1  0  0  0  0  0999 V2000
   -2.5423   -3.6749    0.8058 H   0  0  0  0  0  0  0  0  0  0  0  0
   -2.5063   -2.6779    0.3688 C   0  0  0  0  0  0  0  0  0  0  0  0
   -3.1603   -2.0109    0.9268 H   0  0  0  0  0  0  0  0  0  0  0  0
   -2.8193   -2.7229   -0.6722 H   0  0  0  0  0  0  0  0  0  0  0  0
   -1.0873   -2.1629    0.4418 C   0  0  0  0  0  0  0  0  0  0  0  0
   -0.2073   -2.8549    0.9368 O   0  0  0  0  0  0  0  0  0  0  0  0
   -0.8713   -0.9449   -0.0482 N   0  0  0  0  0  0  0  0  0  0  0  0
   -1.6543   -0.4189   -0.4062 H   0  0  0  0  0  0  0  0  0  0  0  0
    0.4237   -0.2649   -0.0462 C   0  0  1  0  0  0  0  0  0  0  0  0
    0.2561    0.8127   -0.0100 H   0  0  0  0  0  0  0  0  0  0  0  0
    1.2030   -0.6802    1.2111 C   0  0  0  0  0  0  0  0  0  0  0  0
    1.3797   -1.7570    1.1999 H   0  0  0  0  0  0  0  0  0  0  0  0
    2.1599   -0.1605    1.2458 H   0  0  0  0  0  0  0  0  0  0  0  0
    0.6300   -0.4195    2.1026 H   0  0  0  0  0  0  0  0  0  0  0  0
    1.2149   -0.5786   -1.3311 C   0  0  0  0  0  0  0  0  0  0  0  0
    0.8872   -1.5217   -2.0508 O   0  0  0  0  0  0  0  0  0  0  0  0
    2.2646    0.2061   -1.6058 N   0  0  0  0  0  0  0  0  0  0  0  0
    2.4741    0.9554   -0.9658 H   0  0  0  0  0  0  0  0  0  0  0  0
    3.1243    0.0397   -2.7768 C   0  0  0  0  0  0  0  0  0  0  0  0
    2.5178    0.0574   -3.6845 H   0  0  0  0  0  0  0  0  0  0  0  0
    3.8626    0.8415   -2.8229 H   0  0  0  0  0  0  0  0  0  0  0  0
    3.6382   -0.9215   -2.7222 H   0  0  0  0  0  0  0  0  0  0  0  0
  5  6  2  0  0  0  0
  5  7  1  0  0  0  0
  2  3  1  0  0  0  0
  2  4  1  0  0  0  0
  2  5  1  0  0  0  0
  1  2  1  0  0  0  0
 15 16  2  0  0  0  0
 15 17  1  0  0  0  0
 11 12  1  0  0  0  0
 11 13  1  0  0  0  0
 11 14  1  0  0  0  0
  9 10  1  0  0  0  0
  9 11  1  0  0  0  0
  9 15  1  0  0  0  0
  7  8  1  0  0  0  0
  7  9  1  0  0  0  0
 19 20  1  0  0  0  0
 19 21  1  0  0  0  0
 19 22  1  0  0  0  0
 17 18  1  0  0  0  0
 17 19  1  0  0  0  0
M  END
$$$$
default_name
  -OEChem-01062215323D

 22 21  0     1  0  0  0  0  0999 V2000
   -2.5423   -3.6749    0.8058 H   0  0  0  0  0  0  0  0  0  0  0  0
   -2.5063   -2.6779    0.3688 C   0  0  0  0  0  0  0  0  0  0  0  0
   -3.1603   -2.0109    0.9268 H   0  0  0  0  0  0  0  0  0  0  0  0
   -2.8193   -2.7229   -0.6722 H   0  0  0  0  0  0  0  0  0  0  0  0
   -1.0873   -2.1629    0.4418 C   0  0  0  0  0  0  0  0  0  0  0  0
   -0.2073   -2.8549    0.9368 O   0  0  0  0  0  0  0  0  0  0  0  0
   -0.8713   -0.9449   -0.0482 N   0  0  0  0  0  0  0  0  0  0  0  0
   -1.6543   -0.4189   -0.4062 H   0  0  0  0  0  0  0  0  0  0  0  0
    0.4237   -0.2649   -0.0462 C   0  0  1  0  0  0  0  0  0  0  0  0
    0.2764    0.7732    0.2559 H   0  0  0  0  0  0  0  0  0  0  0  0
    1.3429   -0.9460    0.9794 C   0  0  0  0  0  0  0  0  0  0  0  0
    1.5023   -1.9889    0.7005 H   0  0  0  0  0  0  0  0  0  0  0  0
    2.3041   -0.4344    1.0168 H   0  0  0  0  0  0  0  0  0  0  0  0
    0.8851   -0.9047    1.9691 H   0  0  0  0  0  0  0  0  0  0  0  0
    1.0501   -0.2644   -1.4544 C   0  0  0  0  0  0  0  0  0  0  0  0
    0.4691   -0.8041   -2.3957 O   0  0  0  0  0  0  0  0  0  0  0  0
    2.2425    0.3298   -1.5894 N   0  0  0  0  0  0  0  0  0  0  0  0
    2.6582    0.7453   -0.7712 H   0  0  0  0  0  0  0  0  0  0  0  0
    2.9765    0.4104   -2.8514 C   0  0  0  0  0  0  0  0  0  0  0  0
    2.3469    0.8718   -3.6149 H   0  0  0  0  0  0  0  0  0  0  0  0
    3.8827    1.0048   -2.7264 H   0  0  0  0  0  0  0  0  0  0  0  0
    3.2461   -0.5931   -3.1849 H   0  0  0  0  0  0  0  0  0  0  0  0
  5  6  2  0  0  0  0
  5  7  1  0  0  0  0
  2  3  1  0  0  0  0
  2  4  1  0  0  0  0
  2  5  1  0  0  0  0
  1  2  1  0  0  0  0
 15 16  2  0  0  0  0
 15 17  1  0  0  0  0
 11 12  1  0  0  0  0
 11 13  1  0  0  0  0
 11 14  1  0  0  0  0
  9 10  1  0  0  0  0
  9 11  1  0  0  0  0
  9 15  1  0  0  0  0
  7  8  1  0  0  0  0
  7  9  1  0  0  0  0
 19 20  1  0  0  0  0
 19 21  1  0  0  0  0
 19 22  1  0  0  0  0
 17 18  1  0  0  0  0
 17 19  1  0  0  0  0
M  END
$$$$
default_name
  -OEChem-01062215323D

 22 21  0     1  0  0  0  0  0999 V2000
   -2.5423   -3.6749    0.8058 H   0  0  0  0  0  0  0  0  0  0  0  0
   -2.5063   -2.6779    0.3688 C   0  0  0  0  0  0  0  0  0  0  0  0
   -3.1603   -2.0109    0.9268 H   0  0  0  0  0  0  0  0  0  0  0  0
   -2.8193   -2.7229   -0.6722 H   0  0  0  0  0  0  0  0  0  0  0  0
   -1.0873   -2.1629    0.4418 C   0  0  0  0  0  0  0  0  0  0  0  0
   -0.2073   -2.8549    0.9368 O   0  0  0  0  0  0  0  0  0  0  0  0
   -0.8713   -0.9449   -0.0482 N   0  0  0  0  0  0  0  0  0  0  0  0
   -1.6543   -0.4189   -0.4062 H   0  0  0  0  0  0  0  0  0  0  0  0
    0.4237   -0.2649   -0.0462 C   0  0  1  0  0  0  0  0  0  0  0  0
    0.2764    0.7732    0.2559 H   0  0  0  0  0  0  0  0  0  0  0  0
    1.3429   -0.9460    0.9794 C   0  0  0  0  0  0  0  0  0  0  0  0
    1.5023   -1.9889    0.7005 H   0  0  0  0  0  0  0  0  0  0  0  0
    2.3041   -0.4344    1.0168 H   0  0  0  0  0  0  0  0  0  0  0  0
    0.8851   -0.9047    1.9691 H   0  0  0  0  0  0  0  0  0  0  0  0
    1.0501   -0.2644   -1.4544 C   0  0  0  0  0  0  0  0  0  0  0  0
    0.3699   -0.5493   -2.4397 O   0  0  0  0  0  0  0  0  0  0  0  0
    2.3508    0.0418   -1.5414 N   0  0  0  0  0  0  0  0  0  0  0  0
    2.8426    0.2587   -0.6893 H   0  0  0  0  0  0  0  0  0  0  0  0
    3.0989    0.0789   -2.7971 C   0  0  0  0  0  0  0  0  0  0  0  0
    2.6059    0.7537   -3.4997 H   0  0  0  0  0  0  0  0  0  0  0  0
    4.1183    0.4256   -2.6218 H   0  0  0  0  0  0  0  0  0  0  0  0
    3.1277   -0.9192   -3.2377 H   0  0  0  0  0  0  0  0  0  0  0  0
  5  6  2  0  0  0  0
  5  7  1  0  0  0  0
  2  3  1  0  0  0  0
  2  4  1  0  0  0  0
  2  5  1  0  0  0  0
  1  2  1  0  0  0  0
 15 16  2  0  0  0  0
 15 17  1  0  0  0  0
 11 12  1  0  0  0  0
 11 13  1  0  0  0  0
 11 14  1  0  0  0  0
  9 10  1  0  0  0  0
  9 11  1  0  0  0  0
  9 15  1  0  0  0  0
  7  8  1  0  0  0  0
  7  9  1  0  0  0  0
 19 20  1  0  0  0  0
 19 21  1  0  0  0  0
 19 22  1  0  0  0  0
 17 18  1  0  0  0  0
 17 19  1  0  0  0  0
M  END
$$$$
default_name
  -OEChem-01062215323D

 22 21  0     1  0  0  0  0  0999 V2000
   -2.5423   -3.6749    0.8058 H   0  0  0  0  0  0  0  0  0  0  0  0
   -2.5063   -2.6779    0.3688 C   0  0  0  0  0  0  0  0  0  0  0  0
   -3.1603   -2.0109    0.9268 H   0  0  0  0  0  0  0  0  0  0  0  0
   -2.8193   -2.7229   -0.6722 H   0  0  0  0  0  0  0  0  0  0  0  0
   -1.0873   -2.1629    0.4418 C   0  0  0  0  0  0  0  0  0  0  0  0
   -0.2073   -2.8549    0.9368 O   0  0  0  0  0  0  0  0  0  0  0  0
   -0.8713   -0.9449   -0.0482 N   0  0  0  0  0  0  0  0  0  0  0  0
   -1.6543   -0.4189   -0.4062 H   0  0  0  0  0  0  0  0  0  0  0  0
    0.4237   -0.2649   -0.0462 C   0  0  1  0  0  0  0  0  0  0  0  0
    0.2764    0.7732    0.2559 H   0  0  0  0  0  0  0  0  0  0  0  0
    1.3429   -0.9460    0.9794 C   0  0  0  0  0  0  0  0  0  0  0  0
    1.5023   -1.9889    0.7005 H   0  0  0  0  0  0  0  0  0  0  0  0
    2.3041   -0.4344    1.0168 H   0  0  0  0  0  0  0  0  0  0  0  0
    0.8851   -0.9047    1.9691 H   0  0  0  0  0  0  0  0  0  0  0  0
    1.0501   -0.2644   -1.4544 C   0  0  0  0  0  0  0  0  0  0  0  0
    0.3342   -0.2751   -2.4555 O   0  0  0  0  0  0  0  0  0  0  0  0
    2.3873   -0.2671   -1.5252 N   0  0  0  0  0  0  0  0  0  0  0  0
    2.9057   -0.2635   -0.6614 H   0  0  0  0  0  0  0  0  0  0  0  0
    3.1387   -0.2761   -2.7795 C   0  0  0  0  0  0  0  0  0  0  0  0
    2.8281    0.5663   -3.4009 H   0  0  0  0  0  0  0  0  0  0  0  0
    4.2089   -0.2007   -2.5818 H   0  0  0  0  0  0  0  0  0  0  0  0
    2.9362   -1.2005   -3.3230 H   0  0  0  0  0  0  0  0  0  0  0  0
  5  6  2  0  0  0  0
  5  7  1  0  0  0  0
  2  3  1  0  0  0  0
  2  4  1  0  0  0  0
  2  5  1  0  0  0  0
  1  2  1  0  0  0  0
 15 16  2  0  0  0  0
 15 17  1  0  0  0  0
 11 12  1  0  0  0  0
 11 13  1  0  0  0  0
 11 14  1  0  0  0  0
  9 10  1  0  0  0  0
  9 11  1  0  0  0  0
  9 15  1  0  0  0  0
  7  8  1  0  0  0  0
  7  9  1  0  0  0  0
 19 20  1  0  0  0  0
 19 21  1  0  0  0  0
 19 22  1  0  0  0  0
 17 18  1  0  0  0  0
 17 19  1  0  0  0  0
M  END
$$$$
default_name
  -OEChem-01062215323D

 22 21  0     1  0  0  0  0  0999 V2000
   -2.5423   -3.6749    0.8058 H   0  0  0  0  0  0  0  0  0  0  0  0
   -2.5063   -2.6779    0.3688 C   0  0  0  0  0  0  0  0  0  0  0  0
   -3.1603   -2.0109    0.9268 H   0  0  0  0  0  0  0  0  0  0  0  0
   -2.8193   -2.7229   -0.6722 H   0  0  0  0  0  0  0  0  0  0  0  0
   -1.0873   -2.1629    0.4418 C   0  0  0  0  0  0  0  0  0  0  0  0
   -0.2073   -2.8549    0.9368 O   0  0  0  0  0  0  0  0  0  0  0  0
   -0.8713   -0.9449   -0.0482 N   0  0  0  0  0  0  0  0  0  0  0  0
   -1.6543   -0.4189   -0.4062 H   0  0  0  0  0  0  0  0  0  0  0  0
    0.4237   -0.2649   -0.0462 C   0  0  1  0  0  0  0  0  0  0  0  0
    0.2764    0.7732    0.2559 H   0  0  0  0  0  0  0  0  0  0  0  0
    1.3429   -0.9460    0.9794 C   0  0  0  0  0  0  0  0  0  0  0  0
    1.5023   -1.9889    0.7005 H   0  0  0  0  0  0  0  0  0  0  0  0
    2.3041   -0.4344    1.0168 H   0  0  0  0  0  0  0  0  0  0  0  0
    0.8851   -0.9047    1.9691 H   0  0  0  0  0  0  0  0  0  0  0  0
    1.0501   -0.2644   -1.4544 C   0  0  0  0  0  0  0  0  0  0  0  0
    0.3646   -0.0001   -2.4419 O   0  0  0  0  0  0  0  0  0  0  0  0
    2.3495   -0.5757   -1.5421 N   0  0  0  0  0  0  0  0  0  0  0  0
    2.8432   -0.7857   -0.6894 H   0  0  0  0  0  0  0  0  0  0  0  0
    3.0932   -0.6301   -2.7999 C   0  0  0  0  0  0  0  0  0  0  0  0
    2.9985    0.3223   -3.3253 H   0  0  0  0  0  0  0  0  0  0  0  0
    4.1483   -0.8312   -2.6089 H   0  0  0  0  0  0  0  0  0  0  0  0
    2.6846   -1.4181   -3.4349 H   0  0  0  0  0  0  0  0  0  0  0  0
  5  6  2  0  0  0  0
  5  7  1  0  0  0  0
  2  3  1  0  0  0  0
  2  4  1  0  0  0  0
  2  5  1  0  0  0  0
  1  2  1  0  0  0  0
 15 16  2  0  0  0  0
 15 17  1  0  0  0  0
 11 12  1  0  0  0  0
 11 13  1  0  0  0  0
 11 14  1  0  0  0  0
  9 10  1  0  0  0  0
  9 11  1  0  0  0  0
  9 15  1  0  0  0  0
  7  8  1  0  0  0  0
  7  9  1  0  0  0  0
 19 20  1  0  0  0  0
 19 21  1  0  0  0  0
 19 22  1  0  0  0  0
 17 18  1  0  0  0  0
 17 19  1  0  0  0  0
M  END
$$$$
default_name
  -OEChem-01062215323D

 22 21  0     1  0  0  0  0  0999 V2000
   -2.5423   -3.6749    0.8058 H   0  0  0  0  0  0  0  0  0  0  0  0
   -2.5063   -2.6779    0.3688 C   0  0  0  0  0  0  0  0  0  0  0  0
   -3.1603   -2.0109    0.9268 H   0  0  0  0  0  0  0  0  0  0  0  0
   -2.8193   -2.7229   -0.6722 H   0  0  0  0  0  0  0  0  0  0  0  0
   -1.0873   -2.1629    0.4418 C   0  0  0  0  0  0  0  0  0  0  0  0
   -0.2073   -2.8549    0.9368 O   0  0  0  0  0  0  0  0  0  0  0  0
   -0.8713   -0.9449   -0.0482 N   0  0  0  0  0  0  0  0  0  0  0  0
   -1.6543   -0.4189   -0.4062 H   0  0  0  0  0  0  0  0  0  0  0  0
    0.4237   -0.2649   -0.0462 C   0  0  1  0  0  0  0  0  0  0  0  0
    0.2764    0.7732    0.2559 H   0  0  0  0  0  0  0  0  0  0  0  0
    1.3429   -0.9460    0.9794 C   0  0  0  0  0  0  0  0  0  0  0  0
    1.5023   -1.9889    0.7005 H   0  0  0  0  0  0  0  0  0  0  0  0
    2.3041   -0.4344    1.0168 H   0  0  0  0  0  0  0  0  0  0  0  0
    0.8851   -0.9047    1.9691 H   0  0  0  0  0  0  0  0  0  0  0  0
    1.0501   -0.2644   -1.4544 C   0  0  0  0  0  0  0  0  0  0  0  0
    0.4591    0.2568   -2.3998 O   0  0  0  0  0  0  0  0  0  0  0  0
    2.2400   -0.8632   -1.5909 N   0  0  0  0  0  0  0  0  0  0  0  0
    2.6593   -1.2725   -0.7714 H   0  0  0  0  0  0  0  0  0  0  0  0
    2.9655   -0.9593   -2.8568 C   0  0  0  0  0  0  0  0  0  0  0  0
    3.1053    0.0384   -3.2778 H   0  0  0  0  0  0  0  0  0  0  0  0
    3.9406   -1.4231   -2.7015 H   0  0  0  0  0  0  0  0  0  0  0  0
    2.3902   -1.5569   -3.5659 H   0  0  0  0  0  0  0  0  0  0  0  0
  5  6  2  0  0  0  0
  5  7  1  0  0  0  0
  2  3  1  0  0  0  0
  2  4  1  0  0  0  0
  2  5  1  0  0  0  0
  1  2  1  0  0  0  0
 15 16  2  0  0  0  0
 15 17  1  0  0  0  0
 11 12  1  0  0  0  0
 11 13  1  0  0  0  0
 11 14  1  0  0  0  0
  9 10  1  0  0  0  0
  9 11  1  0  0  0  0
  9 15  1  0  0  0  0
  7  8  1  0  0  0  0
  7  9  1  0  0  0  0
 19 20  1  0  0  0  0
 19 21  1  0  0  0  0
 19 22  1  0  0  0  0
 17 18  1  0  0  0  0
 17 19  1  0  0  0  0
M  END
$$$$
default_name
  -OEChem-01062215323D

 22 21  0     1  0  0  0  0  0999 V2000
   -2.5423   -3.6749    0.8058 H   0  0  0  0  0  0  0  0  0  0  0  0
   -2.5063   -2.6779    0.3688 C   0  0  0  0  0  0  0  0  0  0  0  0
   -3.1603   -2.0109    0.9268 H   0  0  0  0  0  0  0  0  0  0  0  0
   -2.8193   -2.7229   -0.6722 H   0  0  0  0  0  0  0  0  0  0  0  0
   -1.0873   -2.1629    0.4418 C   0  0  0  0  0  0  0  0  0  0  0  0
   -0.2073   -2.8549    0.9368 O   0  0  0  0  0  0  0  0  0  0  0  0
   -0.8713   -0.9449   -0.0482 N   0  0  0  0  0  0  0  0  0  0  0  0
   -1.6543   -0.4189   -0.4062 H   0  0  0  0  0  0  0  0  0  0  0  0
    0.4237   -0.2649   -0.0462 C   0  0  1  0  0  0  0  0  0  0  0  0
    0.2764    0.7732    0.2559 H   0  0  0  0  0  0  0  0  0  0  0  0
    1.3429   -0.9460    0.9794 C   0  0  0  0  0  0  0  0  0  0  0  0
    1.5023   -1.9889    0.7005 H   0  0  0  0  0  0  0  0  0  0  0  0
    2.3041   -0.4344    1.0168 H   0  0  0  0  0  0  0  0  0  0  0  0
    0.8851   -0.9047    1.9691 H   0  0  0  0  0  0  0  0  0  0  0  0
    1.0501   -0.2644   -1.4544 C   0  0  0  0  0  0  0  0  0  0  0  0
    0.6110    0.4783   -2.3321 O   0  0  0  0  0  0  0  0  0  0  0  0
    2.0663   -1.1098   -1.6683 N   0  0  0  0  0  0  0  0  0  0  0  0
    2.3666   -1.6905   -0.9017 H   0  0  0  0  0  0  0  0  0  0  0  0
    2.7643   -1.2410   -2.9464 C   0  0  0  0  0  0  0  0  0  0  0  0
    3.1414   -0.2661   -3.2619 H   0  0  0  0  0  0  0  0  0  0  0  0
    3.6001   -1.9359   -2.8532 H   0  0  0  0  0  0  0  0  0  0  0  0
    2.0730   -1.6076   -3.7071 H   0  0  0  0  0  0  0  0  0  0  0  0
  5  6  2  0  0  0  0
  5  7  1  0  0  0  0
  2  3  1  0  0  0  0
  2  4  1  0  0  0  0
  2  5  1  0  0  0  0
  1  2  1  0  0  0  0
 15 16  2  0  0  0  0
 15 17  1  0  0  0  0
 11 12  1  0  0  0  0
 11 13  1  0  0  0  0
 11 14  1  0  0  0  0
  9 10  1  0  0  0  0
  9 11  1  0  0  0  0
  9 15  1  0  0  0  0
  7  8  1  0  0  0  0
  7  9  1  0  0  0  0
 19 20  1  0  0  0  0
 19 21  1  0  0  0  0
 19 22  1  0  0  0  0
 17 18  1  0  0  0  0
 17 19  1  0  0  0  0
M  END
$$$$
default_name
  -OEChem-01062215323D

 22 21  0     1  0  0  0  0  0999 V2000
   -2.5423   -3.6749    0.8058 H   0  0  0  0  0  0  0  0  0  0  0  0
   -2.5063   -2.6779    0.3688 C   0  0  0  0  0  0  0  0  0  0  0  0
   -3.1603   -2.0109    0.9268 H   0  0  0  0  0  0  0  0  0  0  0  0
   -2.8193   -2.7229   -0.6722 H   0  0  0  0  0  0  0  0  0  0  0  0
   -1.0873   -2.1629    0.4418 C   0  0  0  0  0  0  0  0  0  0  0  0
   -0.2073   -2.8549    0.9368 O   0  0  0  0  0  0  0  0  0  0  0  0
   -0.8713   -0.9449   -0.0482 N   0  0  0  0  0  0  0  0  0  0  0  0
   -1.6543   -0.4189   -0.4062 H   0  0  0  0  0  0  0  0  0  0  0  0
    0.4237   -0.2649   -0.0462 C   0  0  1  0  0  0  0  0  0  0  0  0
    0.2764    0.7732    0.2559 H   0  0  0  0  0  0  0  0  0  0  0  0
    1.3429   -0.9460    0.9794 C   0  0  0  0  0  0  0  0  0  0  0  0
    1.5023   -1.9889    0.7005 H   0  0  0  0  0  0  0  0  0  0  0  0
    2.3041   -0.4344    1.0168 H   0  0  0  0  0  0  0  0  0  0  0  0
    0.8851   -0.9047    1.9691 H   0  0  0  0  0  0  0  0  0  0  0  0
    1.0501   -0.2644   -1.4544 C   0  0  0  0  0  0  0  0  0  0  0  0
    0.8102    0.6492   -2.2435 O   0  0  0  0  0  0  0  0  0  0  0  0
    1.8402   -1.2988   -1.7690 N   0  0  0  0  0  0  0  0  0  0  0  0
    1.9849   -2.0114   -1.0716 H   0  0  0  0  0  0  0  0  0  0  0  0
    2.5034   -1.4561   -3.0625 C   0  0  0  0  0  0  0  0  0  0  0  0
    3.1042   -0.5704   -3.2785 H   0  0  0  0  0  0  0  0  0  0  0  0
    3.1499   -2.3348   -3.0536 H   0  0  0  0  0  0  0  0  0  0  0  0
    1.7546   -1.5668   -3.8487 H   0  0  0  0  0  0  0  0  0  0  0  0
  5  6  2  0  0  0  0
  5  7  1  0  0  0  0
  2  3  1  0  0  0  0
  2  4  1  0  0  0  0
  2  5  1  0  0  0  0
  1  2  1  0  0  0  0
 15 16  2  0  0  0  0
 15 17  1  0  0  0  0
 11 12  1  0  0  0  0
 11 13  1  0  0  0  0
 11 14  1  0  0  0  0
  9 10  1  0  0  0  0
  9 11  1  0  0  0  0
  9 15  1  0  0  0  0
  7  8  1  0  0  0  0
  7  9  1  0  0  0  0
 19 20  1  0  0  0  0
 19 21  1  0  0  0  0
 19 22  1  0  0  0  0
 17 18  1  0  0  0  0
 17 19  1  0  0  0  0
M  END
$$$$
default_name
  -OEChem-01062215323D

 22 21  0     1  0  0  0  0  0999 V2000
   -2.5423   -3.6749    0.8058 H   0  0  0  0  0  0  0  0  0  0  0  0
   -2.5063   -2.6779    0.3688 C   0  0  0  0  0  0  0  0  0  0  0  0
   -3.1603   -2.0109    0.9268 H   0  0  0  0  0  0  0  0  0  0  0  0
   -2.8193   -2.7229   -0.6722 H   0  0  0  0  0  0  0  0  0  0  0  0
   -1.0873   -2.1629    0.4418 C   0  0  0  0  0  0  0  0  0  0  0  0
   -0.2073   -2.8549    0.9368 O   0  0  0  0  0  0  0  0  0  0  0  0
   -0.8713   -0.9449   -0.0482 N   0  0  0  0  0  0  0  0  0  0  0  0
   -1.6543   -0.4189   -0.4062 H   0  0  0  0  0  0  0  0  0  0  0  0
    0.4237   -0.2649   -0.0462 C   0  0  1  0  0  0  0  0  0  0  0  0
    0.2764    0.7732    0.2559 H   0  0  0  0  0  0  0  0  0  0  0  0
    1.3429   -0.9460    0.9794 C   0  0  0  0  0  0  0  0  0  0  0  0
    1.5023   -1.9889    0.7005 H   0  0  0  0  0  0  0  0  0  0  0  0
    2.3041   -0.4344    1.0168 H   0  0  0  0  0  0  0  0  0  0  0  0
    0.8851   -0.9047    1.9691 H   0  0  0  0  0  0  0  0  0  0  0  0
    1.0501   -0.2644   -1.4544 C   0  0  0  0  0  0  0  0  0  0  0  0
    1.0430    0.7578   -2.1399 O   0  0  0  0  0  0  0  0  0  0  0  0
    1.5771   -1.4173   -1.8860 N   0  0  0  0  0  0  0  0  0  0  0  0
    1.5404   -2.2132   -1.2694 H   0  0  0  0  0  0  0  0  0  0  0  0
    2.2004   -1.5900   -3.1973 C   0  0  0  0  0  0  0  0  0  0  0  0
    2.9964   -0.8538   -3.3266 H   0  0  0  0  0  0  0  0  0  0  0  0
    2.6206   -2.5925   -3.2891 H   0  0  0  0  0  0  0  0  0  0  0  0
    1.4567   -1.4371   -3.9812 H   0  0  0  0  0  0  0  0  0  0  0  0
  5  6  2  0  0  0  0
  5  7  1  0  0  0  0
  2  3  1  0  0  0  0
  2  4  1  0  0  0  0
  2  5  1  0  0  0  0
  1  2  1  0  0  0  0
 15 16  2  0  0  0  0
 15 17  1  0  0  0  0
 11 12  1  0  0  0  0
 11 13  1  0  0  0  0
 11 14  1  0  0  0  0
  9 10  1  0  0  0  0
  9 11  1  0  0  0  0
  9 15  1  0  0  0  0
  7  8  1  0  0  0  0
  7  9  1  0  0  0  0
 19 20  1  0  0  0  0
 19 21  1  0  0  0  0
 19 22  1  0  0  0  0
 17 18  1  0  0  0  0
 17 19  1  0  0  0  0
M  END
$$$$
default_name
  -OEChem-01062215323D

 22 21  0     1  0  0  0  0  0999 V2000
   -2.5423   -3.6749    0.8058 H   0  0  0  0  0  0  0  0  0  0  0  0
   -2.5063   -2.6779    0.3688 C   0  0  0  0  0  0  0  0  0  0  0  0
   -3.1603   -2.0109    0.9268 H   0  0  0  0  0  0  0  0  0  0  0  0
   -2.8193   -2.7229   -0.6722 H   0  0  0  0  0  0  0  0  0  0  0  0
   -1.0873   -2.1629    0.4418 C   0  0  0  0  0  0  0  0  0  0  0  0
   -0.2073   -2.8549    0.9368 O   0  0  0  0  0  0  0  0  0  0  0  0
   -0.8713   -0.9449   -0.0482 N   0  0  0  0  0  0  0  0  0  0  0  0
   -1.6543   -0.4189   -0.4062 H   0  0  0  0  0  0  0  0  0  0  0  0
    0.4237   -0.2649   -0.0462 C   0  0  1  0  0  0  0  0  0  0  0  0
    0.2764    0.7732    0.2559 H   0  0  0  0  0  0  0  0  0  0  0  0
    1.3429   -0.9460    0.9794 C   0  0  0  0  0  0  0  0  0  0  0  0
    1.5023   -1.9889    0.7005 H   0  0  0  0  0  0  0  0  0  0  0  0
    2.3041   -0.4344    1.0168 H   0  0  0  0  0  0  0  0  0  0  0  0
    0.8851   -0.9047    1.9691 H   0  0  0  0  0  0  0  0  0  0  0  0
    1.0501   -0.2644   -1.4544 C   0  0  0  0  0  0  0  0  0  0  0  0
    1.2935    0.7968   -2.0284 O   0  0  0  0  0  0  0  0  0  0  0  0
    1.2949   -1.4572   -2.0116 N   0  0  0  0  0  0  0  0  0  0  0  0
    1.0633   -2.2822   -1.4817 H   0  0  0  0  0  0  0  0  0  0  0  0
    1.8762   -1.6335   -3.3416 C   0  0  0  0  0  0  0  0  0  0  0  0
    2.8252   -1.0970   -3.4028 H   0  0  0  0  0  0  0  0  0  0  0  0
    2.0485   -2.6916   -3.5436 H   0  0  0  0  0  0  0  0  0  0  0  0
    1.1996   -1.2274   -4.0955 H   0  0  0  0  0  0  0  0  0  0  0  0
  5  6  2  0  0  0  0
  5  7  1  0  0  0  0
  2  3  1  0  0  0  0
  2  4  1  0  0  0  0
  2  5  1  0  0  0  0
  1  2  1  0  0  0  0
 15 16  2  0  0  0  0
 15 17  1  0  0  0  0
 11 12  1  0  0  0  0
 11 13  1  0  0  0  0
 11 14  1  0  0  0  0
  9 10  1  0  0  0  0
  9 11  1  0  0  0  0
  9 15  1  0  0  0  0
  7  8  1  0  0  0  0
  7  9  1  0  0  0  0
 19 20  1  0  0  0  0
 19 21  1  0  0  0  0
 19 22  1  0  0  0  0
 17 18  1  0  0  0  0
 17 19  1  0  0  0  0
M  END
$$$$
default_name
  -OEChem-01062215323D

 22 21  0     1  0  0  0  0  0999 V2000
   -2.5423   -3.6749    0.8058 H   0  0  0  0  0  0  0  0  0  0  0  0
   -2.5063   -2.6779    0.3688 C   0  0  0  0  0  0  0  0  0  0  0  0
   -3.1603   -2.0109    0.9268 H   0  0  0  0  0  0  0  0  0  0  0  0
   -2.8193   -2.7229   -0.6722 H   0  0  0  0  0  0  0  0  0  0  0  0
   -1.0873   -2.1629    0.4418 C   0  0  0  0  0  0  0  0  0  0  0  0
   -0.2073   -2.8549    0.9368 O   0  0  0  0  0  0  0  0  0  0  0  0
   -0.8713   -0.9449   -0.0482 N   0  0  0  0  0  0  0  0  0  0  0  0
   -1.6543   -0.4189   -0.4062 H   0  0  0  0  0  0  0  0  0  0  0  0
    0.4237   -0.2649   -0.0462 C   0  0  1  0  0  0  0  0  0  0  0  0
    0.2764    0.7732    0.2559 H   0  0  0  0  0  0  0  0  0  0  0  0
    1.3429   -0.9460    0.9794 C   0  0  0  0  0  0  0  0  0  0  0  0
    1.5023   -1.9889    0.7005 H   0  0  0  0  0  0  0  0  0  0  0  0
    2.3041   -0.4344    1.0168 H   0  0  0  0  0  0  0  0  0  0  0  0
    0.8851   -0.9047    1.9691 H   0  0  0  0  0  0  0  0  0  0  0  0
    1.0501   -0.2644   -1.4544 C   0  0  0  0  0  0  0  0  0  0  0  0
    1.5448    0.7634   -1.9166 O   0  0  0  0  0  0  0  0  0  0  0  0
    1.0128   -1.4158   -2.1370 N   0  0  0  0  0  0  0  0  0  0  0  0
    0.5861   -2.2136   -1.6939 H   0  0  0  0  0  0  0  0  0  0  0  0
    1.5526   -1.5836   -3.4855 C   0  0  0  0  0  0  0  0  0  0  0  0
    2.6023   -1.2834   -3.5020 H   0  0  0  0  0  0  0  0  0  0  0  0
    1.4724   -2.6252   -3.7999 H   0  0  0  0  0  0  0  0  0  0  0  0
    1.0008   -0.9521   -4.1838 H   0  0  0  0  0  0  0  0  0  0  0  0
  5  6  2  0  0  0  0
  5  7  1  0  0  0  0
  2  3  1  0  0  0  0
  2  4  1  0  0  0  0
  2  5  1  0  0  0  0
  1  2  1  0  0  0  0
 15 16  2  0  0  0  0
 15 17  1  0  0  0  0
 11 12  1  0  0  0  0
 11 13  1  0  0  0  0
 11 14  1  0  0  0  0
  9 10  1  0  0  0  0
  9 11  1  0  0  0  0
  9 15  1  0  0  0  0
  7  8  1  0  0  0  0
  7  9  1  0  0  0  0
 19 20  1  0  0  0  0
 19 21  1  0  0  0  0
 19 22  1  0  0  0  0
 17 18  1  0  0  0  0
 17 19  1  0  0  0  0
M  END
$$$$
default_name
  -OEChem-01062215323D

 22 21  0     1  0  0  0  0  0999 V2000
   -2.5423   -3.6749    0.8058 H   0  0  0  0  0  0  0  0  0  0  0  0
   -2.5063   -2.6779    0.3688 C   0  0  0  0  0  0  0  0  0  0  0  0
   -3.1603   -2.0109    0.9268 H   0  0  0  0  0  0  0  0  0  0  0  0
   -2.8193   -2.7229   -0.6722 H   0  0  0  0  0  0  0  0  0  0  0  0
   -1.0873   -2.1629    0.4418 C   0  0  0  0  0  0  0  0  0  0  0  0
   -0.2073   -2.8549    0.9368 O   0  0  0  0  0  0  0  0  0  0  0  0
   -0.8713   -0.9449   -0.0482 N   0  0  0  0  0  0  0  0  0  0  0  0
   -1.6543   -0.4189   -0.4062 H   0  0  0  0  0  0  0  0  0  0  0  0
    0.4237   -0.2649   -0.0462 C   0  0  1  0  0  0  0  0  0  0  0  0
    0.2764    0.7732    0.2559 H   0  0  0  0  0  0  0  0  0  0  0  0
    1.3429   -0.9460    0.9794 C   0  0  0  0  0  0  0  0  0  0  0  0
    1.5023   -1.9889    0.7005 H   0  0  0  0  0  0  0  0  0  0  0  0
    2.3041   -0.4344    1.0168 H   0  0  0  0  0  0  0  0  0  0  0  0
    0.8851   -0.9047    1.9691 H   0  0  0  0  0  0  0  0  0  0  0  0
    1.0501   -0.2644   -1.4544 C   0  0  0  0  0  0  0  0  0  0  0  0
    1.7796    0.6601   -1.8122 O   0  0  0  0  0  0  0  0  0  0  0  0
    0.7502   -1.2959   -2.2538 N   0  0  0  0  0  0  0  0  0  0  0  0
    0.1414   -2.0123   -1.8917 H   0  0  0  0  0  0  0  0  0  0  0  0
    1.2519   -1.4438   -3.6192 C   0  0  0  0  0  0  0  0  0  0  0  0
    2.3429   -1.4003   -3.6175 H   0  0  0  0  0  0  0  0  0  0  0  0
    0.9316   -2.3978   -4.0404 H   0  0  0  0  0  0  0  0  0  0  0  0
    0.8739   -0.6299   -4.2402 H   0  0  0  0  0  0  0  0  0  0  0  0
  5  6  2  0  0  0  0
  5  7  1  0  0  0  0
  2  3  1  0  0  0  0
  2  4  1  0  0  0  0
  2  5  1  0  0  0  0
  1  2  1  0  0  0  0
 15 16  2  0  0  0  0
 15 17  1  0  0  0  0
 11 12  1  0  0  0  0
 11 13  1  0  0  0  0
 11 14  1  0  0  0  0
  9 10  1  0  0  0  0
  9 11  1  0  0  0  0
  9 15  1  0  0  0  0
  7  8  1  0  0  0  0
  7  9  1  0  0  0  0
 19 20  1  0  0  0  0
 19 21  1  0  0  0  0
 19 22  1  0  0  0  0
 17 18  1  0  0  0  0
 17 19  1  0  0  0  0
M  END
$$$$
default_name
  -OEChem-01062215323D

 22 21  0     1  0  0  0  0  0999 V2000
   -2.5423   -3.6749    0.8058 H   0  0  0  0  0  0  0  0  0  0  0  0
   -2.5063   -2.6779    0.3688 C   0  0  0  0  0  0  0  0  0  0  0  0
   -3.1603   -2.0109    0.9268 H   0  0  0  0  0  0  0  0  0  0  0  0
   -2.8193   -2.7229   -0.6722 H   0  0  0  0  0  0  0  0  0  0  0  0
   -1.0873   -2.1629    0.4418 C   0  0  0  0  0  0  0  0  0  0  0  0
   -0.2073   -2.8549    0.9368 O   0  0  0  0  0  0  0  0  0  0  0  0
   -0.8713   -0.9449   -0.0482 N   0  0  0  0  0  0  0  0  0  0  0  0
   -1.6543   -0.4189   -0.4062 H   0  0  0  0  0  0  0  0  0  0  0  0
    0.4237   -0.2649   -0.0462 C   0  0  1  0  0  0  0  0  0  0  0  0
    0.2764    0.7732    0.2559 H   0  0  0  0  0  0  0  0  0  0  0  0
    1.3429   -0.9460    0.9794 C   0  0  0  0  0  0  0  0  0  0  0  0
    1.5023   -1.9889    0.7005 H   0  0  0  0  0  0  0  0  0  0  0  0
    2.3041   -0.4344    1.0168 H   0  0  0  0  0  0  0  0  0  0  0  0
    0.8851   -0.9047    1.9691 H   0  0  0  0  0  0  0  0  0  0  0  0
    1.0501   -0.2644   -1.4544 C   0  0  0  0  0  0  0  0  0  0  0  0
    1.9820    0.4937   -1.7223 O   0  0  0  0  0  0  0  0  0  0  0  0
    0.5249   -1.1058   -2.3540 N   0  0  0  0  0  0  0  0  0  0  0  0
   -0.2406   -1.6918   -2.0615 H   0  0  0  0  0  0  0  0  0  0  0  0
    0.9945   -1.2236   -3.7336 C   0  0  0  0  0  0  0  0  0  0  0  0
    2.0647   -1.4398   -3.7412 H   0  0  0  0  0  0  0  0  0  0  0  0
    0.4629   -2.0250   -4.2487 H   0  0  0  0  0  0  0  0  0  0  0  0
    0.8275   -0.2827   -4.2607 H   0  0  0  0  0  0  0  0  0  0  0  0
  5  6  2  0  0  0  0
  5  7  1  0  0  0  0
  2  3  1  0  0  0  0
  2  4  1  0  0  0  0
  2  5  1  0  0  0  0
  1  2  1  0  0  0  0
 15 16  2  0  0  0  0
 15 17  1  0  0  0  0
 11 12  1  0  0  0  0
 11 13  1  0  0  0  0
 11 14  1  0  0  0  0
  9 10  1  0  0  0  0
  9 11  1  0  0  0  0
  9 15  1  0  0  0  0
  7  8  1  0  0  0  0
  7  9  1  0  0  0  0
 19 20  1  0  0  0  0
 19 21  1  0  0  0  0
 19 22  1  0  0  0  0
 17 18  1  0  0  0  0
 17 19  1  0  0  0  0
M  END
$$$$
default_name
  -OEChem-01062215323D

 22 21  0     1  0  0  0  0  0999 V2000
   -2.5423   -3.6749    0.8058 H   0  0  0  0  0  0  0  0  0  0  0  0
   -2.5063   -2.6779    0.3688 C   0  0  0  0  0  0  0  0  0  0  0  0
   -3.1603   -2.0109    0.9268 H   0  0  0  0  0  0  0  0  0  0  0  0
   -2.8193   -2.7229   -0.6722 H   0  0  0  0  0  0  0  0  0  0  0  0
   -1.0873   -2.1629    0.4418 C   0  0  0  0  0  0  0  0  0  0  0  0
   -0.2073   -2.8549    0.9368 O   0  0  0  0  0  0  0  0  0  0  0  0
   -0.8713   -0.9449   -0.0482 N   0  0  0  0  0  0  0  0  0  0  0  0
   -1.6543   -0.4189   -0.4062 H   0  0  0  0  0  0  0  0  0  0  0  0
    0.4237   -0.2649   -0.0462 C   0  0  1  0  0  0  0  0  0  0  0  0
    0.2764    0.7732    0.2559 H   0  0  0  0  0  0  0  0  0  0  0  0
    1.3429   -0.9460    0.9794 C   0  0  0  0  0  0  0  0  0  0  0  0
    1.5023   -1.9889    0.7005 H   0  0  0  0  0  0  0  0  0  0  0  0
    2.3041   -0.4344    1.0168 H   0  0  0  0  0  0  0  0  0  0  0  0
    0.8851   -0.9047    1.9691 H   0  0  0  0  0  0  0  0  0  0  0  0
    1.0501   -0.2644   -1.4544 C   0  0  0  0  0  0  0  0  0  0  0  0
    2.1381    0.2757   -1.6529 O   0  0  0  0  0  0  0  0  0  0  0  0
    0.3521   -0.8582   -2.4307 N   0  0  0  0  0  0  0  0  0  0  0  0
   -0.5338   -1.2741   -2.1918 H   0  0  0  0  0  0  0  0  0  0  0  0
    0.7979   -0.9380   -3.8210 C   0  0  0  0  0  0  0  0  0  0  0  0
    1.7866   -1.3990   -3.8649 H   0  0  0  0  0  0  0  0  0  0  0  0
    0.0984   -1.5322   -4.4107 H   0  0  0  0  0  0  0  0  0  0  0  0
    0.8648    0.0658   -4.2440 H   0  0  0  0  0  0  0  0  0  0  0  0
  5  6  2  0  0  0  0
  5  7  1  0  0  0  0
  2  3  1  0  0  0  0
  2  4  1  0  0  0  0
  2  5  1  0  0  0  0
  1  2  1  0  0  0  0
 15 16  2  0  0  0  0
 15 17  1  0  0  0  0
 11 12  1  0  0  0  0
 11 13  1  0  0  0  0
 11 14  1  0  0  0  0
  9 10  1  0  0  0  0
  9 11  1  0  0  0  0
  9 15  1  0  0  0  0
  7  8  1  0  0  0  0
  7  9  1  0  0  0  0
 19 20  1  0  0  0  0
 19 21  1  0  0  0  0
 19 22  1  0  0  0  0
 17 18  1  0  0  0  0
 17 19  1  0  0  0  0
M  END
$$$$
default_name
  -OEChem-01062215323D

 22 21  0     1  0  0  0  0  0999 V2000
   -2.5423   -3.6749    0.8058 H   0  0  0  0  0  0  0  0  0  0  0  0
   -2.5063   -2.6779    0.3688 C   0  0  0  0  0  0  0  0  0  0  0  0
   -3.1603   -2.0109    0.9268 H   0  0  0  0  0  0  0  0  0  0  0  0
   -2.8193   -2.7229   -0.6722 H   0  0  0  0  0  0  0  0  0  0  0  0
   -1.0873   -2.1629    0.4418 C   0  0  0  0  0  0  0  0  0  0  0  0
   -0.2073   -2.8549    0.9368 O   0  0  0  0  0  0  0  0  0  0  0  0
   -0.8713   -0.9449   -0.0482 N   0  0  0  0  0  0  0  0  0  0  0  0
   -1.6543   -0.4189   -0.4062 H   0  0  0  0  0  0  0  0  0  0  0  0
    0.4237   -0.2649   -0.0462 C   0  0  1  0  0  0  0  0  0  0  0  0
    0.2764    0.7732    0.2559 H   0  0  0  0  0  0  0  0  0  0  0  0
    1.3429   -0.9460    0.9794 C   0  0  0  0  0  0  0  0  0  0  0  0
    1.5023   -1.9889    0.7005 H   0  0  0  0  0  0  0  0  0  0  0  0
    2.3041   -0.4344    1.0168 H   0  0  0  0  0  0  0  0  0  0  0  0
    0.8851   -0.9047    1.9691 H   0  0  0  0  0  0  0  0  0  0  0  0
    1.0501   -0.2644   -1.4544 C   0  0  0  0  0  0  0  0  0  0  0  0
    2.2374    0.0209   -1.6088 O   0  0  0  0  0  0  0  0  0  0  0  0
    0.2438   -0.5702   -2.4788 N   0  0  0  0  0  0  0  0  0  0  0  0
   -0.7183   -0.7876   -2.2737 H   0  0  0  0  0  0  0  0  0  0  0  0
    0.6755   -0.6064   -3.8753 C   0  0  0  0  0  0  0  0  0  0  0  0
    1.5277   -1.2810   -3.9801 H   0  0  0  0  0  0  0  0  0  0  0  0
   -0.1371   -0.9530   -4.5153 H   0  0  0  0  0  0  0  0  0  0  0  0
    0.9832    0.3919   -4.1912 H   0  0  0  0  0  0  0  0  0  0  0  0
  5  6  2  0  0  0  0
  5  7  1  0  0  0  0
  2  3  1  0  0  0  0
  2  4  1  0  0  0  0
  2  5  1  0  0  0  0
  1  2  1  0  0  0  0
 15 16  2  0  0  0  0
 15 17  1  0  0  0  0
 11 12  1  0  0  0  0
 11 13  1  0  0  0  0
 11 14  1  0  0  0  0
  9 10  1  0  0  0  0
  9 11  1  0  0  0  0
  9 15  1  0  0  0  0
  7  8  1  0  0  0  0
  7  9  1  0  0  0  0
 19 20  1  0  0  0  0
 19 21  1  0  0  0  0
 19 22  1  0  0  0  0
 17 18  1  0  0  0  0
 17 19  1  0  0  0  0
M  END
$$$$
default_name
  -OEChem-01062215323D

 22 21  0     1  0  0  0  0  0999 V2000
   -2.5423   -3.6749    0.8058 H   0  0  0  0  0  0  0  0  0  0  0  0
   -2.5063   -2.6779    0.3688 C   0  0  0  0  0  0  0  0  0  0  0  0
   -3.1603   -2.0109    0.9268 H   0  0  0  0  0  0  0  0  0  0  0  0
   -2.8193   -2.7229   -0.6722 H   0  0  0  0  0  0  0  0  0  0  0  0
   -1.0873   -2.1629    0.4418 C   0  0  0  0  0  0  0  0  0  0  0  0
   -0.2073   -2.8549    0.9368 O   0  0  0  0  0  0  0  0  0  0  0  0
   -0.8713   -0.9449   -0.0482 N   0  0  0  0  0  0  0  0  0  0  0  0
   -1.6543   -0.4189   -0.4062 H   0  0  0  0  0  0  0  0  0  0  0  0
    0.4237   -0.2649   -0.0462 C   0  0  1  0  0  0  0  0  0  0  0  0
    0.2764    0.7732    0.2559 H   0  0  0  0  0  0  0  0  0  0  0  0
    1.3429   -0.9460    0.9794 C   0  0  0  0  0  0  0  0  0  0  0  0
    1.5023   -1.9889    0.7005 H   0  0  0  0  0  0  0  0  0  0  0  0
    2.3041   -0.4344    1.0168 H   0  0  0  0  0  0  0  0  0  0  0  0
    0.8851   -0.9047    1.9691 H   0  0  0  0  0  0  0  0  0  0  0  0
    1.0501   -0.2644   -1.4544 C   0  0  0  0  0  0  0  0  0  0  0  0
    2.2730   -0.2533   -1.5930 O   0  0  0  0  0  0  0  0  0  0  0  0
    0.2073   -0.2614   -2.4949 N   0  0  0  0  0  0  0  0  0  0  0  0
   -0.7814   -0.2654   -2.3016 H   0  0  0  0  0  0  0  0  0  0  0  0
    0.6358   -0.2515   -3.8929 C   0  0  0  0  0  0  0  0  0  0  0  0
    1.3055   -1.0935   -4.0788 H   0  0  0  0  0  0  0  0  0  0  0  0
   -0.2277   -0.3267   -4.5553 H   0  0  0  0  0  0  0  0  0  0  0  0
    1.1747    0.6733   -4.1059 H   0  0  0  0  0  0  0  0  0  0  0  0
  5  6  2  0  0  0  0
  5  7  1  0  0  0  0
  2  3  1  0  0  0  0
  2  4  1  0  0  0  0
  2  5  1  0  0  0  0
  1  2  1  0  0  0  0
 15 16  2  0  0  0  0
 15 17  1  0  0  0  0
 11 12  1  0  0  0  0
 11 13  1  0  0  0  0
 11 14  1  0  0  0  0
  9 10  1  0  0  0  0
  9 11  1  0  0  0  0
  9 15  1  0  0  0  0
  7  8  1  0  0  0  0
  7  9  1  0  0  0  0
 19 20  1  0  0  0  0
 19 21  1  0  0  0  0
 19 22  1  0  0  0  0
 17 18  1  0  0  0  0
 17 19  1  0  0  0  0
M  END
$$$$
default_name
  -OEChem-01062215323D

 22 21  0     1  0  0  0  0  0999 V2000
   -2.5423   -3.6749    0.8058 H   0  0  0  0  0  0  0  0  0  0  0  0
   -2.5063   -2.6779    0.3688 C   0  0  0  0  0  0  0  0  0  0  0  0
   -3.1603   -2.0109    0.9268 H   0  0  0  0  0  0  0  0  0  0  0  0
   -2.8193   -2.7229   -0.6722 H   0  0  0  0  0  0  0  0  0  0  0  0
   -1.0873   -2.1629    0.4418 C   0  0  0  0  0  0  0  0  0  0  0  0
   -0.2073   -2.8549    0.9368 O   0  0  0  0  0  0  0  0  0  0  0  0
   -0.8713   -0.9449   -0.0482 N   0  0  0  0  0  0  0  0  0  0  0  0
   -1.6543   -0.4189   -0.4062 H   0  0  0  0  0  0  0  0  0  0  0  0
    0.4237   -0.2649   -0.0462 C   0  0  1  0  0  0  0  0  0  0  0  0
    0.2764    0.7732    0.2559 H   0  0  0  0  0  0  0  0  0  0  0  0
    1.3429   -0.9460    0.9794 C   0  0  0  0  0  0  0  0  0  0  0  0
    1.5023   -1.9889    0.7005 H   0  0  0  0  0  0  0  0  0  0  0  0
    2.3041   -0.4344    1.0168 H   0  0  0  0  0  0  0  0  0  0  0  0
    0.8851   -0.9047    1.9691 H   0  0  0  0  0  0  0  0  0  0  0  0
    1.0501   -0.2644   -1.4544 C   0  0  0  0  0  0  0  0  0  0  0  0
    2.2426   -0.5283   -1.6067 O   0  0  0  0  0  0  0  0  0  0  0  0
    0.2451    0.0473   -2.4780 N   0  0  0  0  0  0  0  0  0  0  0  0
   -0.7189    0.2569   -2.2736 H   0  0  0  0  0  0  0  0  0  0  0  0
    0.6813    0.1026   -3.8725 C   0  0  0  0  0  0  0  0  0  0  0  0
    1.1351   -0.8496   -4.1545 H   0  0  0  0  0  0  0  0  0  0  0  0
   -0.1671    0.3038   -4.5282 H   0  0  0  0  0  0  0  0  0  0  0  0
    1.4263    0.8908   -3.9939 H   0  0  0  0  0  0  0  0  0  0  0  0
  5  6  2  0  0  0  0
  5  7  1  0  0  0  0
  2  3  1  0  0  0  0
  2  4  1  0  0  0  0
  2  5  1  0  0  0  0
  1  2  1  0  0  0  0
 15 16  2  0  0  0  0
 15 17  1  0  0  0  0
 11 12  1  0  0  0  0
 11 13  1  0  0  0  0
 11 14  1  0  0  0  0
  9 10  1  0  0  0  0
  9 11  1  0  0  0  0
  9 15  1  0  0  0  0
  7  8  1  0  0  0  0
  7  9  1  0  0  0  0
 19 20  1  0  0  0  0
 19 21  1  0  0  0  0
 19 22  1  0  0  0  0
 17 18  1  0  0  0  0
 17 19  1  0  0  0  0
M  END
$$$$
default_name
  -OEChem-01062215323D

 22 21  0     1  0  0  0  0  0999 V2000
   -2.5423   -3.6749    0.8058 H   0  0  0  0  0  0  0  0  0  0  0  0
   -2.5063   -2.6779    0.3688 C   0  0  0  0  0  0  0  0  0  0  0  0
   -3.1603   -2.0109    0.9268 H   0  0  0  0  0  0  0  0  0  0  0  0
   -2.8193   -2.7229   -0.6722 H   0  0  0  0  0  0  0  0  0  0  0  0
   -1.0873   -2.1629    0.4418 C   0  0  0  0  0  0  0  0  0  0  0  0
   -0.2073   -2.8549    0.9368 O   0  0  0  0  0  0  0  0  0  0  0  0
   -0.8713   -0.9449   -0.0482 N   0  0  0  0  0  0  0  0  0  0  0  0
   -1.6543   -0.4189   -0.4062 H   0  0  0  0  0  0  0  0  0  0  0  0
    0.4237   -0.2649   -0.0462 C   0  0  1  0  0  0  0  0  0  0  0  0
    0.2764    0.7732    0.2559 H   0  0  0  0  0  0  0  0  0  0  0  0
    1.3429   -0.9460    0.9794 C   0  0  0  0  0  0  0  0  0  0  0  0
    1.5023   -1.9889    0.7005 H   0  0  0  0  0  0  0  0  0  0  0  0
    2.3041   -0.4344    1.0168 H   0  0  0  0  0  0  0  0  0  0  0  0
    0.8851   -0.9047    1.9691 H   0  0  0  0  0  0  0  0  0  0  0  0
    1.0501   -0.2644   -1.4544 C   0  0  0  0  0  0  0  0  0  0  0  0
    2.1482   -0.7853   -1.6488 O   0  0  0  0  0  0  0  0  0  0  0  0
    0.3546    0.3347   -2.4292 N   0  0  0  0  0  0  0  0  0  0  0  0
   -0.5350    0.7436   -2.1916 H   0  0  0  0  0  0  0  0  0  0  0  0
    0.8089    0.4317   -3.8156 C   0  0  0  0  0  0  0  0  0  0  0  0
    1.0283   -0.5657   -4.2020 H   0  0  0  0  0  0  0  0  0  0  0  0
    0.0405    0.8957   -4.4356 H   0  0  0  0  0  0  0  0  0  0  0  0
    1.7207    1.0296   -3.8629 H   0  0  0  0  0  0  0  0  0  0  0  0
  5  6  2  0  0  0  0
  5  7  1  0  0  0  0
  2  3  1  0  0  0  0
  2  4  1  0  0  0  0
  2  5  1  0  0  0  0
  1  2  1  0  0  0  0
 15 16  2  0  0  0  0
 15 17  1  0  0  0  0
 11 12  1  0  0  0  0
 11 13  1  0  0  0  0
 11 14  1  0  0  0  0
  9 10  1  0  0  0  0
  9 11  1  0  0  0  0
  9 15  1  0  0  0  0
  7  8  1  0  0  0  0
  7  9  1  0  0  0  0
 19 20  1  0  0  0  0
 19 21  1  0  0  0  0
 19 22  1  0  0  0  0
 17 18  1  0  0  0  0
 17 19  1  0  0  0  0
M  END
$$$$
default_name
  -OEChem-01062215323D

 22 21  0     1  0  0  0  0  0999 V2000
   -2.5423   -3.6749    0.8058 H   0  0  0  0  0  0  0  0  0  0  0  0
   -2.5063   -2.6779    0.3688 C   0  0  0  0  0  0  0  0  0  0  0  0
   -3.1603   -2.0109    0.9268 H   0  0  0  0  0  0  0  0  0  0  0  0
   -2.8193   -2.7229   -0.6722 H   0  0  0  0  0  0  0  0  0  0  0  0
   -1.0873   -2.1629    0.4418 C   0  0  0  0  0  0  0  0  0  0  0  0
   -0.2073   -2.8549    0.9368 O   0  0  0  0  0  0  0  0  0  0  0  0
   -0.8713   -0.9449   -0.0482 N   0  0  0  0  0  0  0  0  0  0  0  0
   -1.6543   -0.4189   -0.4062 H   0  0  0  0  0  0  0  0  0  0  0  0
    0.4237   -0.2649   -0.0462 C   0  0  1  0  0  0  0  0  0  0  0  0
    0.2764    0.7732    0.2559 H   0  0  0  0  0  0  0  0  0  0  0  0
    1.3429   -0.9460    0.9794 C   0  0  0  0  0  0  0  0  0  0  0  0
    1.5023   -1.9889    0.7005 H   0  0  0  0  0  0  0  0  0  0  0  0
    2.3041   -0.4344    1.0168 H   0  0  0  0  0  0  0  0  0  0  0  0
    0.8851   -0.9047    1.9691 H   0  0  0  0  0  0  0  0  0  0  0  0
    1.0501   -0.2644   -1.4544 C   0  0  0  0  0  0  0  0  0  0  0  0
    1.9962   -1.0068   -1.7164 O   0  0  0  0  0  0  0  0  0  0  0  0
    0.5283    0.5813   -2.3519 N   0  0  0  0  0  0  0  0  0  0  0  0
   -0.2422    1.1617   -2.0612 H   0  0  0  0  0  0  0  0  0  0  0  0
    1.0101    0.7134   -3.7260 C   0  0  0  0  0  0  0  0  0  0  0  0
    0.9922   -0.2612   -4.2179 H   0  0  0  0  0  0  0  0  0  0  0  0
    0.3811    1.4085   -4.2839 H   0  0  0  0  0  0  0  0  0  0  0  0
    2.0379    1.0803   -3.7218 H   0  0  0  0  0  0  0  0  0  0  0  0
  5  6  2  0  0  0  0
  5  7  1  0  0  0  0
  2  3  1  0  0  0  0
  2  4  1  0  0  0  0
  2  5  1  0  0  0  0
  1  2  1  0  0  0  0
 15 16  2  0  0  0  0
 15 17  1  0  0  0  0
 11 12  1  0  0  0  0
 11 13  1  0  0  0  0
 11 14  1  0  0  0  0
  9 10  1  0  0  0  0
  9 11  1  0  0  0  0
  9 15  1  0  0  0  0
  7  8  1  0  0  0  0
  7  9  1  0  0  0  0
 19 20  1  0  0  0  0
 19 21  1  0  0  0  0
 19 22  1  0  0  0  0
 17 18  1  0  0  0  0
 17 19  1  0  0  0  0
M  END
$$$$
default_name
  -OEChem-01062215323D

 22 21  0     1  0  0  0  0  0999 V2000
   -2.5423   -3.6749    0.8058 H   0  0  0  0  0  0  0  0  0  0  0  0
   -2.5063   -2.6779    0.3688 C   0  0  0  0  0  0  0  0  0  0  0  0
   -3.1603   -2.0109    0.9268 H   0  0  0  0  0  0  0  0  0  0  0  0
   -2.8193   -2.7229   -0.6722 H   0  0  0  0  0  0  0  0  0  0  0  0
   -1.0873   -2.1629    0.4418 C   0  0  0  0  0  0  0  0  0  0  0  0
   -0.2073   -2.8549    0.9368 O   0  0  0  0  0  0  0  0  0  0  0  0
   -0.8713   -0.9449   -0.0482 N   0  0  0  0  0  0  0  0  0  0  0  0
   -1.6543   -0.4189   -0.4062 H   0  0  0  0  0  0  0  0  0  0  0  0
    0.4237   -0.2649   -0.0462 C   0  0  1  0  0  0  0  0  0  0  0  0
    0.2764    0.7732    0.2559 H   0  0  0  0  0  0  0  0  0  0  0  0
    1.3429   -0.9460    0.9794 C   0  0  0  0  0  0  0  0  0  0  0  0
    1.5023   -1.9889    0.7005 H   0  0  0  0  0  0  0  0  0  0  0  0
    2.3041   -0.4344    1.0168 H   0  0  0  0  0  0  0  0  0  0  0  0
    0.8851   -0.9047    1.9691 H   0  0  0  0  0  0  0  0  0  0  0  0
    1.0501   -0.2644   -1.4544 C   0  0  0  0  0  0  0  0  0  0  0  0
    1.7971   -1.1776   -1.8051 O   0  0  0  0  0  0  0  0  0  0  0  0
    0.7544    0.7703   -2.2512 N   0  0  0  0  0  0  0  0  0  0  0  0
    0.1394    1.4825   -1.8914 H   0  0  0  0  0  0  0  0  0  0  0  0
    1.2710    0.9285   -3.6099 C   0  0  0  0  0  0  0  0  0  0  0  0
    1.0294    0.0431   -4.2013 H   0  0  0  0  0  0  0  0  0  0  0  0
    0.8313    1.8074   -4.0835 H   0  0  0  0  0  0  0  0  0  0  0  0
    2.3563    1.0395   -3.5801 H   0  0  0  0  0  0  0  0  0  0  0  0
  5  6  2  0  0  0  0
  5  7  1  0  0  0  0
  2  3  1  0  0  0  0
  2  4  1  0  0  0  0
  2  5  1  0  0  0  0
  1  2  1  0  0  0  0
 15 16  2  0  0  0  0
 15 17  1  0  0  0  0
 11 12  1  0  0  0  0
 11 13  1  0  0  0  0
 11 14  1  0  0  0  0
  9 10  1  0  0  0  0
  9 11  1  0  0  0  0
  9 15  1  0  0  0  0
  7  8  1  0  0  0  0
  7  9  1  0  0  0  0
 19 20  1  0  0  0  0
 19 21  1  0  0  0  0
 19 22  1  0  0  0  0
 17 18  1  0  0  0  0
 17 19  1  0  0  0  0
M  END
$$$$
default_name
  -OEChem-01062215323D

 22 21  0     1  0  0  0  0  0999 V2000
   -2.5423   -3.6749    0.8058 H   0  0  0  0  0  0  0  0  0  0  0  0
   -2.5063   -2.6779    0.3688 C   0  0  0  0  0  0  0  0  0  0  0  0
   -3.1603   -2.0109    0.9268 H   0  0  0  0  0  0  0  0  0  0  0  0
   -2.8193   -2.7229   -0.6722 H   0  0  0  0  0  0  0  0  0  0  0  0
   -1.0873   -2.1629    0.4418 C   0  0  0  0  0  0  0  0  0  0  0  0
   -0.2073   -2.8549    0.9368 O   0  0  0  0  0  0  0  0  0  0  0  0
   -0.8713   -0.9449   -0.0482 N   0  0  0  0  0  0  0  0  0  0  0  0
   -1.6543   -0.4189   -0.4062 H   0  0  0  0  0  0  0  0  0  0  0  0
    0.4237   -0.2649   -0.0462 C   0  0  1  0  0  0  0  0  0  0  0  0
    0.2764    0.7732    0.2559 H   0  0  0  0  0  0  0  0  0  0  0  0
    1.3429   -0.9460    0.9794 C   0  0  0  0  0  0  0  0  0  0  0  0
    1.5023   -1.9889    0.7005 H   0  0  0  0  0  0  0  0  0  0  0  0
    2.3041   -0.4344    1.0168 H   0  0  0  0  0  0  0  0  0  0  0  0
    0.8851   -0.9047    1.9691 H   0  0  0  0  0  0  0  0  0  0  0  0
    1.0501   -0.2644   -1.4544 C   0  0  0  0  0  0  0  0  0  0  0  0
    1.5643   -1.2862   -1.9087 O   0  0  0  0  0  0  0  0  0  0  0  0
    1.0176    0.8888   -2.1341 N   0  0  0  0  0  0  0  0  0  0  0  0
    0.5839    1.6843   -1.6936 H   0  0  0  0  0  0  0  0  0  0  0  0
    1.5740    1.0624   -3.4751 C   0  0  0  0  0  0  0  0  0  0  0  0
    1.1372    0.3266   -4.1532 H   0  0  0  0  0  0  0  0  0  0  0  0
    1.3605    2.0651   -3.8480 H   0  0  0  0  0  0  0  0  0  0  0  0
    2.6543    0.9098   -3.4477 H   0  0  0  0  0  0  0  0  0  0  0  0
  5  6  2  0  0  0  0
  5  7  1  0  0  0  0
  2  3  1  0  0  0  0
  2  4  1  0  0  0  0
  2  5  1  0  0  0  0
  1  2  1  0  0  0  0
 15 16  2  0  0  0  0
 15 17  1  0  0  0  0
 11 12  1  0  0  0  0
 11 13  1  0  0  0  0
 11 14  1  0  0  0  0
  9 10  1  0  0  0  0
  9 11  1  0  0  0  0
  9 15  1  0  0  0  0
  7  8  1  0  0  0  0
  7  9  1  0  0  0  0
 19 20  1  0  0  0  0
 19 21  1  0  0  0  0
 19 22  1  0  0  0  0
 17 18  1  0  0  0  0
 17 19  1  0  0  0  0
M  END
$$$$
default_name
  -OEChem-01062215323D

 22 21  0     1  0  0  0  0  0999 V2000
   -2.5423   -3.6749    0.8058 H   0  0  0  0  0  0  0  0  0  0  0  0
   -2.5063   -2.6779    0.3688 C   0  0  0  0  0  0  0  0  0  0  0  0
   -3.1603   -2.0109    0.9268 H   0  0  0  0  0  0  0  0  0  0  0  0
   -2.8193   -2.7229   -0.6722 H   0  0  0  0  0  0  0  0  0  0  0  0
   -1.0873   -2.1629    0.4418 C   0  0  0  0  0  0  0  0  0  0  0  0
   -0.2073   -2.8549    0.9368 O   0  0  0  0  0  0  0  0  0  0  0  0
   -0.8713   -0.9449   -0.0482 N   0  0  0  0  0  0  0  0  0  0  0  0
   -1.6543   -0.4189   -0.4062 H   0  0  0  0  0  0  0  0  0  0  0  0
    0.4237   -0.2649   -0.0462 C   0  0  1  0  0  0  0  0  0  0  0  0
    0.2764    0.7732    0.2559 H   0  0  0  0  0  0  0  0  0  0  0  0
    1.3429   -0.9460    0.9794 C   0  0  0  0  0  0  0  0  0  0  0  0
    1.5023   -1.9889    0.7005 H   0  0  0  0  0  0  0  0  0  0  0  0
    2.3041   -0.4344    1.0168 H   0  0  0  0  0  0  0  0  0  0  0  0
    0.8851   -0.9047    1.9691 H   0  0  0  0  0  0  0  0  0  0  0  0
    1.0501   -0.2644   -1.4544 C   0  0  0  0  0  0  0  0  0  0  0  0
    1.3137   -1.3252   -2.0202 O   0  0  0  0  0  0  0  0  0  0  0  0
    1.2998    0.9287   -2.0086 N   0  0  0  0  0  0  0  0  0  0  0  0
    1.0611    1.7533   -1.4813 H   0  0  0  0  0  0  0  0  0  0  0  0
    1.8983    1.1059   -3.3308 C   0  0  0  0  0  0  0  0  0  0  0  0
    1.3084    0.5697   -4.0770 H   0  0  0  0  0  0  0  0  0  0  0  0
    1.9327    2.1642   -3.5935 H   0  0  0  0  0  0  0  0  0  0  0  0
    2.9114    0.7001   -3.3334 H   0  0  0  0  0  0  0  0  0  0  0  0
  5  6  2  0  0  0  0
  5  7  1  0  0  0  0
  2  3  1  0  0  0  0
  2  4  1  0  0  0  0
  2  5  1  0  0  0  0
  1  2  1  0  0  0  0
 15 16  2  0  0  0  0
 15 17  1  0  0  0  0
 11 12  1  0  0  0  0
 11 13  1  0  0  0  0
 11 14  1  0  0  0  0
  9 10  1  0  0  0  0
  9 11  1  0  0  0  0
  9 15  1  0  0  0  0
  7  8  1  0  0  0  0
  7  9  1  0  0  0  0
 19 20  1  0  0  0  0
 19 21  1  0  0  0  0
 19 22  1  0  0  0  0
 17 18  1  0  0  0  0
 17 19  1  0  0  0  0
M  END
$$$$
default_name
  -OEChem-01062215323D

 22 21  0     1  0  0  0  0  0999 V2000
   -2.5423   -3.6749    0.8058 H   0  0  0  0  0  0  0  0  0  0  0  0
   -2.5063   -2.6779    0.3688 C   0  0  0  0  0  0  0  0  0  0  0  0
   -3.1603   -2.0109    0.9268 H   0  0  0  0  0  0  0  0  0  0  0  0
   -2.8193   -2.7229   -0.6722 H   0  0  0  0  0  0  0  0  0  0  0  0
   -1.0873   -2.1629    0.4418 C   0  0  0  0  0  0  0  0  0  0  0  0
   -0.2073   -2.8549    0.9368 O   0  0  0  0  0  0  0  0  0  0  0  0
   -0.8713   -0.9449   -0.0482 N   0  0  0  0  0  0  0  0  0  0  0  0
   -1.6543   -0.4189   -0.4062 H   0  0  0  0  0  0  0  0  0  0  0  0
    0.4237   -0.2649   -0.0462 C   0  0  1  0  0  0  0  0  0  0  0  0
    0.2764    0.7732    0.2559 H   0  0  0  0  0  0  0  0  0  0  0  0
    1.3429   -0.9460    0.9794 C   0  0  0  0  0  0  0  0  0  0  0  0
    1.5023   -1.9889    0.7005 H   0  0  0  0  0  0  0  0  0  0  0  0
    2.3041   -0.4344    1.0168 H   0  0  0  0  0  0  0  0  0  0  0  0
    0.8851   -0.9047    1.9691 H   0  0  0  0  0  0  0  0  0  0  0  0
    1.0501   -0.2644   -1.4544 C   0  0  0  0  0  0  0  0  0  0  0  0
    1.0625   -1.2919   -2.1319 O   0  0  0  0  0  0  0  0  0  0  0  0
    1.5818    0.8873   -1.8831 N   0  0  0  0  0  0  0  0  0  0  0  0
    1.5382    1.6848   -1.2691 H   0  0  0  0  0  0  0  0  0  0  0  0
    2.2218    1.0561   -3.1869 C   0  0  0  0  0  0  0  0  0  0  0  0
    1.5313    0.7561   -3.9777 H   0  0  0  0  0  0  0  0  0  0  0  0
    2.5088    2.0978   -3.3372 H   0  0  0  0  0  0  0  0  0  0  0  0
    3.1101    0.4248   -3.2450 H   0  0  0  0  0  0  0  0  0  0  0  0
  5  6  2  0  0  0  0
  5  7  1  0  0  0  0
  2  3  1  0  0  0  0
  2  4  1  0  0  0  0
  2  5  1  0  0  0  0
  1  2  1  0  0  0  0
 15 16  2  0  0  0  0
 15 17  1  0  0  0  0
 11 12  1  0  0  0  0
 11 13  1  0  0  0  0
 11 14  1  0  0  0  0
  9 10  1  0  0  0  0
  9 11  1  0  0  0  0
  9 15  1  0  0  0  0
  7  8  1  0  0  0  0
  7  9  1  0  0  0  0
 19 20  1  0  0  0  0
 19 21  1  0  0  0  0
 19 22  1  0  0  0  0
 17 18  1  0  0  0  0
 17 19  1  0  0  0  0
M  END
$$$$
default_name
  -OEChem-01062215323D

 22 21  0     1  0  0  0  0  0999 V2000
   -2.5423   -3.6749    0.8058 H   0  0  0  0  0  0  0  0  0  0  0  0
   -2.5063   -2.6779    0.3688 C   0  0  0  0  0  0  0  0  0  0  0  0
   -3.1603   -2.0109    0.9268 H   0  0  0  0  0  0  0  0  0  0  0  0
   -2.8193   -2.7229   -0.6722 H   0  0  0  0  0  0  0  0  0  0  0  0
   -1.0873   -2.1629    0.4418 C   0  0  0  0  0  0  0  0  0  0  0  0
   -0.2073   -2.8549    0.9368 O   0  0  0  0  0  0  0  0  0  0  0  0
   -0.8713   -0.9449   -0.0482 N   0  0  0  0  0  0  0  0  0  0  0  0
   -1.6543   -0.4189   -0.4062 H   0  0  0  0  0  0  0  0  0  0  0  0
    0.4237   -0.2649   -0.0462 C   0  0  1  0  0  0  0  0  0  0  0  0
    0.2764    0.7732    0.2559 H   0  0  0  0  0  0  0  0  0  0  0  0
    1.3429   -0.9460    0.9794 C   0  0  0  0  0  0  0  0  0  0  0  0
    1.5023   -1.9889    0.7005 H   0  0  0  0  0  0  0  0  0  0  0  0
    2.3041   -0.4344    1.0168 H   0  0  0  0  0  0  0  0  0  0  0  0
    0.8851   -0.9047    1.9691 H   0  0  0  0  0  0  0  0  0  0  0  0
    1.0501   -0.2644   -1.4544 C   0  0  0  0  0  0  0  0  0  0  0  0
    0.8277   -1.1885   -2.2363 O   0  0  0  0  0  0  0  0  0  0  0  0
    1.8444    0.7675   -1.7664 N   0  0  0  0  0  0  0  0  0  0  0  0
    1.9830    1.4835   -1.0713 H   0  0  0  0  0  0  0  0  0  0  0  0
    2.5225    0.9163   -3.0532 C   0  0  0  0  0  0  0  0  0  0  0  0
    1.7907    0.8730   -3.8623 H   0  0  0  0  0  0  0  0  0  0  0  0
    3.0496    1.8704   -3.0967 H   0  0  0  0  0  0  0  0  0  0  0  0
    3.2370    0.1026   -3.1887 H   0  0  0  0  0  0  0  0  0  0  0  0
  5  6  2  0  0  0  0
  5  7  1  0  0  0  0
  2  3  1  0  0  0  0
  2  4  1  0  0  0  0
  2  5  1  0  0  0  0
  1  2  1  0  0  0  0
 15 16  2  0  0  0  0
 15 17  1  0  0  0  0
 11 12  1  0  0  0  0
 11 13  1  0  0  0  0
 11 14  1  0  0  0  0
  9 10  1  0  0  0  0
  9 11  1  0  0  0  0
  9 15  1  0  0  0  0
  7  8  1  0  0  0  0
  7  9  1  0  0  0  0
 19 20  1  0  0  0  0
 19 21  1  0  0  0  0
 19 22  1  0  0  0  0
 17 18  1  0  0  0  0
 17 19  1  0  0  0  0
M  END
$$$$
default_name
  -OEChem-01062215323D

 22 21  0     1  0  0  0  0  0999 V2000
   -2.5423   -3.6749    0.8058 H   0  0  0  0  0  0  0  0  0  0  0  0
   -2.5063   -2.6779    0.3688 C   0  0  0  0  0  0  0  0  0  0  0  0
   -3.1603   -2.0109    0.9268 H   0  0  0  0  0  0  0  0  0  0  0  0
   -2.8193   -2.7229   -0.6722 H   0  0  0  0  0  0  0  0  0  0  0  0
   -1.0873   -2.1629    0.4418 C   0  0  0  0  0  0  0  0  0  0  0  0
   -0.2073   -2.8549    0.9368 O   0  0  0  0  0  0  0  0  0  0  0  0
   -0.8713   -0.9449   -0.0482 N   0  0  0  0  0  0  0  0  0  0  0  0
   -1.6543   -0.4189   -0.4062 H   0  0  0  0  0  0  0  0  0  0  0  0
    0.4237   -0.2649   -0.0462 C   0  0  1  0  0  0  0  0  0  0  0  0
    0.2764    0.7732    0.2559 H   0  0  0  0  0  0  0  0  0  0  0  0
    1.3429   -0.9460    0.9794 C   0  0  0  0  0  0  0  0  0  0  0  0
    1.5023   -1.9889    0.7005 H   0  0  0  0  0  0  0  0  0  0  0  0
    2.3041   -0.4344    1.0168 H   0  0  0  0  0  0  0  0  0  0  0  0
    0.8851   -0.9047    1.9691 H   0  0  0  0  0  0  0  0  0  0  0  0
    1.0501   -0.2644   -1.4544 C   0  0  0  0  0  0  0  0  0  0  0  0
    0.6253   -1.0222   -2.3263 O   0  0  0  0  0  0  0  0  0  0  0  0
    2.0698    0.5773   -1.6662 N   0  0  0  0  0  0  0  0  0  0  0  0
    2.3650    1.1630   -0.9015 H   0  0  0  0  0  0  0  0  0  0  0  0
    2.7799    0.6961   -2.9388 C   0  0  0  0  0  0  0  0  0  0  0  0
    2.0689    0.9125   -3.7386 H   0  0  0  0  0  0  0  0  0  0  0  0
    3.5182    1.4976   -2.8884 H   0  0  0  0  0  0  0  0  0  0  0  0
    3.2834   -0.2446   -3.1682 H   0  0  0  0  0  0  0  0  0  0  0  0
  5  6  2  0  0  0  0
  5  7  1  0  0  0  0
  2  3  1  0  0  0  0
  2  4  1  0  0  0  0
  2  5  1  0  0  0  0
  1  2  1  0  0  0  0
 15 16  2  0  0  0  0
 15 17  1  0  0  0  0
 11 12  1  0  0  0  0
 11 13  1  0  0  0  0
 11 14  1  0  0  0  0
  9 10  1  0  0  0  0
  9 11  1  0  0  0  0
  9 15  1  0  0  0  0
  7  8  1  0  0  0  0
  7  9  1  0  0  0  0
 19 20  1  0  0  0  0
 19 21  1  0  0  0  0
 19 22  1  0  0  0  0
 17 18  1  0  0  0  0
 17 19  1  0  0  0  0
M  END
$$$$
default_name
  -OEChem-01062215323D

 22 21  0     1  0  0  0  0  0999 V2000
   -2.5423   -3.6749    0.8058 H   0  0  0  0  0  0  0  0  0  0  0  0
   -2.5063   -2.6779    0.3688 C   0  0  0  0  0  0  0  0  0  0  0  0
   -3.1603   -2.0109    0.9268 H   0  0  0  0  0  0  0  0  0  0  0  0
   -2.8193   -2.7229   -0.6722 H   0  0  0  0  0  0  0  0  0  0  0  0
   -1.0873   -2.1629    0.4418 C   0  0  0  0  0  0  0  0  0  0  0  0
   -0.2073   -2.8549    0.9368 O   0  0  0  0  0  0  0  0  0  0  0  0
   -0.8713   -0.9449   -0.0482 N   0  0  0  0  0  0  0  0  0  0  0  0
   -1.6543   -0.4189   -0.4062 H   0  0  0  0  0  0  0  0  0  0  0  0
    0.4237   -0.2649   -0.0462 C   0  0  1  0  0  0  0  0  0  0  0  0
    0.3281    0.6742    0.5012 H   0  0  0  0  0  0  0  0  0  0  0  0
    1.4503   -1.1496    0.6778 C   0  0  0  0  0  0  0  0  0  0  0  0
    1.5607   -2.0984    0.1503 H   0  0  0  0  0  0  0  0  0  0  0  0
    2.4159   -0.6464    0.7156 H   0  0  0  0  0  0  0  0  0  0  0  0
    1.1155   -1.3428    1.6984 H   0  0  0  0  0  0  0  0  0  0  0  0
    0.8760    0.0672   -1.4816 C   0  0  0  0  0  0  0  0  0  0  0  0
    0.1786   -0.2508   -2.4447 O   0  0  0  0  0  0  0  0  0  0  0  0
    2.0515    0.6936   -1.6193 N   0  0  0  0  0  0  0  0  0  0  0  0
    2.5683    0.9165   -0.7837 H   0  0  0  0  0  0  0  0  0  0  0  0
    2.6293    1.0718   -2.9081 C   0  0  0  0  0  0  0  0  0  0  0  0
    1.9188    1.6867   -3.4641 H   0  0  0  0  0  0  0  0  0  0  0  0
    3.5520    1.6347   -2.7602 H   0  0  0  0  0  0  0  0  0  0  0  0
    2.8431    0.1754   -3.4926 H   0  0  0  0  0  0  0  0  0  0  0  0
  5  6  2  0  0  0  0
  5  7  1  0  0  0  0
  2  3  1  0  0  0  0
  2  4  1  0  0  0  0
  2  5  1  0  0  0  0
  1  2  1  0  0  0  0
 15 16  2  0  0  0  0
 15 17  1  0  0  0  0
 11 12  1  0  0  0  0
 11 13  1  0  0  0  0
 11 14  1  0  0  0  0
  9 10  1  0  0  0  0
  9 11  1  0  0  0  0
  9 15  1  0  0  0  0
  7  8  1  0  0  0  0
  7  9  1  0  0  0  0
 19 20  1  0  0  0  0
 19 21  1  0  0  0  0
 19 22  1  0  0  0  0
 17 18  1  0  0  0  0
 17 19  1  0  0  0  0
M  END
$$$$
default_name
  -OEChem-01062215323D

 22 21  0     1  0  0  0  0  0999 V2000
   -2.5423   -3.6749    0.8058 H   0  0  0  0  0  0  0  0  0  0  0  0
   -2.5063   -2.6779    0.3688 C   0  0  0  0  0  0  0  0  0  0  0  0
   -3.1603   -2.0109    0.9268 H   0  0  0  0  0  0  0  0  0  0  0  0
   -2.8193   -2.7229   -0.6722 H   0  0  0  0  0  0  0  0  0  0  0  0
   -1.0873   -2.1629    0.4418 C   0  0  0  0  0  0  0  0  0  0  0  0
   -0.2073   -2.8549    0.9368 O   0  0  0  0  0  0  0  0  0  0  0  0
   -0.8713   -0.9449   -0.0482 N   0  0  0  0  0  0  0  0  0  0  0  0
   -1.6543   -0.4189   -0.4062 H   0  0  0  0  0  0  0  0  0  0  0  0
    0.4237   -0.2649   -0.0462 C   0  0  1  0  0  0  0  0  0  0  0  0
    0.3281    0.6742    0.5012 H   0  0  0  0  0  0  0  0  0  0  0  0
    1.4503   -1.1496    0.6778 C   0  0  0  0  0  0  0  0  0  0  0  0
    1.5607   -2.0984    0.1503 H   0  0  0  0  0  0  0  0  0  0  0  0
    2.4159   -0.6464    0.7156 H   0  0  0  0  0  0  0  0  0  0  0  0
    1.1155   -1.3428    1.6984 H   0  0  0  0  0  0  0  0  0  0  0  0
    0.8760    0.0672   -1.4816 C   0  0  0  0  0  0  0  0  0  0  0  0
    0.0783    0.0059   -2.4169 O   0  0  0  0  0  0  0  0  0  0  0  0
    2.1608    0.4039   -1.6519 N   0  0  0  0  0  0  0  0  0  0  0  0
    2.7546    0.4269   -0.8383 H   0  0  0  0  0  0  0  0  0  0  0  0
    2.7528    0.7384   -2.9464 C   0  0  0  0  0  0  0  0  0  0  0  0
    2.1881    1.5491   -3.4111 H   0  0  0  0  0  0  0  0  0  0  0  0
    3.7905    1.0504   -2.8202 H   0  0  0  0  0  0  0  0  0  0  0  0
    2.7147   -0.1316   -3.6041 H   0  0  0  0  0  0  0  0  0  0  0  0
  5  6  2  0  0  0  0
  5  7  1  0  0  0  0
  2  3  1  0  0  0  0
  2  4  1  0  0  0  0
  2  5  1  0  0  0  0
  1  2  1  0  0  0  0
 15 16  2  0  0  0  0
 15 17  1  0  0  0  0
 11 12  1  0  0  0  0
 11 13  1  0  0  0  0
 11 14  1  0  0  0  0
  9 10  1  0  0  0  0
  9 11  1  0  0  0  0
  9 15  1  0  0  0  0
  7  8  1  0  0  0  0
  7  9  1  0  0  0  0
 19 20  1  0  0  0  0
 19 21  1  0  0  0  0
 19 22  1  0  0  0  0
 17 18  1  0  0  0  0
 17 19  1  0  0  0  0
M  END
$$$$
default_name
  -OEChem-01062215323D

 22 21  0     1  0  0  0  0  0999 V2000
   -2.5423   -3.6749    0.8058 H   0  0  0  0  0  0  0  0  0  0  0  0
   -2.5063   -2.6779    0.3688 C   0  0  0  0  0  0  0  0  0  0  0  0
   -3.1603   -2.0109    0.9268 H   0  0  0  0  0  0  0  0  0  0  0  0
   -2.8193   -2.7229   -0.6722 H   0  0  0  0  0  0  0  0  0  0  0  0
   -1.0873   -2.1629    0.4418 C   0  0  0  0  0  0  0  0  0  0  0  0
   -0.2073   -2.8549    0.9368 O   0  0  0  0  0  0  0  0  0  0  0  0
   -0.8713   -0.9449   -0.0482 N   0  0  0  0  0  0  0  0  0  0  0  0
   -1.6543   -0.4189   -0.4062 H   0  0  0  0  0  0  0  0  0  0  0  0
    0.4237   -0.2649   -0.0462 C   0  0  1  0  0  0  0  0  0  0  0  0
    0.3281    0.6742    0.5012 H   0  0  0  0  0  0  0  0  0  0  0  0
    1.4503   -1.1496    0.6778 C   0  0  0  0  0  0  0  0  0  0  0  0
    1.5607   -2.0984    0.1503 H   0  0  0  0  0  0  0  0  0  0  0  0
    2.4159   -0.6464    0.7156 H   0  0  0  0  0  0  0  0  0  0  0  0
    1.1155   -1.3428    1.6984 H   0  0  0  0  0  0  0  0  0  0  0  0
    0.8760    0.0672   -1.4816 C   0  0  0  0  0  0  0  0  0  0  0  0
    0.0447    0.2759   -2.3650 O   0  0  0  0  0  0  0  0  0  0  0  0
    2.1948    0.1001   -1.7115 N   0  0  0  0  0  0  0  0  0  0  0  0
    2.8134   -0.0869   -0.9387 H   0  0  0  0  0  0  0  0  0  0  0  0
    2.7895    0.3895   -3.0155 C   0  0  0  0  0  0  0  0  0  0  0  0
    2.4180    1.3473   -3.3854 H   0  0  0  0  0  0  0  0  0  0  0  0
    3.8767    0.4330   -2.9359 H   0  0  0  0  0  0  0  0  0  0  0  0
    2.5105   -0.3886   -3.7279 H   0  0  0  0  0  0  0  0  0  0  0  0
  5  6  2  0  0  0  0
  5  7  1  0  0  0  0
  2  3  1  0  0  0  0
  2  4  1  0  0  0  0
  2  5  1  0  0  0  0
  1  2  1  0  0  0  0
 15 16  2  0  0  0  0
 15 17  1  0  0  0  0
 11 12  1  0  0  0  0
 11 13  1  0  0  0  0
 11 14  1  0  0  0  0
  9 10  1  0  0  0  0
  9 11  1  0  0  0  0
  9 15  1  0  0  0  0
  7  8  1  0  0  0  0
  7  9  1  0  0  0  0
 19 20  1  0  0  0  0
 19 21  1  0  0  0  0
 19 22  1  0  0  0  0
 17 18  1  0  0  0  0
 17 19  1  0  0  0  0
M  END
$$$$
default_name
  -OEChem-01062215323D

 22 21  0     1  0  0  0  0  0999 V2000
   -2.5423   -3.6749    0.8058 H   0  0  0  0  0  0  0  0  0  0  0  0
   -2.5063   -2.6779    0.3688 C   0  0  0  0  0  0  0  0  0  0  0  0
   -3.1603   -2.0109    0.9268 H   0  0  0  0  0  0  0  0  0  0  0  0
   -2.8193   -2.7229   -0.6722 H   0  0  0  0  0  0  0  0  0  0  0  0
   -1.0873   -2.1629    0.4418 C   0  0  0  0  0  0  0  0  0  0  0  0
   -0.2073   -2.8549    0.9368 O   0  0  0  0  0  0  0  0  0  0  0  0
   -0.8713   -0.9449   -0.0482 N   0  0  0  0  0  0  0  0  0  0  0  0
   -1.6543   -0.4189   -0.4062 H   0  0  0  0  0  0  0  0  0  0  0  0
    0.4237   -0.2649   -0.0462 C   0  0  1  0  0  0  0  0  0  0  0  0
    0.3281    0.6742    0.5012 H   0  0  0  0  0  0  0  0  0  0  0  0
    1.4503   -1.1496    0.6778 C   0  0  0  0  0  0  0  0  0  0  0  0
    1.5607   -2.0984    0.1503 H   0  0  0  0  0  0  0  0  0  0  0  0
    2.4159   -0.6464    0.7156 H   0  0  0  0  0  0  0  0  0  0  0  0
    1.1155   -1.3428    1.6984 H   0  0  0  0  0  0  0  0  0  0  0  0
    0.8760    0.0672   -1.4816 C   0  0  0  0  0  0  0  0  0  0  0  0
    0.0803    0.5408   -2.2925 O   0  0  0  0  0  0  0  0  0  0  0  0
    2.1510   -0.1970   -1.7940 N   0  0  0  0  0  0  0  0  0  0  0  0
    2.7409   -0.5897   -1.0779 H   0  0  0  0  0  0  0  0  0  0  0  0
    2.7371    0.0489   -3.1108 C   0  0  0  0  0  0  0  0  0  0  0  0
    2.5928    1.0949   -3.3887 H   0  0  0  0  0  0  0  0  0  0  0  0
    3.8046   -0.1753   -3.0994 H   0  0  0  0  0  0  0  0  0  0  0  0
    2.2443   -0.5783   -3.8557 H   0  0  0  0  0  0  0  0  0  0  0  0
  5  6  2  0  0  0  0
  5  7  1  0  0  0  0
  2  3  1  0  0  0  0
  2  4  1  0  0  0  0
  2  5  1  0  0  0  0
  1  2  1  0  0  0  0
 15 16  2  0  0  0  0
 15 17  1  0  0  0  0
 11 12  1  0  0  0  0
 11 13  1  0  0  0  0
 11 14  1  0  0  0  0
  9 10  1  0  0  0  0
  9 11  1  0  0  0  0
  9 15  1  0  0  0  0
  7  8  1  0  0  0  0
  7  9  1  0  0  0  0
 19 20  1  0  0  0  0
 19 21  1  0  0  0  0
 19 22  1  0  0  0  0
 17 18  1  0  0  0  0
 17 19  1  0  0  0  0
M  END
$$$$
default_name
  -OEChem-01062215323D

 22 21  0     1  0  0  0  0  0999 V2000
   -2.5423   -3.6749    0.8058 H   0  0  0  0  0  0  0  0  0  0  0  0
   -2.5063   -2.6779    0.3688 C   0  0  0  0  0  0  0  0  0  0  0  0
   -3.1603   -2.0109    0.9268 H   0  0  0  0  0  0  0  0  0  0  0  0
   -2.8193   -2.7229   -0.6722 H   0  0  0  0  0  0  0  0  0  0  0  0
   -1.0873   -2.1629    0.4418 C   0  0  0  0  0  0  0  0  0  0  0  0
   -0.2073   -2.8549    0.9368 O   0  0  0  0  0  0  0  0  0  0  0  0
   -0.8713   -0.9449   -0.0482 N   0  0  0  0  0  0  0  0  0  0  0  0
   -1.6543   -0.4189   -0.4062 H   0  0  0  0  0  0  0  0  0  0  0  0
    0.4237   -0.2649   -0.0462 C   0  0  1  0  0  0  0  0  0  0  0  0
    0.3281    0.6742    0.5012 H   0  0  0  0  0  0  0  0  0  0  0  0
    1.4503   -1.1496    0.6778 C   0  0  0  0  0  0  0  0  0  0  0  0
    1.5607   -2.0984    0.1503 H   0  0  0  0  0  0  0  0  0  0  0  0
    2.4159   -0.6464    0.7156 H   0  0  0  0  0  0  0  0  0  0  0  0
    1.1155   -1.3428    1.6984 H   0  0  0  0  0  0  0  0  0  0  0  0
    0.8760    0.0672   -1.4816 C   0  0  0  0  0  0  0  0  0  0  0  0
    0.1826    0.7827   -2.2043 O   0  0  0  0  0  0  0  0  0  0  0  0
    2.0326   -0.4671   -1.8939 N   0  0  0  0  0  0  0  0  0  0  0  0
    2.5418   -1.0473   -1.2465 H   0  0  0  0  0  0  0  0  0  0  0  0
    2.5990   -0.2602   -3.2259 C   0  0  0  0  0  0  0  0  0  0  0  0
    2.7007    0.8093   -3.4208 H   0  0  0  0  0  0  0  0  0  0  0  0
    3.5793   -0.7332   -3.2995 H   0  0  0  0  0  0  0  0  0  0  0  0
    1.9344   -0.6877   -3.9786 H   0  0  0  0  0  0  0  0  0  0  0  0
  5  6  2  0  0  0  0
  5  7  1  0  0  0  0
  2  3  1  0  0  0  0
  2  4  1  0  0  0  0
  2  5  1  0  0  0  0
  1  2  1  0  0  0  0
 15 16  2  0  0  0  0
 15 17  1  0  0  0  0
 11 12  1  0  0  0  0
 11 13  1  0  0  0  0
 11 14  1  0  0  0  0
  9 10  1  0  0  0  0
  9 11  1  0  0  0  0
  9 15  1  0  0  0  0
  7  8  1  0  0  0  0
  7  9  1  0  0  0  0
 19 20  1  0  0  0  0
 19 21  1  0  0  0  0
 19 22  1  0  0  0  0
 17 18  1  0  0  0  0
 17 19  1  0  0  0  0
M  END
$$$$
default_name
  -OEChem-01062215323D

 22 21  0     1  0  0  0  0  0999 V2000
   -2.5423   -3.6749    0.8058 H   0  0  0  0  0  0  0  0  0  0  0  0
   -2.5063   -2.6779    0.3688 C   0  0  0  0  0  0  0  0  0  0  0  0
   -3.1603   -2.0109    0.9268 H   0  0  0  0  0  0  0  0  0  0  0  0
   -2.8193   -2.7229   -0.6722 H   0  0  0  0  0  0  0  0  0  0  0  0
   -1.0873   -2.1629    0.4418 C   0  0  0  0  0  0  0  0  0  0  0  0
   -0.2073   -2.8549    0.9368 O   0  0  0  0  0  0  0  0  0  0  0  0
   -0.8713   -0.9449   -0.0482 N   0  0  0  0  0  0  0  0  0  0  0  0
   -1.6543   -0.4189   -0.4062 H   0  0  0  0  0  0  0  0  0  0  0  0
    0.4237   -0.2649   -0.0462 C   0  0  1  0  0  0  0  0  0  0  0  0
    0.3281    0.6742    0.5012 H   0  0  0  0  0  0  0  0  0  0  0  0
    1.4503   -1.1496    0.6778 C   0  0  0  0  0  0  0  0  0  0  0  0
    1.5607   -2.0984    0.1503 H   0  0  0  0  0  0  0  0  0  0  0  0
    2.4159   -0.6464    0.7156 H   0  0  0  0  0  0  0  0  0  0  0  0
    1.1155   -1.3428    1.6984 H   0  0  0  0  0  0  0  0  0  0  0  0
    0.8760    0.0672   -1.4816 C   0  0  0  0  0  0  0  0  0  0  0  0
    0.3447    0.9849   -2.1064 O   0  0  0  0  0  0  0  0  0  0  0  0
    1.8474   -0.6919   -2.0042 N   0  0  0  0  0  0  0  0  0  0  0  0
    2.2298   -1.4285   -1.4330 H   0  0  0  0  0  0  0  0  0  0  0  0
    2.3847   -0.5168   -3.3528 C   0  0  0  0  0  0  0  0  0  0  0  0
    2.7343    0.5098   -3.4795 H   0  0  0  0  0  0  0  0  0  0  0  0
    3.2160   -1.2024   -3.5225 H   0  0  0  0  0  0  0  0  0  0  0  0
    1.6019   -0.7093   -4.0884 H   0  0  0  0  0  0  0  0  0  0  0  0
  5  6  2  0  0  0  0
  5  7  1  0  0  0  0
  2  3  1  0  0  0  0
  2  4  1  0  0  0  0
  2  5  1  0  0  0  0
  1  2  1  0  0  0  0
 15 16  2  0  0  0  0
 15 17  1  0  0  0  0
 11 12  1  0  0  0  0
 11 13  1  0  0  0  0
 11 14  1  0  0  0  0
  9 10  1  0  0  0  0
  9 11  1  0  0  0  0
  9 15  1  0  0  0  0
  7  8  1  0  0  0  0
  7  9  1  0  0  0  0
 19 20  1  0  0  0  0
 19 21  1  0  0  0  0
 19 22  1  0  0  0  0
 17 18  1  0  0  0  0
 17 19  1  0  0  0  0
M  END
$$$$
default_name
  -OEChem-01062215323D

 22 21  0     1  0  0  0  0  0999 V2000
   -2.5423   -3.6749    0.8058 H   0  0  0  0  0  0  0  0  0  0  0  0
   -2.5063   -2.6779    0.3688 C   0  0  0  0  0  0  0  0  0  0  0  0
   -3.1603   -2.0109    0.9268 H   0  0  0  0  0  0  0  0  0  0  0  0
   -2.8193   -2.7229   -0.6722 H   0  0  0  0  0  0  0  0  0  0  0  0
   -1.0873   -2.1629    0.4418 C   0  0  0  0  0  0  0  0  0  0  0  0
   -0.2073   -2.8549    0.9368 O   0  0  0  0  0  0  0  0  0  0  0  0
   -0.8713   -0.9449   -0.0482 N   0  0  0  0  0  0  0  0  0  0  0  0
   -1.6543   -0.4189   -0.4062 H   0  0  0  0  0  0  0  0  0  0  0  0
    0.4237   -0.2649   -0.0462 C   0  0  1  0  0  0  0  0  0  0  0  0
    0.3281    0.6742    0.5012 H   0  0  0  0  0  0  0  0  0  0  0  0
    1.4503   -1.1496    0.6778 C   0  0  0  0  0  0  0  0  0  0  0  0
    1.5607   -2.0984    0.1503 H   0  0  0  0  0  0  0  0  0  0  0  0
    2.4159   -0.6464    0.7156 H   0  0  0  0  0  0  0  0  0  0  0  0
    1.1155   -1.3428    1.6984 H   0  0  0  0  0  0  0  0  0  0  0  0
    0.8760    0.0672   -1.4816 C   0  0  0  0  0  0  0  0  0  0  0  0
    0.5554    1.1338   -2.0056 O   0  0  0  0  0  0  0  0  0  0  0  0
    1.6083   -0.8561   -2.1176 N   0  0  0  0  0  0  0  0  0  0  0  0
    1.8261   -1.7073   -1.6247 H   0  0  0  0  0  0  0  0  0  0  0  0
    2.1087   -0.7033   -3.4829 C   0  0  0  0  0  0  0  0  0  0  0  0
    2.6912    0.2169   -3.5608 H   0  0  0  0  0  0  0  0  0  0  0  0
    2.7395   -1.5512   -3.7534 H   0  0  0  0  0  0  0  0  0  0  0  0
    1.2693   -0.6416   -4.1776 H   0  0  0  0  0  0  0  0  0  0  0  0
  5  6  2  0  0  0  0
  5  7  1  0  0  0  0
  2  3  1  0  0  0  0
  2  4  1  0  0  0  0
  2  5  1  0  0  0  0
  1  2  1  0  0  0  0
 15 16  2  0  0  0  0
 15 17  1  0  0  0  0
 11 12  1  0  0  0  0
 11 13  1  0  0  0  0
 11 14  1  0  0  0  0
  9 10  1  0  0  0  0
  9 11  1  0  0  0  0
  9 15  1  0  0  0  0
  7  8  1  0  0  0  0
  7  9  1  0  0  0  0
 19 20  1  0  0  0  0
 19 21  1  0  0  0  0
 19 22  1  0  0  0  0
 17 18  1  0  0  0  0
 17 19  1  0  0  0  0
M  END
$$$$
default_name
  -OEChem-01062215323D

 22 21  0     1  0  0  0  0  0999 V2000
   -2.5423   -3.6749    0.8058 H   0  0  0  0  0  0  0  0  0  0  0  0
   -2.5063   -2.6779    0.3688 C   0  0  0  0  0  0  0  0  0  0  0  0
   -3.1603   -2.0109    0.9268 H   0  0  0  0  0  0  0  0  0  0  0  0
   -2.8193   -2.7229   -0.6722 H   0  0  0  0  0  0  0  0  0  0  0  0
   -1.0873   -2.1629    0.4418 C   0  0  0  0  0  0  0  0  0  0  0  0
   -0.2073   -2.8549    0.9368 O   0  0  0  0  0  0  0  0  0  0  0  0
   -0.8713   -0.9449   -0.0482 N   0  0  0  0  0  0  0  0  0  0  0  0
   -1.6543   -0.4189   -0.4062 H   0  0  0  0  0  0  0  0  0  0  0  0
    0.4237   -0.2649   -0.0462 C   0  0  1  0  0  0  0  0  0  0  0  0
    0.3281    0.6742    0.5012 H   0  0  0  0  0  0  0  0  0  0  0  0
    1.4503   -1.1496    0.6778 C   0  0  0  0  0  0  0  0  0  0  0  0
    1.5607   -2.0984    0.1503 H   0  0  0  0  0  0  0  0  0  0  0  0
    2.4159   -0.6464    0.7156 H   0  0  0  0  0  0  0  0  0  0  0  0
    1.1155   -1.3428    1.6984 H   0  0  0  0  0  0  0  0  0  0  0  0
    0.8760    0.0672   -1.4816 C   0  0  0  0  0  0  0  0  0  0  0  0
    0.8004    1.2191   -1.9086 O   0  0  0  0  0  0  0  0  0  0  0  0
    1.3314   -0.9484   -2.2262 N   0  0  0  0  0  0  0  0  0  0  0  0
    1.3583   -1.8648   -1.8085 H   0  0  0  0  0  0  0  0  0  0  0  0
    1.7900   -0.8070   -3.6073 C   0  0  0  0  0  0  0  0  0  0  0  0
    2.5745   -0.0495   -3.6592 H   0  0  0  0  0  0  0  0  0  0  0  0
    2.1823   -1.7557   -3.9763 H   0  0  0  0  0  0  0  0  0  0  0  0
    0.9594   -0.4893   -4.2400 H   0  0  0  0  0  0  0  0  0  0  0  0
  5  6  2  0  0  0  0
  5  7  1  0  0  0  0
  2  3  1  0  0  0  0
  2  4  1  0  0  0  0
  2  5  1  0  0  0  0
  1  2  1  0  0  0  0
 15 16  2  0  0  0  0
 15 17  1  0  0  0  0
 11 12  1  0  0  0  0
 11 13  1  0  0  0  0
 11 14  1  0  0  0  0
  9 10  1  0  0  0  0
  9 11  1  0  0  0  0
  9 15  1  0  0  0  0
  7  8  1  0  0  0  0
  7  9  1  0  0  0  0
 19 20  1  0  0  0  0
 19 21  1  0  0  0  0
 19 22  1  0  0  0  0
 17 18  1  0  0  0  0
 17 19  1  0  0  0  0
M  END
$$$$
default_name
  -OEChem-01062215323D

 22 21  0     1  0  0  0  0  0999 V2000
   -2.5423   -3.6749    0.8058 H   0  0  0  0  0  0  0  0  0  0  0  0
   -2.5063   -2.6779    0.3688 C   0  0  0  0  0  0  0  0  0  0  0  0
   -3.1603   -2.0109    0.9268 H   0  0  0  0  0  0  0  0  0  0  0  0
   -2.8193   -2.7229   -0.6722 H   0  0  0  0  0  0  0  0  0  0  0  0
   -1.0873   -2.1629    0.4418 C   0  0  0  0  0  0  0  0  0  0  0  0
   -0.2073   -2.8549    0.9368 O   0  0  0  0  0  0  0  0  0  0  0  0
   -0.8713   -0.9449   -0.0482 N   0  0  0  0  0  0  0  0  0  0  0  0
   -1.6543   -0.4189   -0.4062 H   0  0  0  0  0  0  0  0  0  0  0  0
    0.4237   -0.2649   -0.0462 C   0  0  1  0  0  0  0  0  0  0  0  0
    0.3281    0.6742    0.5012 H   0  0  0  0  0  0  0  0  0  0  0  0
    1.4503   -1.1496    0.6778 C   0  0  0  0  0  0  0  0  0  0  0  0
    1.5607   -2.0984    0.1503 H   0  0  0  0  0  0  0  0  0  0  0  0
    2.4159   -0.6464    0.7156 H   0  0  0  0  0  0  0  0  0  0  0  0
    1.1155   -1.3428    1.6984 H   0  0  0  0  0  0  0  0  0  0  0  0
    0.8760    0.0672   -1.4816 C   0  0  0  0  0  0  0  0  0  0  0  0
    1.0631    1.2351   -1.8222 O   0  0  0  0  0  0  0  0  0  0  0  0
    1.0356   -0.9625   -2.3226 N   0  0  0  0  0  0  0  0  0  0  0  0
    0.8582   -1.8902   -1.9720 H   0  0  0  0  0  0  0  0  0  0  0  0
    1.4501   -0.8210   -3.7176 C   0  0  0  0  0  0  0  0  0  0  0  0
    2.3921   -0.2712   -3.7680 H   0  0  0  0  0  0  0  0  0  0  0  0
    1.5824   -1.8020   -4.1760 H   0  0  0  0  0  0  0  0  0  0  0  0
    0.6933   -0.2628   -4.2714 H   0  0  0  0  0  0  0  0  0  0  0  0
  5  6  2  0  0  0  0
  5  7  1  0  0  0  0
  2  3  1  0  0  0  0
  2  4  1  0  0  0  0
  2  5  1  0  0  0  0
  1  2  1  0  0  0  0
 15 16  2  0  0  0  0
 15 17  1  0  0  0  0
 11 12  1  0  0  0  0
 11 13  1  0  0  0  0
 11 14  1  0  0  0  0
  9 10  1  0  0  0  0
  9 11  1  0  0  0  0
  9 15  1  0  0  0  0
  7  8  1  0  0  0  0
  7  9  1  0  0  0  0
 19 20  1  0  0  0  0
 19 21  1  0  0  0  0
 19 22  1  0  0  0  0
 17 18  1  0  0  0  0
 17 19  1  0  0  0  0
M  END
$$$$
default_name
  -OEChem-01062215323D

 22 21  0     1  0  0  0  0  0999 V2000
   -2.5423   -3.6749    0.8058 H   0  0  0  0  0  0  0  0  0  0  0  0
   -2.5063   -2.6779    0.3688 C   0  0  0  0  0  0  0  0  0  0  0  0
   -3.1603   -2.0109    0.9268 H   0  0  0  0  0  0  0  0  0  0  0  0
   -2.8193   -2.7229   -0.6722 H   0  0  0  0  0  0  0  0  0  0  0  0
   -1.0873   -2.1629    0.4418 C   0  0  0  0  0  0  0  0  0  0  0  0
   -0.2073   -2.8549    0.9368 O   0  0  0  0  0  0  0  0  0  0  0  0
   -0.8713   -0.9449   -0.0482 N   0  0  0  0  0  0  0  0  0  0  0  0
   -1.6543   -0.4189   -0.4062 H   0  0  0  0  0  0  0  0  0  0  0  0
    0.4237   -0.2649   -0.0462 C   0  0  1  0  0  0  0  0  0  0  0  0
    0.3281    0.6742    0.5012 H   0  0  0  0  0  0  0  0  0  0  0  0
    1.4503   -1.1496    0.6778 C   0  0  0  0  0  0  0  0  0  0  0  0
    1.5607   -2.0984    0.1503 H   0  0  0  0  0  0  0  0  0  0  0  0
    2.4159   -0.6464    0.7156 H   0  0  0  0  0  0  0  0  0  0  0  0
    1.1155   -1.3428    1.6984 H   0  0  0  0  0  0  0  0  0  0  0  0
    0.8760    0.0672   -1.4816 C   0  0  0  0  0  0  0  0  0  0  0  0
    1.3255    1.1806   -1.7521 O   0  0  0  0  0  0  0  0  0  0  0  0
    0.7411   -0.8975   -2.4004 N   0  0  0  0  0  0  0  0  0  0  0  0
    0.3600   -1.7817   -2.1039 H   0  0  0  0  0  0  0  0  0  0  0  0
    1.1123   -0.7441   -3.8063 C   0  0  0  0  0  0  0  0  0  0  0  0
    2.1563   -0.4331   -3.8797 H   0  0  0  0  0  0  0  0  0  0  0  0
    0.9806   -1.6870   -4.3390 H   0  0  0  0  0  0  0  0  0  0  0  0
    0.4891    0.0226   -4.2697 H   0  0  0  0  0  0  0  0  0  0  0  0
  5  6  2  0  0  0  0
  5  7  1  0  0  0  0
  2  3  1  0  0  0  0
  2  4  1  0  0  0  0
  2  5  1  0  0  0  0
  1  2  1  0  0  0  0
 15 16  2  0  0  0  0
 15 17  1  0  0  0  0
 11 12  1  0  0  0  0
 11 13  1  0  0  0  0
 11 14  1  0  0  0  0
  9 10  1  0  0  0  0
  9 11  1  0  0  0  0
  9 15  1  0  0  0  0
  7  8  1  0  0  0  0
  7  9  1  0  0  0  0
 19 20  1  0  0  0  0
 19 21  1  0  0  0  0
 19 22  1  0  0  0  0
 17 18  1  0  0  0  0
 17 19  1  0  0  0  0
M  END
$$$$
default_name
  -OEChem-01062215323D

 22 21  0     1  0  0  0  0  0999 V2000
   -2.5423   -3.6749    0.8058 H   0  0  0  0  0  0  0  0  0  0  0  0
   -2.5063   -2.6779    0.3688 C   0  0  0  0  0  0  0  0  0  0  0  0
   -3.1603   -2.0109    0.9268 H   0  0  0  0  0  0  0  0  0  0  0  0
   -2.8193   -2.7229   -0.6722 H   0  0  0  0  0  0  0  0  0  0  0  0
   -1.0873   -2.1629    0.4418 C   0  0  0  0  0  0  0  0  0  0  0  0
   -0.2073   -2.8549    0.9368 O   0  0  0  0  0  0  0  0  0  0  0  0
   -0.8713   -0.9449   -0.0482 N   0  0  0  0  0  0  0  0  0  0  0  0
   -1.6543   -0.4189   -0.4062 H   0  0  0  0  0  0  0  0  0  0  0  0
    0.4237   -0.2649   -0.0462 C   0  0  1  0  0  0  0  0  0  0  0  0
    0.3281    0.6742    0.5012 H   0  0  0  0  0  0  0  0  0  0  0  0
    1.4503   -1.1496    0.6778 C   0  0  0  0  0  0  0  0  0  0  0  0
    1.5607   -2.0984    0.1503 H   0  0  0  0  0  0  0  0  0  0  0  0
    2.4159   -0.6464    0.7156 H   0  0  0  0  0  0  0  0  0  0  0  0
    1.1155   -1.3428    1.6984 H   0  0  0  0  0  0  0  0  0  0  0  0
    0.8760    0.0672   -1.4816 C   0  0  0  0  0  0  0  0  0  0  0  0
    1.5697    1.0595   -1.7032 O   0  0  0  0  0  0  0  0  0  0  0  0
    0.4680   -0.7579   -2.4541 N   0  0  0  0  0  0  0  0  0  0  0  0
   -0.1026   -1.5468   -2.1953 H   0  0  0  0  0  0  0  0  0  0  0  0
    0.7996   -0.5818   -3.8672 C   0  0  0  0  0  0  0  0  0  0  0  0
    1.8834   -0.5241   -3.9868 H   0  0  0  0  0  0  0  0  0  0  0  0
    0.4179   -1.4184   -4.4542 H   0  0  0  0  0  0  0  0  0  0  0  0
    0.3608    0.3473   -4.2350 H   0  0  0  0  0  0  0  0  0  0  0  0
  5  6  2  0  0  0  0
  5  7  1  0  0  0  0
  2  3  1  0  0  0  0
  2  4  1  0  0  0  0
  2  5  1  0  0  0  0
  1  2  1  0  0  0  0
 15 16  2  0  0  0  0
 15 17  1  0  0  0  0
 11 12  1  0  0  0  0
 11 13  1  0  0  0  0
 11 14  1  0  0  0  0
  9 10  1  0  0  0  0
  9 11  1  0  0  0  0
  9 15  1  0  0  0  0
  7  8  1  0  0  0  0
  7  9  1  0  0  0  0
 19 20  1  0  0  0  0
 19 21  1  0  0  0  0
 19 22  1  0  0  0  0
 17 18  1  0  0  0  0
 17 19  1  0  0  0  0
M  END
$$$$
default_name
  -OEChem-01062215323D

 22 21  0     1  0  0  0  0  0999 V2000
   -2.5423   -3.6749    0.8058 H   0  0  0  0  0  0  0  0  0  0  0  0
   -2.5063   -2.6779    0.3688 C   0  0  0  0  0  0  0  0  0  0  0  0
   -3.1603   -2.0109    0.9268 H   0  0  0  0  0  0  0  0  0  0  0  0
   -2.8193   -2.7229   -0.6722 H   0  0  0  0  0  0  0  0  0  0  0  0
   -1.0873   -2.1629    0.4418 C   0  0  0  0  0  0  0  0  0  0  0  0
   -0.2073   -2.8549    0.9368 O   0  0  0  0  0  0  0  0  0  0  0  0
   -0.8713   -0.9449   -0.0482 N   0  0  0  0  0  0  0  0  0  0  0  0
   -1.6543   -0.4189   -0.4062 H   0  0  0  0  0  0  0  0  0  0  0  0
    0.4237   -0.2649   -0.0462 C   0  0  1  0  0  0  0  0  0  0  0  0
    0.3281    0.6742    0.5012 H   0  0  0  0  0  0  0  0  0  0  0  0
    1.4503   -1.1496    0.6778 C   0  0  0  0  0  0  0  0  0  0  0  0
    1.5607   -2.0984    0.1503 H   0  0  0  0  0  0  0  0  0  0  0  0
    2.4159   -0.6464    0.7156 H   0  0  0  0  0  0  0  0  0  0  0  0
    1.1155   -1.3428    1.6984 H   0  0  0  0  0  0  0  0  0  0  0  0
    0.8760    0.0672   -1.4816 C   0  0  0  0  0  0  0  0  0  0  0  0
    1.7791    0.8799   -1.6787 O   0  0  0  0  0  0  0  0  0  0  0  0
    0.2348   -0.5531   -2.4802 N   0  0  0  0  0  0  0  0  0  0  0  0
   -0.4978   -1.2015   -2.2399 H   0  0  0  0  0  0  0  0  0  0  0  0
    0.5333   -0.3449   -3.8964 C   0  0  0  0  0  0  0  0  0  0  0  0
    1.5918   -0.5382   -4.0819 H   0  0  0  0  0  0  0  0  0  0  0  0
   -0.0672   -1.0145   -4.5136 H   0  0  0  0  0  0  0  0  0  0  0  0
    0.3170    0.6893   -4.1697 H   0  0  0  0  0  0  0  0  0  0  0  0
  5  6  2  0  0  0  0
  5  7  1  0  0  0  0
  2  3  1  0  0  0  0
  2  4  1  0  0  0  0
  2  5  1  0  0  0  0
  1  2  1  0  0  0  0
 15 16  2  0  0  0  0
 15 17  1  0  0  0  0
 11 12  1  0  0  0  0
 11 13  1  0  0  0  0
 11 14  1  0  0  0  0
  9 10  1  0  0  0  0
  9 11  1  0  0  0  0
  9 15  1  0  0  0  0
  7  8  1  0  0  0  0
  7  9  1  0  0  0  0
 19 20  1  0  0  0  0
 19 21  1  0  0  0  0
 19 22  1  0  0  0  0
 17 18  1  0  0  0  0
 17 19  1  0  0  0  0
M  END
$$$$
default_name
  -OEChem-01062215323D

 22 21  0     1  0  0  0  0  0999 V2000
   -2.5423   -3.6749    0.8058 H   0  0  0  0  0  0  0  0  0  0  0  0
   -2.5063   -2.6779    0.3688 C   0  0  0  0  0  0  0  0  0  0  0  0
   -3.1603   -2.0109    0.9268 H   0  0  0  0  0  0  0  0  0  0  0  0
   -2.8193   -2.7229   -0.6722 H   0  0  0  0  0  0  0  0  0  0  0  0
   -1.0873   -2.1629    0.4418 C   0  0  0  0  0  0  0  0  0  0  0  0
   -0.2073   -2.8549    0.9368 O   0  0  0  0  0  0  0  0  0  0  0  0
   -0.8713   -0.9449   -0.0482 N   0  0  0  0  0  0  0  0  0  0  0  0
   -1.6543   -0.4189   -0.4062 H   0  0  0  0  0  0  0  0  0  0  0  0
    0.4237   -0.2649   -0.0462 C   0  0  1  0  0  0  0  0  0  0  0  0
    0.3281    0.6742    0.5012 H   0  0  0  0  0  0  0  0  0  0  0  0
    1.4503   -1.1496    0.6778 C   0  0  0  0  0  0  0  0  0  0  0  0
    1.5607   -2.0984    0.1503 H   0  0  0  0  0  0  0  0  0  0  0  0
    2.4159   -0.6464    0.7156 H   0  0  0  0  0  0  0  0  0  0  0  0
    1.1155   -1.3428    1.6984 H   0  0  0  0  0  0  0  0  0  0  0  0
    0.8760    0.0672   -1.4816 C   0  0  0  0  0  0  0  0  0  0  0  0
    1.9395    0.6540   -1.6805 O   0  0  0  0  0  0  0  0  0  0  0  0
    0.0575   -0.2971   -2.4768 N   0  0  0  0  0  0  0  0  0  0  0  0
   -0.7988   -0.7693   -2.2348 H   0  0  0  0  0  0  0  0  0  0  0  0
    0.3316   -0.0497   -3.8916 C   0  0  0  0  0  0  0  0  0  0  0  0
    1.3015   -0.4742   -4.1586 H   0  0  0  0  0  0  0  0  0  0  0  0
   -0.4418   -0.5030   -4.5133 H   0  0  0  0  0  0  0  0  0  0  0  0
    0.3608    1.0252   -4.0782 H   0  0  0  0  0  0  0  0  0  0  0  0
  5  6  2  0  0  0  0
  5  7  1  0  0  0  0
  2  3  1  0  0  0  0
  2  4  1  0  0  0  0
  2  5  1  0  0  0  0
  1  2  1  0  0  0  0
 15 16  2  0  0  0  0
 15 17  1  0  0  0  0
 11 12  1  0  0  0  0
 11 13  1  0  0  0  0
 11 14  1  0  0  0  0
  9 10  1  0  0  0  0
  9 11  1  0  0  0  0
  9 15  1  0  0  0  0
  7  8  1  0  0  0  0
  7  9  1  0  0  0  0
 19 20  1  0  0  0  0
 19 21  1  0  0  0  0
 19 22  1  0  0  0  0
 17 18  1  0  0  0  0
 17 19  1  0  0  0  0
M  END
$$$$
default_name
  -OEChem-01062215323D

 22 21  0     1  0  0  0  0  0999 V2000
   -2.5423   -3.6749    0.8058 H   0  0  0  0  0  0  0  0  0  0  0  0
   -2.5063   -2.6779    0.3688 C   0  0  0  0  0  0  0  0  0  0  0  0
   -3.1603   -2.0109    0.9268 H   0  0  0  0  0  0  0  0  0  0  0  0
   -2.8193   -2.7229   -0.6722 H   0  0  0  0  0  0  0  0  0  0  0  0
   -1.0873   -2.1629    0.4418 C   0  0  0  0  0  0  0  0  0  0  0  0
   -0.2073   -2.8549    0.9368 O   0  0  0  0  0  0  0  0  0  0  0  0
   -0.8713   -0.9449   -0.0482 N   0  0  0  0  0  0  0  0  0  0  0  0
   -1.6543   -0.4189   -0.4062 H   0  0  0  0  0  0  0  0  0  0  0  0
    0.4237   -0.2649   -0.0462 C   0  0  1  0  0  0  0  0  0  0  0  0
    0.3281    0.6742    0.5012 H   0  0  0  0  0  0  0  0  0  0  0  0
    1.4503   -1.1496    0.6778 C   0  0  0  0  0  0  0  0  0  0  0  0
    1.5607   -2.0984    0.1503 H   0  0  0  0  0  0  0  0  0  0  0  0
    2.4159   -0.6464    0.7156 H   0  0  0  0  0  0  0  0  0  0  0  0
    1.1155   -1.3428    1.6984 H   0  0  0  0  0  0  0  0  0  0  0  0
    0.8760    0.0672   -1.4816 C   0  0  0  0  0  0  0  0  0  0  0  0
    2.0399    0.3974   -1.7082 O   0  0  0  0  0  0  0  0  0  0  0  0
   -0.0518   -0.0073   -2.4443 N   0  0  0  0  0  0  0  0  0  0  0  0
   -0.9851   -0.2797   -2.1802 H   0  0  0  0  0  0  0  0  0  0  0  0
    0.2081    0.2837   -3.8534 C   0  0  0  0  0  0  0  0  0  0  0  0
    1.0322   -0.3366   -4.2117 H   0  0  0  0  0  0  0  0  0  0  0  0
   -0.6803    0.0813   -4.4532 H   0  0  0  0  0  0  0  0  0  0  0  0
    0.4892    1.3321   -3.9667 H   0  0  0  0  0  0  0  0  0  0  0  0
  5  6  2  0  0  0  0
  5  7  1  0  0  0  0
  2  3  1  0  0  0  0
  2  4  1  0  0  0  0
  2  5  1  0  0  0  0
  1  2  1  0  0  0  0
 15 16  2  0  0  0  0
 15 17  1  0  0  0  0
 11 12  1  0  0  0  0
 11 13  1  0  0  0  0
 11 14  1  0  0  0  0
  9 10  1  0  0  0  0
  9 11  1  0  0  0  0
  9 15  1  0  0  0  0
  7  8  1  0  0  0  0
  7  9  1  0  0  0  0
 19 20  1  0  0  0  0
 19 21  1  0  0  0  0
 19 22  1  0  0  0  0
 17 18  1  0  0  0  0
 17 19  1  0  0  0  0
M  END
$$$$
default_name
  -OEChem-01062215323D

 22 21  0     1  0  0  0  0  0999 V2000
   -2.5423   -3.6749    0.8058 H   0  0  0  0  0  0  0  0  0  0  0  0
   -2.5063   -2.6779    0.3688 C   0  0  0  0  0  0  0  0  0  0  0  0
   -3.1603   -2.0109    0.9268 H   0  0  0  0  0  0  0  0  0  0  0  0
   -2.8193   -2.7229   -0.6722 H   0  0  0  0  0  0  0  0  0  0  0  0
   -1.0873   -2.1629    0.4418 C   0  0  0  0  0  0  0  0  0  0  0  0
   -0.2073   -2.8549    0.9368 O   0  0  0  0  0  0  0  0  0  0  0  0
   -0.8713   -0.9449   -0.0482 N   0  0  0  0  0  0  0  0  0  0  0  0
   -1.6543   -0.4189   -0.4062 H   0  0  0  0  0  0  0  0  0  0  0  0
    0.4237   -0.2649   -0.0462 C   0  0  1  0  0  0  0  0  0  0  0  0
    0.3281    0.6742    0.5012 H   0  0  0  0  0  0  0  0  0  0  0  0
    1.4503   -1.1496    0.6778 C   0  0  0  0  0  0  0  0  0  0  0  0
    1.5607   -2.0984    0.1503 H   0  0  0  0  0  0  0  0  0  0  0  0
    2.4159   -0.6464    0.7156 H   0  0  0  0  0  0  0  0  0  0  0  0
    1.1155   -1.3428    1.6984 H   0  0  0  0  0  0  0  0  0  0  0  0
    0.8760    0.0672   -1.4816 C   0  0  0  0  0  0  0  0  0  0  0  0
    2.0734    0.1274   -1.7601 O   0  0  0  0  0  0  0  0  0  0  0  0
   -0.0858    0.2965   -2.3847 N   0  0  0  0  0  0  0  0  0  0  0  0
   -1.0440    0.2341   -2.0799 H   0  0  0  0  0  0  0  0  0  0  0  0
    0.1714    0.6326   -3.7842 C   0  0  0  0  0  0  0  0  0  0  0  0
    0.8022   -0.1347   -4.2374 H   0  0  0  0  0  0  0  0  0  0  0  0
   -0.7665    0.6987   -4.3375 H   0  0  0  0  0  0  0  0  0  0  0  0
    0.6934    1.5892   -3.8429 H   0  0  0  0  0  0  0  0  0  0  0  0
  5  6  2  0  0  0  0
  5  7  1  0  0  0  0
  2  3  1  0  0  0  0
  2  4  1  0  0  0  0
  2  5  1  0  0  0  0
  1  2  1  0  0  0  0
 15 16  2  0  0  0  0
 15 17  1  0  0  0  0
 11 12  1  0  0  0  0
 11 13  1  0  0  0  0
 11 14  1  0  0  0  0
  9 10  1  0  0  0  0
  9 11  1  0  0  0  0
  9 15  1  0  0  0  0
  7  8  1  0  0  0  0
  7  9  1  0  0  0  0
 19 20  1  0  0  0  0
 19 21  1  0  0  0  0
 19 22  1  0  0  0  0
 17 18  1  0  0  0  0
 17 19  1  0  0  0  0
M  END
$$$$
default_name
  -OEChem-01062215323D

 22 21  0     1  0  0  0  0  0999 V2000
   -2.5423   -3.6749    0.8058 H   0  0  0  0  0  0  0  0  0  0  0  0
   -2.5063   -2.6779    0.3688 C   0  0  0  0  0  0  0  0  0  0  0  0
   -3.1603   -2.0109    0.9268 H   0  0  0  0  0  0  0  0  0  0  0  0
   -2.8193   -2.7229   -0.6722 H   0  0  0  0  0  0  0  0  0  0  0  0
   -1.0873   -2.1629    0.4418 C   0  0  0  0  0  0  0  0  0  0  0  0
   -0.2073   -2.8549    0.9368 O   0  0  0  0  0  0  0  0  0  0  0  0
   -0.8713   -0.9449   -0.0482 N   0  0  0  0  0  0  0  0  0  0  0  0
   -1.6543   -0.4189   -0.4062 H   0  0  0  0  0  0  0  0  0  0  0  0
    0.4237   -0.2649   -0.0462 C   0  0  1  0  0  0  0  0  0  0  0  0
    0.3281    0.6742    0.5012 H   0  0  0  0  0  0  0  0  0  0  0  0
    1.4503   -1.1496    0.6778 C   0  0  0  0  0  0  0  0  0  0  0  0
    1.5607   -2.0984    0.1503 H   0  0  0  0  0  0  0  0  0  0  0  0
    2.4159   -0.6464    0.7156 H   0  0  0  0  0  0  0  0  0  0  0  0
    1.1155   -1.3428    1.6984 H   0  0  0  0  0  0  0  0  0  0  0  0
    0.8760    0.0672   -1.4816 C   0  0  0  0  0  0  0  0  0  0  0  0
    2.0378   -0.1376   -1.8327 O   0  0  0  0  0  0  0  0  0  0  0  0
   -0.0420    0.5936   -2.3021 N   0  0  0  0  0  0  0  0  0  0  0  0
   -0.9714    0.7369   -1.9407 H   0  0  0  0  0  0  0  0  0  0  0  0
    0.2238    0.9732   -3.6889 C   0  0  0  0  0  0  0  0  0  0  0  0
    0.6274    0.1176   -4.2341 H   0  0  0  0  0  0  0  0  0  0  0  0
   -0.6945    1.3071   -4.1741 H   0  0  0  0  0  0  0  0  0  0  0  0
    0.9595    1.7788   -3.7151 H   0  0  0  0  0  0  0  0  0  0  0  0
  5  6  2  0  0  0  0
  5  7  1  0  0  0  0
  2  3  1  0  0  0  0
  2  4  1  0  0  0  0
  2  5  1  0  0  0  0
  1  2  1  0  0  0  0
 15 16  2  0  0  0  0
 15 17  1  0  0  0  0
 11 12  1  0  0  0  0
 11 13  1  0  0  0  0
 11 14  1  0  0  0  0
  9 10  1  0  0  0  0
  9 11  1  0  0  0  0
  9 15  1  0  0  0  0
  7  8  1  0  0  0  0
  7  9  1  0  0  0  0
 19 20  1  0  0  0  0
 19 21  1  0  0  0  0
 19 22  1  0  0  0  0
 17 18  1  0  0  0  0
 17 19  1  0  0  0  0
M  END
$$$$
default_name
  -OEChem-01062215323D

 22 21  0     1  0  0  0  0  0999 V2000
   -2.5423   -3.6749    0.8058 H   0  0  0  0  0  0  0  0  0  0  0  0
   -2.5063   -2.6779    0.3688 C   0  0  0  0  0  0  0  0  0  0  0  0
   -3.1603   -2.0109    0.9268 H   0  0  0  0  0  0  0  0  0  0  0  0
   -2.8193   -2.7229   -0.6722 H   0  0  0  0  0  0  0  0  0  0  0  0
   -1.0873   -2.1629    0.4418 C   0  0  0  0  0  0  0  0  0  0  0  0
   -0.2073   -2.8549    0.9368 O   0  0  0  0  0  0  0  0  0  0  0  0
   -0.8713   -0.9449   -0.0482 N   0  0  0  0  0  0  0  0  0  0  0  0
   -1.6543   -0.4189   -0.4062 H   0  0  0  0  0  0  0  0  0  0  0  0
    0.4237   -0.2649   -0.0462 C   0  0  1  0  0  0  0  0  0  0  0  0
    0.3281    0.6742    0.5012 H   0  0  0  0  0  0  0  0  0  0  0  0
    1.4503   -1.1496    0.6778 C   0  0  0  0  0  0  0  0  0  0  0  0
    1.5607   -2.0984    0.1503 H   0  0  0  0  0  0  0  0  0  0  0  0
    2.4159   -0.6464    0.7156 H   0  0  0  0  0  0  0  0  0  0  0  0
    1.1155   -1.3428    1.6984 H   0  0  0  0  0  0  0  0  0  0  0  0
    0.8760    0.0672   -1.4816 C   0  0  0  0  0  0  0  0  0  0  0  0
    1.9355   -0.3794   -1.9208 O   0  0  0  0  0  0  0  0  0  0  0  0
    0.0765    0.8637   -2.2023 N   0  0  0  0  0  0  0  0  0  0  0  0
   -0.7723    1.1945   -1.7721 H   0  0  0  0  0  0  0  0  0  0  0  0
    0.3619    1.2823   -3.5739 C   0  0  0  0  0  0  0  0  0  0  0  0
    0.5195    0.4033   -4.2020 H   0  0  0  0  0  0  0  0  0  0  0  0
   -0.4691    1.8649   -3.9740 H   0  0  0  0  0  0  0  0  0  0  0  0
    1.2694    1.8882   -3.5922 H   0  0  0  0  0  0  0  0  0  0  0  0
  5  6  2  0  0  0  0
  5  7  1  0  0  0  0
  2  3  1  0  0  0  0
  2  4  1  0  0  0  0
  2  5  1  0  0  0  0
  1  2  1  0  0  0  0
 15 16  2  0  0  0  0
 15 17  1  0  0  0  0
 11 12  1  0  0  0  0
 11 13  1  0  0  0  0
 11 14  1  0  0  0  0
  9 10  1  0  0  0  0
  9 11  1  0  0  0  0
  9 15  1  0  0  0  0
  7  8  1  0  0  0  0
  7  9  1  0  0  0  0
 19 20  1  0  0  0  0
 19 21  1  0  0  0  0
 19 22  1  0  0  0  0
 17 18  1  0  0  0  0
 17 19  1  0  0  0  0
M  END
$$$$
default_name
  -OEChem-01062215323D

 22 21  0     1  0  0  0  0  0999 V2000
   -2.5423   -3.6749    0.8058 H   0  0  0  0  0  0  0  0  0  0  0  0
   -2.5063   -2.6779    0.3688 C   0  0  0  0  0  0  0  0  0  0  0  0
   -3.1603   -2.0109    0.9268 H   0  0  0  0  0  0  0  0  0  0  0  0
   -2.8193   -2.7229   -0.6722 H   0  0  0  0  0  0  0  0  0  0  0  0
   -1.0873   -2.1629    0.4418 C   0  0  0  0  0  0  0  0  0  0  0  0
   -0.2073   -2.8549    0.9368 O   0  0  0  0  0  0  0  0  0  0  0  0
   -0.8713   -0.9449   -0.0482 N   0  0  0  0  0  0  0  0  0  0  0  0
   -1.6543   -0.4189   -0.4062 H   0  0  0  0  0  0  0  0  0  0  0  0
    0.4237   -0.2649   -0.0462 C   0  0  1  0  0  0  0  0  0  0  0  0
    0.3281    0.6742    0.5012 H   0  0  0  0  0  0  0  0  0  0  0  0
    1.4503   -1.1496    0.6778 C   0  0  0  0  0  0  0  0  0  0  0  0
    1.5607   -2.0984    0.1503 H   0  0  0  0  0  0  0  0  0  0  0  0
    2.4159   -0.6464    0.7156 H   0  0  0  0  0  0  0  0  0  0  0  0
    1.1155   -1.3428    1.6984 H   0  0  0  0  0  0  0  0  0  0  0  0
    0.8760    0.0672   -1.4816 C   0  0  0  0  0  0  0  0  0  0  0  0
    1.7735   -0.5817   -2.0187 O   0  0  0  0  0  0  0  0  0  0  0  0
    0.2616    1.0885   -2.0920 N   0  0  0  0  0  0  0  0  0  0  0  0
   -0.4603    1.5757   -1.5855 H   0  0  0  0  0  0  0  0  0  0  0  0
    0.5762    1.5389   -3.4470 C   0  0  0  0  0  0  0  0  0  0  0  0
    0.4859    0.7027   -4.1433 H   0  0  0  0  0  0  0  0  0  0  0  0
   -0.1058    2.3342   -3.7509 H   0  0  0  0  0  0  0  0  0  0  0  0
    1.6020    1.9098   -3.4824 H   0  0  0  0  0  0  0  0  0  0  0  0
  5  6  2  0  0  0  0
  5  7  1  0  0  0  0
  2  3  1  0  0  0  0
  2  4  1  0  0  0  0
  2  5  1  0  0  0  0
  1  2  1  0  0  0  0
 15 16  2  0  0  0  0
 15 17  1  0  0  0  0
 11 12  1  0  0  0  0
 11 13  1  0  0  0  0
 11 14  1  0  0  0  0
  9 10  1  0  0  0  0
  9 11  1  0  0  0  0
  9 15  1  0  0  0  0
  7  8  1  0  0  0  0
  7  9  1  0  0  0  0
 19 20  1  0  0  0  0
 19 21  1  0  0  0  0
 19 22  1  0  0  0  0
 17 18  1  0  0  0  0
 17 19  1  0  0  0  0
M  END
$$$$
default_name
  -OEChem-01062215323D

 22 21  0     1  0  0  0  0  0999 V2000
   -2.5423   -3.6749    0.8058 H   0  0  0  0  0  0  0  0  0  0  0  0
   -2.5063   -2.6779    0.3688 C   0  0  0  0  0  0  0  0  0  0  0  0
   -3.1603   -2.0109    0.9268 H   0  0  0  0  0  0  0  0  0  0  0  0
   -2.8193   -2.7229   -0.6722 H   0  0  0  0  0  0  0  0  0  0  0  0
   -1.0873   -2.1629    0.4418 C   0  0  0  0  0  0  0  0  0  0  0  0
   -0.2073   -2.8549    0.9368 O   0  0  0  0  0  0  0  0  0  0  0  0
   -0.8713   -0.9449   -0.0482 N   0  0  0  0  0  0  0  0  0  0  0  0
   -1.6543   -0.4189   -0.4062 H   0  0  0  0  0  0  0  0  0  0  0  0
    0.4237   -0.2649   -0.0462 C   0  0  1  0  0  0  0  0  0  0  0  0
    0.3281    0.6742    0.5012 H   0  0  0  0  0  0  0  0  0  0  0  0
    1.4503   -1.1496    0.6778 C   0  0  0  0  0  0  0  0  0  0  0  0
    1.5607   -2.0984    0.1503 H   0  0  0  0  0  0  0  0  0  0  0  0
    2.4159   -0.6464    0.7156 H   0  0  0  0  0  0  0  0  0  0  0  0
    1.1155   -1.3428    1.6984 H   0  0  0  0  0  0  0  0  0  0  0  0
    0.8760    0.0672   -1.4816 C   0  0  0  0  0  0  0  0  0  0  0  0
    1.5628   -0.7305   -2.1195 O   0  0  0  0  0  0  0  0  0  0  0  0
    0.5008    1.2526   -1.9786 N   0  0  0  0  0  0  0  0  0  0  0  0
   -0.0567    1.8545   -1.3938 H   0  0  0  0  0  0  0  0  0  0  0  0
    0.8522    1.7254   -3.3169 C   0  0  0  0  0  0  0  0  0  0  0  0
    0.5290    0.9957   -4.0619 H   0  0  0  0  0  0  0  0  0  0  0  0
    0.3707    2.6830   -3.5201 H   0  0  0  0  0  0  0  0  0  0  0  0
    1.9346    1.8421   -3.3933 H   0  0  0  0  0  0  0  0  0  0  0  0
  5  6  2  0  0  0  0
  5  7  1  0  0  0  0
  2  3  1  0  0  0  0
  2  4  1  0  0  0  0
  2  5  1  0  0  0  0
  1  2  1  0  0  0  0
 15 16  2  0  0  0  0
 15 17  1  0  0  0  0
 11 12  1  0  0  0  0
 11 13  1  0  0  0  0
 11 14  1  0  0  0  0
  9 10  1  0  0  0  0
  9 11  1  0  0  0  0
  9 15  1  0  0  0  0
  7  8  1  0  0  0  0
  7  9  1  0  0  0  0
 19 20  1  0  0  0  0
 19 21  1  0  0  0  0
 19 22  1  0  0  0  0
 17 18  1  0  0  0  0
 17 19  1  0  0  0  0
M  END
$$$$
default_name
  -OEChem-01062215323D

 22 21  0     1  0  0  0  0  0999 V2000
   -2.5423   -3.6749    0.8058 H   0  0  0  0  0  0  0  0  0  0  0  0
   -2.5063   -2.6779    0.3688 C   0  0  0  0  0  0  0  0  0  0  0  0
   -3.1603   -2.0109    0.9268 H   0  0  0  0  0  0  0  0  0  0  0  0
   -2.8193   -2.7229   -0.6722 H   0  0  0  0  0  0  0  0  0  0  0  0
   -1.0873   -2.1629    0.4418 C   0  0  0  0  0  0  0  0  0  0  0  0
   -0.2073   -2.8549    0.9368 O   0  0  0  0  0  0  0  0  0  0  0  0
   -0.8713   -0.9449   -0.0482 N   0  0  0  0  0  0  0  0  0  0  0  0
   -1.6543   -0.4189   -0.4062 H   0  0  0  0  0  0  0  0  0  0  0  0
    0.4237   -0.2649   -0.0462 C   0  0  1  0  0  0  0  0  0  0  0  0
    0.3281    0.6742    0.5012 H   0  0  0  0  0  0  0  0  0  0  0  0
    1.4503   -1.1496    0.6778 C   0  0  0  0  0  0  0  0  0  0  0  0
    1.5607   -2.0984    0.1503 H   0  0  0  0  0  0  0  0  0  0  0  0
    2.4159   -0.6464    0.7156 H   0  0  0  0  0  0  0  0  0  0  0  0
    1.1155   -1.3428    1.6984 H   0  0  0  0  0  0  0  0  0  0  0  0
    0.8760    0.0672   -1.4816 C   0  0  0  0  0  0  0  0  0  0  0  0
    1.3177   -0.8158   -2.2165 O   0  0  0  0  0  0  0  0  0  0  0  0
    0.7777    1.3449   -1.8700 N   0  0  0  0  0  0  0  0  0  0  0  0
    0.4111    2.0120   -1.2100 H   0  0  0  0  0  0  0  0  0  0  0  0
    1.1709    1.8291   -3.1924 C   0  0  0  0  0  0  0  0  0  0  0  0
    0.6457    1.2620   -3.9635 H   0  0  0  0  0  0  0  0  0  0  0  0
    0.9279    2.8875   -3.2972 H   0  0  0  0  0  0  0  0  0  0  0  0
    2.2445    1.6898   -3.3308 H   0  0  0  0  0  0  0  0  0  0  0  0
  5  6  2  0  0  0  0
  5  7  1  0  0  0  0
  2  3  1  0  0  0  0
  2  4  1  0  0  0  0
  2  5  1  0  0  0  0
  1  2  1  0  0  0  0
 15 16  2  0  0  0  0
 15 17  1  0  0  0  0
 11 12  1  0  0  0  0
 11 13  1  0  0  0  0
 11 14  1  0  0  0  0
  9 10  1  0  0  0  0
  9 11  1  0  0  0  0
  9 15  1  0  0  0  0
  7  8  1  0  0  0  0
  7  9  1  0  0  0  0
 19 20  1  0  0  0  0
 19 21  1  0  0  0  0
 19 22  1  0  0  0  0
 17 18  1  0  0  0  0
 17 19  1  0  0  0  0
M  END
$$$$
default_name
  -OEChem-01062215323D

 22 21  0     1  0  0  0  0  0999 V2000
   -2.5423   -3.6749    0.8058 H   0  0  0  0  0  0  0  0  0  0  0  0
   -2.5063   -2.6779    0.3688 C   0  0  0  0  0  0  0  0  0  0  0  0
   -3.1603   -2.0109    0.9268 H   0  0  0  0  0  0  0  0  0  0  0  0
   -2.8193   -2.7229   -0.6722 H   0  0  0  0  0  0  0  0  0  0  0  0
   -1.0873   -2.1629    0.4418 C   0  0  0  0  0  0  0  0  0  0  0  0
   -0.2073   -2.8549    0.9368 O   0  0  0  0  0  0  0  0  0  0  0  0
   -0.8713   -0.9449   -0.0482 N   0  0  0  0  0  0  0  0  0  0  0  0
   -1.6543   -0.4189   -0.4062 H   0  0  0  0  0  0  0  0  0  0  0  0
    0.4237   -0.2649   -0.0462 C   0  0  1  0  0  0  0  0  0  0  0  0
    0.3281    0.6742    0.5012 H   0  0  0  0  0  0  0  0  0  0  0  0
    1.4503   -1.1496    0.6778 C   0  0  0  0  0  0  0  0  0  0  0  0
    1.5607   -2.0984    0.1503 H   0  0  0  0  0  0  0  0  0  0  0  0
    2.4159   -0.6464    0.7156 H   0  0  0  0  0  0  0  0  0  0  0  0
    1.1155   -1.3428    1.6984 H   0  0  0  0  0  0  0  0  0  0  0  0
    0.8760    0.0672   -1.4816 C   0  0  0  0  0  0  0  0  0  0  0  0
    1.0551   -0.8318   -2.3029 O   0  0  0  0  0  0  0  0  0  0  0  0
    1.0734    1.3591   -1.7735 N   0  0  0  0  0  0  0  0  0  0  0  0
    0.9112    2.0374   -1.0465 H   0  0  0  0  0  0  0  0  0  0  0  0
    1.5108    1.8431   -3.0821 C   0  0  0  0  0  0  0  0  0  0  0  0
    0.8282    1.4837   -3.8547 H   0  0  0  0  0  0  0  0  0  0  0  0
    1.5278    2.9338   -3.0974 H   0  0  0  0  0  0  0  0  0  0  0  0
    2.5106    1.4633   -3.2994 H   0  0  0  0  0  0  0  0  0  0  0  0
  5  6  2  0  0  0  0
  5  7  1  0  0  0  0
  2  3  1  0  0  0  0
  2  4  1  0  0  0  0
  2  5  1  0  0  0  0
  1  2  1  0  0  0  0
 15 16  2  0  0  0  0
 15 17  1  0  0  0  0
 11 12  1  0  0  0  0
 11 13  1  0  0  0  0
 11 14  1  0  0  0  0
  9 10  1  0  0  0  0
  9 11  1  0  0  0  0
  9 15  1  0  0  0  0
  7  8  1  0  0  0  0
  7  9  1  0  0  0  0
 19 20  1  0  0  0  0
 19 21  1  0  0  0  0
 19 22  1  0  0  0  0
 17 18  1  0  0  0  0
 17 19  1  0  0  0  0
M  END
$$$$
default_name
  -OEChem-01062215323D

 22 21  0     1  0  0  0  0  0999 V2000
   -2.5423   -3.6749    0.8058 H   0  0  0  0  0  0  0  0  0  0  0  0
   -2.5063   -2.6779    0.3688 C   0  0  0  0  0  0  0  0  0  0  0  0
   -3.1603   -2.0109    0.9268 H   0  0  0  0  0  0  0  0  0  0  0  0
   -2.8193   -2.7229   -0.6722 H   0  0  0  0  0  0  0  0  0  0  0  0
   -1.0873   -2.1629    0.4418 C   0  0  0  0  0  0  0  0  0  0  0  0
   -0.2073   -2.8549    0.9368 O   0  0  0  0  0  0  0  0  0  0  0  0
   -0.8713   -0.9449   -0.0482 N   0  0  0  0  0  0  0  0  0  0  0  0
   -1.6543   -0.4189   -0.4062 H   0  0  0  0  0  0  0  0  0  0  0  0
    0.4237   -0.2649   -0.0462 C   0  0  1  0  0  0  0  0  0  0  0  0
    0.3281    0.6742    0.5012 H   0  0  0  0  0  0  0  0  0  0  0  0
    1.4503   -1.1496    0.6778 C   0  0  0  0  0  0  0  0  0  0  0  0
    1.5607   -2.0984    0.1503 H   0  0  0  0  0  0  0  0  0  0  0  0
    2.4159   -0.6464    0.7156 H   0  0  0  0  0  0  0  0  0  0  0  0
    1.1155   -1.3428    1.6984 H   0  0  0  0  0  0  0  0  0  0  0  0
    0.8760    0.0672   -1.4816 C   0  0  0  0  0  0  0  0  0  0  0  0
    0.7927   -0.7774   -2.3730 O   0  0  0  0  0  0  0  0  0  0  0  0
    1.3679    1.2941   -1.6958 N   0  0  0  0  0  0  0  0  0  0  0  0
    1.4095    1.9289   -0.9146 H   0  0  0  0  0  0  0  0  0  0  0  0
    1.8486    1.7663   -2.9935 C   0  0  0  0  0  0  0  0  0  0  0  0
    1.0639    1.6456   -3.7430 H   0  0  0  0  0  0  0  0  0  0  0  0
    2.1296    2.8187   -2.9344 H   0  0  0  0  0  0  0  0  0  0  0  0
    2.7148    1.1779   -3.3011 H   0  0  0  0  0  0  0  0  0  0  0  0
  5  6  2  0  0  0  0
  5  7  1  0  0  0  0
  2  3  1  0  0  0  0
  2  4  1  0  0  0  0
  2  5  1  0  0  0  0
  1  2  1  0  0  0  0
 15 16  2  0  0  0  0
 15 17  1  0  0  0  0
 11 12  1  0  0  0  0
 11 13  1  0  0  0  0
 11 14  1  0  0  0  0
  9 10  1  0  0  0  0
  9 11  1  0  0  0  0
  9 15  1  0  0  0  0
  7  8  1  0  0  0  0
  7  9  1  0  0  0  0
 19 20  1  0  0  0  0
 19 21  1  0  0  0  0
 19 22  1  0  0  0  0
 17 18  1  0  0  0  0
 17 19  1  0  0  0  0
M  END
$$$$
default_name
  -OEChem-01062215323D

 22 21  0     1  0  0  0  0  0999 V2000
   -2.5423   -3.6749    0.8058 H   0  0  0  0  0  0  0  0  0  0  0  0
   -2.5063   -2.6779    0.3688 C   0  0  0  0  0  0  0  0  0  0  0  0
   -3.1603   -2.0109    0.9268 H   0  0  0  0  0  0  0  0  0  0  0  0
   -2.8193   -2.7229   -0.6722 H   0  0  0  0  0  0  0  0  0  0  0  0
   -1.0873   -2.1629    0.4418 C   0  0  0  0  0  0  0  0  0  0  0  0
   -0.2073   -2.8549    0.9368 O   0  0  0  0  0  0  0  0  0  0  0  0
   -0.8713   -0.9449   -0.0482 N   0  0  0  0  0  0  0  0  0  0  0  0
   -1.6543   -0.4189   -0.4062 H   0  0  0  0  0  0  0  0  0  0  0  0
    0.4237   -0.2649   -0.0462 C   0  0  1  0  0  0  0  0  0  0  0  0
    0.3281    0.6742    0.5012 H   0  0  0  0  0  0  0  0  0  0  0  0
    1.4503   -1.1496    0.6778 C   0  0  0  0  0  0  0  0  0  0  0  0
    1.5607   -2.0984    0.1503 H   0  0  0  0  0  0  0  0  0  0  0  0
    2.4159   -0.6464    0.7156 H   0  0  0  0  0  0  0  0  0  0  0  0
    1.1155   -1.3428    1.6984 H   0  0  0  0  0  0  0  0  0  0  0  0
    0.8760    0.0672   -1.4816 C   0  0  0  0  0  0  0  0  0  0  0  0
    0.5484   -0.6562   -2.4219 O   0  0  0  0  0  0  0  0  0  0  0  0
    1.6410    1.1545   -1.6420 N   0  0  0  0  0  0  0  0  0  0  0  0
    1.8720    1.6941   -0.8232 H   0  0  0  0  0  0  0  0  0  0  0  0
    2.1613    1.6039   -2.9325 C   0  0  0  0  0  0  0  0  0  0  0  0
    1.3369    1.7367   -3.6359 H   0  0  0  0  0  0  0  0  0  0  0  0
    2.6923    2.5501   -2.8193 H   0  0  0  0  0  0  0  0  0  0  0  0
    2.8431    0.8532   -3.3358 H   0  0  0  0  0  0  0  0  0  0  0  0
  5  6  2  0  0  0  0
  5  7  1  0  0  0  0
  2  3  1  0  0  0  0
  2  4  1  0  0  0  0
  2  5  1  0  0  0  0
  1  2  1  0  0  0  0
 15 16  2  0  0  0  0
 15 17  1  0  0  0  0
 11 12  1  0  0  0  0
 11 13  1  0  0  0  0
 11 14  1  0  0  0  0
  9 10  1  0  0  0  0
  9 11  1  0  0  0  0
  9 15  1  0  0  0  0
  7  8  1  0  0  0  0
  7  9  1  0  0  0  0
 19 20  1  0  0  0  0
 19 21  1  0  0  0  0
 19 22  1  0  0  0  0
 17 18  1  0  0  0  0
 17 19  1  0  0  0  0
M  END
$$$$
default_name
  -OEChem-01062215323D

 22 21  0     1  0  0  0  0  0999 V2000
   -2.5423   -3.6749    0.8058 H   0  0  0  0  0  0  0  0  0  0  0  0
   -2.5063   -2.6779    0.3688 C   0  0  0  0  0  0  0  0  0  0  0  0
   -3.1603   -2.0109    0.9268 H   0  0  0  0  0  0  0  0  0  0  0  0
   -2.8193   -2.7229   -0.6722 H   0  0  0  0  0  0  0  0  0  0  0  0
   -1.0873   -2.1629    0.4418 C   0  0  0  0  0  0  0  0  0  0  0  0
   -0.2073   -2.8549    0.9368 O   0  0  0  0  0  0  0  0  0  0  0  0
   -0.8713   -0.9449   -0.0482 N   0  0  0  0  0  0  0  0  0  0  0  0
   -1.6543   -0.4189   -0.4062 H   0  0  0  0  0  0  0  0  0  0  0  0
    0.4237   -0.2649   -0.0462 C   0  0  1  0  0  0  0  0  0  0  0  0
    0.3281    0.6742    0.5012 H   0  0  0  0  0  0  0  0  0  0  0  0
    1.4503   -1.1496    0.6778 C   0  0  0  0  0  0  0  0  0  0  0  0
    1.5607   -2.0984    0.1503 H   0  0  0  0  0  0  0  0  0  0  0  0
    2.4159   -0.6464    0.7156 H   0  0  0  0  0  0  0  0  0  0  0  0
    1.1155   -1.3428    1.6984 H   0  0  0  0  0  0  0  0  0  0  0  0
    0.8760    0.0672   -1.4816 C   0  0  0  0  0  0  0  0  0  0  0  0
    0.3390   -0.4766   -2.4464 O   0  0  0  0  0  0  0  0  0  0  0  0
    1.8742    0.9496   -1.6160 N   0  0  0  0  0  0  0  0  0  0  0  0
    2.2673    1.3487   -0.7786 H   0  0  0  0  0  0  0  0  0  0  0  0
    2.4276    1.3670   -2.9034 C   0  0  0  0  0  0  0  0  0  0  0  0
    1.6284    1.7507   -3.5408 H   0  0  0  0  0  0  0  0  0  0  0  0
    3.1774    2.1463   -2.7599 H   0  0  0  0  0  0  0  0  0  0  0  0
    2.8869    0.5113   -3.4011 H   0  0  0  0  0  0  0  0  0  0  0  0
  5  6  2  0  0  0  0
  5  7  1  0  0  0  0
  2  3  1  0  0  0  0
  2  4  1  0  0  0  0
  2  5  1  0  0  0  0
  1  2  1  0  0  0  0
 15 16  2  0  0  0  0
 15 17  1  0  0  0  0
 11 12  1  0  0  0  0
 11 13  1  0  0  0  0
 11 14  1  0  0  0  0
  9 10  1  0  0  0  0
  9 11  1  0  0  0  0
  9 15  1  0  0  0  0
  7  8  1  0  0  0  0
  7  9  1  0  0  0  0
 19 20  1  0  0  0  0
 19 21  1  0  0  0  0
 19 22  1  0  0  0  0
 17 18  1  0  0  0  0
 17 19  1  0  0  0  0
M  END
$$$$
default_name
  -OEChem-01062215323D

 22 21  0     1  0  0  0  0  0999 V2000
   -2.5423   -3.6749    0.8058 H   0  0  0  0  0  0  0  0  0  0  0  0
   -2.5063   -2.6779    0.3688 C   0  0  0  0  0  0  0  0  0  0  0  0
   -3.1603   -2.0109    0.9268 H   0  0  0  0  0  0  0  0  0  0  0  0
   -2.8193   -2.7229   -0.6722 H   0  0  0  0  0  0  0  0  0  0  0  0
   -1.0873   -2.1629    0.4418 C   0  0  0  0  0  0  0  0  0  0  0  0
   -0.2073   -2.8549    0.9368 O   0  0  0  0  0  0  0  0  0  0  0  0
   -0.8713   -0.9449   -0.0482 N   0  0  0  0  0  0  0  0  0  0  0  0
   -1.6543   -0.4189   -0.4062 H   0  0  0  0  0  0  0  0  0  0  0  0
    0.4237   -0.2649   -0.0462 C   0  0  1  0  0  0  0  0  0  0  0  0
    0.4075    0.5223    0.7093 H   0  0  0  0  0  0  0  0  0  0  0  0
    1.5178   -1.2771    0.3269 C   0  0  0  0  0  0  0  0  0  0  0  0
    1.5509   -2.0781   -0.4134 H   0  0  0  0  0  0  0  0  0  0  0  0
    2.4877   -0.7821    0.3626 H   0  0  0  0  0  0  0  0  0  0  0  0
    1.3057   -1.7038    1.3087 H   0  0  0  0  0  0  0  0  0  0  0  0
    0.7045    0.3937   -1.4110 C   0  0  0  0  0  0  0  0  0  0  0  0
   -0.1081    0.2949   -2.3302 O   0  0  0  0  0  0  0  0  0  0  0  0
    1.8632    1.0519   -1.5419 N   0  0  0  0  0  0  0  0  0  0  0  0
    2.4799    1.0848   -0.7458 H   0  0  0  0  0  0  0  0  0  0  0  0
    2.2869    1.7236   -2.7695 C   0  0  0  0  0  0  0  0  0  0  0  0
    1.5230    2.4392   -3.0802 H   0  0  0  0  0  0  0  0  0  0  0  0
    3.2283    2.2508   -2.6086 H   0  0  0  0  0  0  0  0  0  0  0  0
    2.4164    0.9881   -3.5653 H   0  0  0  0  0  0  0  0  0  0  0  0
  5  6  2  0  0  0  0
  5  7  1  0  0  0  0
  2  3  1  0  0  0  0
  2  4  1  0  0  0  0
  2  5  1  0  0  0  0
  1  2  1  0  0  0  0
 15 16  2  0  0  0  0
 15 17  1  0  0  0  0
 11 12  1  0  0  0  0
 11 13  1  0  0  0  0
 11 14  1  0  0  0  0
  9 10  1  0  0  0  0
  9 11  1  0  0  0  0
  9 15  1  0  0  0  0
  7  8  1  0  0  0  0
  7  9  1  0  0  0  0
 19 20  1  0  0  0  0
 19 21  1  0  0  0  0
 19 22  1  0  0  0  0
 17 18  1  0  0  0  0
 17 19  1  0  0  0  0
M  END
$$$$
default_name
  -OEChem-01062215323D

 22 21  0     1  0  0  0  0  0999 V2000
   -2.5423   -3.6749    0.8058 H   0  0  0  0  0  0  0  0  0  0  0  0
   -2.5063   -2.6779    0.3688 C   0  0  0  0  0  0  0  0  0  0  0  0
   -3.1603   -2.0109    0.9268 H   0  0  0  0  0  0  0  0  0  0  0  0
   -2.8193   -2.7229   -0.6722 H   0  0  0  0  0  0  0  0  0  0  0  0
   -1.0873   -2.1629    0.4418 C   0  0  0  0  0  0  0  0  0  0  0  0
   -0.2073   -2.8549    0.9368 O   0  0  0  0  0  0  0  0  0  0  0  0
   -0.8713   -0.9449   -0.0482 N   0  0  0  0  0  0  0  0  0  0  0  0
   -1.6543   -0.4189   -0.4062 H   0  0  0  0  0  0  0  0  0  0  0  0
    0.4237   -0.2649   -0.0462 C   0  0  1  0  0  0  0  0  0  0  0  0
    0.4075    0.5223    0.7093 H   0  0  0  0  0  0  0  0  0  0  0  0
    1.5178   -1.2771    0.3269 C   0  0  0  0  0  0  0  0  0  0  0  0
    1.5509   -2.0781   -0.4134 H   0  0  0  0  0  0  0  0  0  0  0  0
    2.4877   -0.7821    0.3626 H   0  0  0  0  0  0  0  0  0  0  0  0
    1.3057   -1.7038    1.3087 H   0  0  0  0  0  0  0  0  0  0  0  0
    0.7045    0.3937   -1.4110 C   0  0  0  0  0  0  0  0  0  0  0  0
   -0.2008    0.5369   -2.2325 O   0  0  0  0  0  0  0  0  0  0  0  0
    1.9639    0.7789   -1.6529 N   0  0  0  0  0  0  0  0  0  0  0  0
    2.6515    0.6234   -0.9332 H   0  0  0  0  0  0  0  0  0  0  0  0
    2.4003    1.4096   -2.8977 C   0  0  0  0  0  0  0  0  0  0  0  0
    1.7949    2.2970   -3.0929 H   0  0  0  0  0  0  0  0  0  0  0  0
    3.4498    1.6993   -2.8293 H   0  0  0  0  0  0  0  0  0  0  0  0
    2.2714    0.7130   -3.7279 H   0  0  0  0  0  0  0  0  0  0  0  0
  5  6  2  0  0  0  0
  5  7  1  0  0  0  0
  2  3  1  0  0  0  0
  2  4  1  0  0  0  0
  2  5  1  0  0  0  0
  1  2  1  0  0  0  0
 15 16  2  0  0  0  0
 15 17  1  0  0  0  0
 11 12  1  0  0  0  0
 11 13  1  0  0  0  0
 11 14  1  0  0  0  0
  9 10  1  0  0  0  0
  9 11  1  0  0  0  0
  9 15  1  0  0  0  0
  7  8  1  0  0  0  0
  7  9  1  0  0  0  0
 19 20  1  0  0  0  0
 19 21  1  0  0  0  0
 19 22  1  0  0  0  0
 17 18  1  0  0  0  0
 17 19  1  0  0  0  0
M  END
$$$$
default_name
  -OEChem-01062215323D

 22 21  0     1  0  0  0  0  0999 V2000
   -2.5423   -3.6749    0.8058 H   0  0  0  0  0  0  0  0  0  0  0  0
   -2.5063   -2.6779    0.3688 C   0  0  0  0  0  0  0  0  0  0  0  0
   -3.1603   -2.0109    0.9268 H   0  0  0  0  0  0  0  0  0  0  0  0
   -2.8193   -2.7229   -0.6722 H   0  0  0  0  0  0  0  0  0  0  0  0
   -1.0873   -2.1629    0.4418 C   0  0  0  0  0  0  0  0  0  0  0  0
   -0.2073   -2.8549    0.9368 O   0  0  0  0  0  0  0  0  0  0  0  0
   -0.8713   -0.9449   -0.0482 N   0  0  0  0  0  0  0  0  0  0  0  0
   -1.6543   -0.4189   -0.4062 H   0  0  0  0  0  0  0  0  0  0  0  0
    0.4237   -0.2649   -0.0462 C   0  0  1  0  0  0  0  0  0  0  0  0
    0.4075    0.5223    0.7093 H   0  0  0  0  0  0  0  0  0  0  0  0
    1.5178   -1.2771    0.3269 C   0  0  0  0  0  0  0  0  0  0  0  0
    1.5509   -2.0781   -0.4134 H   0  0  0  0  0  0  0  0  0  0  0  0
    2.4877   -0.7821    0.3626 H   0  0  0  0  0  0  0  0  0  0  0  0
    1.3057   -1.7038    1.3087 H   0  0  0  0  0  0  0  0  0  0  0  0
    0.7045    0.3937   -1.4110 C   0  0  0  0  0  0  0  0  0  0  0  0
   -0.2242    0.7873   -2.1164 O   0  0  0  0  0  0  0  0  0  0  0  0
    1.9863    0.4974   -1.7842 N   0  0  0  0  0  0  0  0  0  0  0  0
    2.6909    0.1472   -1.1549 H   0  0  0  0  0  0  0  0  0  0  0  0
    2.4237    1.0864   -3.0489 C   0  0  0  0  0  0  0  0  0  0  0  0
    2.0234    2.0980   -3.1420 H   0  0  0  0  0  0  0  0  0  0  0  0
    3.5130    1.1261   -3.0929 H   0  0  0  0  0  0  0  0  0  0  0  0
    2.0503    0.4882   -3.8819 H   0  0  0  0  0  0  0  0  0  0  0  0
  5  6  2  0  0  0  0
  5  7  1  0  0  0  0
  2  3  1  0  0  0  0
  2  4  1  0  0  0  0
  2  5  1  0  0  0  0
  1  2  1  0  0  0  0
 15 16  2  0  0  0  0
 15 17  1  0  0  0  0
 11 12  1  0  0  0  0
 11 13  1  0  0  0  0
 11 14  1  0  0  0  0
  9 10  1  0  0  0  0
  9 11  1  0  0  0  0
  9 15  1  0  0  0  0
  7  8  1  0  0  0  0
  7  9  1  0  0  0  0
 19 20  1  0  0  0  0
 19 21  1  0  0  0  0
 19 22  1  0  0  0  0
 17 18  1  0  0  0  0
 17 19  1  0  0  0  0
M  END
$$$$
default_name
  -OEChem-01062215323D

 22 21  0     1  0  0  0  0  0999 V2000
   -2.5423   -3.6749    0.8058 H   0  0  0  0  0  0  0  0  0  0  0  0
   -2.5063   -2.6779    0.3688 C   0  0  0  0  0  0  0  0  0  0  0  0
   -3.1603   -2.0109    0.9268 H   0  0  0  0  0  0  0  0  0  0  0  0
   -2.8193   -2.7229   -0.6722 H   0  0  0  0  0  0  0  0  0  0  0  0
   -1.0873   -2.1629    0.4418 C   0  0  0  0  0  0  0  0  0  0  0  0
   -0.2073   -2.8549    0.9368 O   0  0  0  0  0  0  0  0  0  0  0  0
   -0.8713   -0.9449   -0.0482 N   0  0  0  0  0  0  0  0  0  0  0  0
   -1.6543   -0.4189   -0.4062 H   0  0  0  0  0  0  0  0  0  0  0  0
    0.4237   -0.2649   -0.0462 C   0  0  1  0  0  0  0  0  0  0  0  0
    0.4075    0.5223    0.7093 H   0  0  0  0  0  0  0  0  0  0  0  0
    1.5178   -1.2771    0.3269 C   0  0  0  0  0  0  0  0  0  0  0  0
    1.5509   -2.0781   -0.4134 H   0  0  0  0  0  0  0  0  0  0  0  0
    2.4877   -0.7821    0.3626 H   0  0  0  0  0  0  0  0  0  0  0  0
    1.3057   -1.7038    1.3087 H   0  0  0  0  0  0  0  0  0  0  0  0
    0.7045    0.3937   -1.4110 C   0  0  0  0  0  0  0  0  0  0  0  0
   -0.1765    1.0291   -1.9900 O   0  0  0  0  0  0  0  0  0  0  0  0
    1.9289    0.2265   -1.9267 N   0  0  0  0  0  0  0  0  0  0  0  0
    2.5952   -0.3113   -1.3959 H   0  0  0  0  0  0  0  0  0  0  0  0
    2.3555    0.7760   -3.2127 C   0  0  0  0  0  0  0  0  0  0  0  0
    2.1931    1.8556   -3.2240 H   0  0  0  0  0  0  0  0  0  0  0  0
    3.4135    0.5705   -3.3815 H   0  0  0  0  0  0  0  0  0  0  0  0
    1.7681    0.3291   -4.0167 H   0  0  0  0  0  0  0  0  0  0  0  0
  5  6  2  0  0  0  0
  5  7  1  0  0  0  0
  2  3  1  0  0  0  0
  2  4  1  0  0  0  0
  2  5  1  0  0  0  0
  1  2  1  0  0  0  0
 15 16  2  0  0  0  0
 15 17  1  0  0  0  0
 11 12  1  0  0  0  0
 11 13  1  0  0  0  0
 11 14  1  0  0  0  0
  9 10  1  0  0  0  0
  9 11  1  0  0  0  0
  9 15  1  0  0  0  0
  7  8  1  0  0  0  0
  7  9  1  0  0  0  0
 19 20  1  0  0  0  0
 19 21  1  0  0  0  0
 19 22  1  0  0  0  0
 17 18  1  0  0  0  0
 17 19  1  0  0  0  0
M  END
$$$$
default_name
  -OEChem-01062215323D

 22 21  0     1  0  0  0  0  0999 V2000
   -2.5423   -3.6749    0.8058 H   0  0  0  0  0  0  0  0  0  0  0  0
   -2.5063   -2.6779    0.3688 C   0  0  0  0  0  0  0  0  0  0  0  0
   -3.1603   -2.0109    0.9268 H   0  0  0  0  0  0  0  0  0  0  0  0
   -2.8193   -2.7229   -0.6722 H   0  0  0  0  0  0  0  0  0  0  0  0
   -1.0873   -2.1629    0.4418 C   0  0  0  0  0  0  0  0  0  0  0  0
   -0.2073   -2.8549    0.9368 O   0  0  0  0  0  0  0  0  0  0  0  0
   -0.8713   -0.9449   -0.0482 N   0  0  0  0  0  0  0  0  0  0  0  0
   -1.6543   -0.4189   -0.4062 H   0  0  0  0  0  0  0  0  0  0  0  0
    0.4237   -0.2649   -0.0462 C   0  0  1  0  0  0  0  0  0  0  0  0
    0.4075    0.5223    0.7093 H   0  0  0  0  0  0  0  0  0  0  0  0
    1.5178   -1.2771    0.3269 C   0  0  0  0  0  0  0  0  0  0  0  0
    1.5509   -2.0781   -0.4134 H   0  0  0  0  0  0  0  0  0  0  0  0
    2.4877   -0.7821    0.3626 H   0  0  0  0  0  0  0  0  0  0  0  0
    1.3057   -1.7038    1.3087 H   0  0  0  0  0  0  0  0  0  0  0  0
    0.7045    0.3937   -1.4110 C   0  0  0  0  0  0  0  0  0  0  0  0
   -0.0610    1.2457   -1.8617 O   0  0  0  0  0  0  0  0  0  0  0  0
    1.7955   -0.0153   -2.0708 N   0  0  0  0  0  0  0  0  0  0  0  0
    2.3710   -0.7209   -1.6396 H   0  0  0  0  0  0  0  0  0  0  0  0
    2.2003    0.4995   -3.3781 C   0  0  0  0  0  0  0  0  0  0  0  0
    2.2925    1.5865   -3.3335 H   0  0  0  0  0  0  0  0  0  0  0  0
    3.1581    0.0701   -3.6755 H   0  0  0  0  0  0  0  0  0  0  0  0
    1.4442    0.2464   -4.1232 H   0  0  0  0  0  0  0  0  0  0  0  0
  5  6  2  0  0  0  0
  5  7  1  0  0  0  0
  2  3  1  0  0  0  0
  2  4  1  0  0  0  0
  2  5  1  0  0  0  0
  1  2  1  0  0  0  0
 15 16  2  0  0  0  0
 15 17  1  0  0  0  0
 11 12  1  0  0  0  0
 11 13  1  0  0  0  0
 11 14  1  0  0  0  0
  9 10  1  0  0  0  0
  9 11  1  0  0  0  0
  9 15  1  0  0  0  0
  7  8  1  0  0  0  0
  7  9  1  0  0  0  0
 19 20  1  0  0  0  0
 19 21  1  0  0  0  0
 19 22  1  0  0  0  0
 17 18  1  0  0  0  0
 17 19  1  0  0  0  0
M  END
$$$$
default_name
  -OEChem-01062215323D

 22 21  0     1  0  0  0  0  0999 V2000
   -2.5423   -3.6749    0.8058 H   0  0  0  0  0  0  0  0  0  0  0  0
   -2.5063   -2.6779    0.3688 C   0  0  0  0  0  0  0  0  0  0  0  0
   -3.1603   -2.0109    0.9268 H   0  0  0  0  0  0  0  0  0  0  0  0
   -2.8193   -2.7229   -0.6722 H   0  0  0  0  0  0  0  0  0  0  0  0
   -1.0873   -2.1629    0.4418 C   0  0  0  0  0  0  0  0  0  0  0  0
   -0.2073   -2.8549    0.9368 O   0  0  0  0  0  0  0  0  0  0  0  0
   -0.8713   -0.9449   -0.0482 N   0  0  0  0  0  0  0  0  0  0  0  0
   -1.6543   -0.4189   -0.4062 H   0  0  0  0  0  0  0  0  0  0  0  0
    0.4237   -0.2649   -0.0462 C   0  0  1  0  0  0  0  0  0  0  0  0
    0.4075    0.5223    0.7093 H   0  0  0  0  0  0  0  0  0  0  0  0
    1.5178   -1.2771    0.3269 C   0  0  0  0  0  0  0  0  0  0  0  0
    1.5509   -2.0781   -0.4134 H   0  0  0  0  0  0  0  0  0  0  0  0
    2.4877   -0.7821    0.3626 H   0  0  0  0  0  0  0  0  0  0  0  0
    1.3057   -1.7038    1.3087 H   0  0  0  0  0  0  0  0  0  0  0  0
    0.7045    0.3937   -1.4110 C   0  0  0  0  0  0  0  0  0  0  0  0
    0.1144    1.4224   -1.7403 O   0  0  0  0  0  0  0  0  0  0  0  0
    1.5954   -0.2114   -2.2066 N   0  0  0  0  0  0  0  0  0  0  0  0
    2.0337   -1.0537   -1.8696 H   0  0  0  0  0  0  0  0  0  0  0  0
    1.9688    0.2758   -3.5337 C   0  0  0  0  0  0  0  0  0  0  0  0
    2.3146    1.3090   -3.4629 H   0  0  0  0  0  0  0  0  0  0  0  0
    2.7642   -0.3407   -3.9548 H   0  0  0  0  0  0  0  0  0  0  0  0
    1.1006    0.2457   -4.1942 H   0  0  0  0  0  0  0  0  0  0  0  0
  5  6  2  0  0  0  0
  5  7  1  0  0  0  0
  2  3  1  0  0  0  0
  2  4  1  0  0  0  0
  2  5  1  0  0  0  0
  1  2  1  0  0  0  0
 15 16  2  0  0  0  0
 15 17  1  0  0  0  0
 11 12  1  0  0  0  0
 11 13  1  0  0  0  0
 11 14  1  0  0  0  0
  9 10  1  0  0  0  0
  9 11  1  0  0  0  0
  9 15  1  0  0  0  0
  7  8  1  0  0  0  0
  7  9  1  0  0  0  0
 19 20  1  0  0  0  0
 19 21  1  0  0  0  0
 19 22  1  0  0  0  0
 17 18  1  0  0  0  0
 17 19  1  0  0  0  0
M  END
$$$$
default_name
  -OEChem-01062215323D

 22 21  0     1  0  0  0  0  0999 V2000
   -2.5423   -3.6749    0.8058 H   0  0  0  0  0  0  0  0  0  0  0  0
   -2.5063   -2.6779    0.3688 C   0  0  0  0  0  0  0  0  0  0  0  0
   -3.1603   -2.0109    0.9268 H   0  0  0  0  0  0  0  0  0  0  0  0
   -2.8193   -2.7229   -0.6722 H   0  0  0  0  0  0  0  0  0  0  0  0
   -1.0873   -2.1629    0.4418 C   0  0  0  0  0  0  0  0  0  0  0  0
   -0.2073   -2.8549    0.9368 O   0  0  0  0  0  0  0  0  0  0  0  0
   -0.8713   -0.9449   -0.0482 N   0  0  0  0  0  0  0  0  0  0  0  0
   -1.6543   -0.4189   -0.4062 H   0  0  0  0  0  0  0  0  0  0  0  0
    0.4237   -0.2649   -0.0462 C   0  0  1  0  0  0  0  0  0  0  0  0
    0.4075    0.5223    0.7093 H   0  0  0  0  0  0  0  0  0  0  0  0
    1.5178   -1.2771    0.3269 C   0  0  0  0  0  0  0  0  0  0  0  0
    1.5509   -2.0781   -0.4134 H   0  0  0  0  0  0  0  0  0  0  0  0
    2.4877   -0.7821    0.3626 H   0  0  0  0  0  0  0  0  0  0  0  0
    1.3057   -1.7038    1.3087 H   0  0  0  0  0  0  0  0  0  0  0  0
    0.7045    0.3937   -1.4110 C   0  0  0  0  0  0  0  0  0  0  0  0
    0.3377    1.5472   -1.6341 O   0  0  0  0  0  0  0  0  0  0  0  0
    1.3421   -0.3487   -2.3249 N   0  0  0  0  0  0  0  0  0  0  0  0
    1.6061   -1.2870   -2.0702 H   0  0  0  0  0  0  0  0  0  0  0  0
    1.6767    0.1201   -3.6689 C   0  0  0  0  0  0  0  0  0  0  0  0
    2.2581    1.0419   -3.6034 H   0  0  0  0  0  0  0  0  0  0  0  0
    2.2586   -0.6342   -4.2004 H   0  0  0  0  0  0  0  0  0  0  0  0
    0.7606    0.3272   -4.2248 H   0  0  0  0  0  0  0  0  0  0  0  0
  5  6  2  0  0  0  0
  5  7  1  0  0  0  0
  2  3  1  0  0  0  0
  2  4  1  0  0  0  0
  2  5  1  0  0  0  0
  1  2  1  0  0  0  0
 15 16  2  0  0  0  0
 15 17  1  0  0  0  0
 11 12  1  0  0  0  0
 11 13  1  0  0  0  0
 11 14  1  0  0  0  0
  9 10  1  0  0  0  0
  9 11  1  0  0  0  0
  9 15  1  0  0  0  0
  7  8  1  0  0  0  0
  7  9  1  0  0  0  0
 19 20  1  0  0  0  0
 19 21  1  0  0  0  0
 19 22  1  0  0  0  0
 17 18  1  0  0  0  0
 17 19  1  0  0  0  0
M  END
$$$$
default_name
  -OEChem-01062215323D

 22 21  0     1  0  0  0  0  0999 V2000
   -2.5423   -3.6749    0.8058 H   0  0  0  0  0  0  0  0  0  0  0  0
   -2.5063   -2.6779    0.3688 C   0  0  0  0  0  0  0  0  0  0  0  0
   -3.1603   -2.0109    0.9268 H   0  0  0  0  0  0  0  0  0  0  0  0
   -2.8193   -2.7229   -0.6722 H   0  0  0  0  0  0  0  0  0  0  0  0
   -1.0873   -2.1629    0.4418 C   0  0  0  0  0  0  0  0  0  0  0  0
   -0.2073   -2.8549    0.9368 O   0  0  0  0  0  0  0  0  0  0  0  0
   -0.8713   -0.9449   -0.0482 N   0  0  0  0  0  0  0  0  0  0  0  0
   -1.6543   -0.4189   -0.4062 H   0  0  0  0  0  0  0  0  0  0  0  0
    0.4237   -0.2649   -0.0462 C   0  0  1  0  0  0  0  0  0  0  0  0
    0.4075    0.5223    0.7093 H   0  0  0  0  0  0  0  0  0  0  0  0
    1.5178   -1.2771    0.3269 C   0  0  0  0  0  0  0  0  0  0  0  0
    1.5509   -2.0781   -0.4134 H   0  0  0  0  0  0  0  0  0  0  0  0
    2.4877   -0.7821    0.3626 H   0  0  0  0  0  0  0  0  0  0  0  0
    1.3057   -1.7038    1.3087 H   0  0  0  0  0  0  0  0  0  0  0  0
    0.7045    0.3937   -1.4110 C   0  0  0  0  0  0  0  0  0  0  0  0
    0.5938    1.6116   -1.5504 O   0  0  0  0  0  0  0  0  0  0  0  0
    1.0529   -0.4176   -2.4177 N   0  0  0  0  0  0  0  0  0  0  0  0
    1.1174   -1.4048   -2.2276 H   0  0  0  0  0  0  0  0  0  0  0  0
    1.3439    0.0430   -3.7746 C   0  0  0  0  0  0  0  0  0  0  0  0
    2.1267    0.8035   -3.7455 H   0  0  0  0  0  0  0  0  0  0  0  0
    1.6759   -0.7902   -4.3955 H   0  0  0  0  0  0  0  0  0  0  0  0
    0.4476    0.4853   -4.2129 H   0  0  0  0  0  0  0  0  0  0  0  0
  5  6  2  0  0  0  0
  5  7  1  0  0  0  0
  2  3  1  0  0  0  0
  2  4  1  0  0  0  0
  2  5  1  0  0  0  0
  1  2  1  0  0  0  0
 15 16  2  0  0  0  0
 15 17  1  0  0  0  0
 11 12  1  0  0  0  0
 11 13  1  0  0  0  0
 11 14  1  0  0  0  0
  9 10  1  0  0  0  0
  9 11  1  0  0  0  0
  9 15  1  0  0  0  0
  7  8  1  0  0  0  0
  7  9  1  0  0  0  0
 19 20  1  0  0  0  0
 19 21  1  0  0  0  0
 19 22  1  0  0  0  0
 17 18  1  0  0  0  0
 17 19  1  0  0  0  0
M  END
$$$$
default_name
  -OEChem-01062215323D

 22 21  0     1  0  0  0  0  0999 V2000
   -2.5423   -3.6749    0.8058 H   0  0  0  0  0  0  0  0  0  0  0  0
   -2.5063   -2.6779    0.3688 C   0  0  0  0  0  0  0  0  0  0  0  0
   -3.1603   -2.0109    0.9268 H   0  0  0  0  0  0  0  0  0  0  0  0
   -2.8193   -2.7229   -0.6722 H   0  0  0  0  0  0  0  0  0  0  0  0
   -1.0873   -2.1629    0.4418 C   0  0  0  0  0  0  0  0  0  0  0  0
   -0.2073   -2.8549    0.9368 O   0  0  0  0  0  0  0  0  0  0  0  0
   -0.8713   -0.9449   -0.0482 N   0  0  0  0  0  0  0  0  0  0  0  0
   -1.6543   -0.4189   -0.4062 H   0  0  0  0  0  0  0  0  0  0  0  0
    0.4237   -0.2649   -0.0462 C   0  0  1  0  0  0  0  0  0  0  0  0
    0.4075    0.5223    0.7093 H   0  0  0  0  0  0  0  0  0  0  0  0
    1.5178   -1.2771    0.3269 C   0  0  0  0  0  0  0  0  0  0  0  0
    1.5509   -2.0781   -0.4134 H   0  0  0  0  0  0  0  0  0  0  0  0
    2.4877   -0.7821    0.3626 H   0  0  0  0  0  0  0  0  0  0  0  0
    1.3057   -1.7038    1.3087 H   0  0  0  0  0  0  0  0  0  0  0  0
    0.7045    0.3937   -1.4110 C   0  0  0  0  0  0  0  0  0  0  0  0
    0.8651    1.6111   -1.4948 O   0  0  0  0  0  0  0  0  0  0  0  0
    0.7475   -0.4135   -2.4785 N   0  0  0  0  0  0  0  0  0  0  0  0
    0.6010   -1.3993   -2.3311 H   0  0  0  0  0  0  0  0  0  0  0  0
    0.9930    0.0499   -3.8434 C   0  0  0  0  0  0  0  0  0  0  0  0
    1.9295    0.6101   -3.8794 H   0  0  0  0  0  0  0  0  0  0  0  0
    1.0557   -0.7981   -4.5269 H   0  0  0  0  0  0  0  0  0  0  0  0
    0.1828    0.7091   -4.1594 H   0  0  0  0  0  0  0  0  0  0  0  0
  5  6  2  0  0  0  0
  5  7  1  0  0  0  0
  2  3  1  0  0  0  0
  2  4  1  0  0  0  0
  2  5  1  0  0  0  0
  1  2  1  0  0  0  0
 15 16  2  0  0  0  0
 15 17  1  0  0  0  0
 11 12  1  0  0  0  0
 11 13  1  0  0  0  0
 11 14  1  0  0  0  0
  9 10  1  0  0  0  0
  9 11  1  0  0  0  0
  9 15  1  0  0  0  0
  7  8  1  0  0  0  0
  7  9  1  0  0  0  0
 19 20  1  0  0  0  0
 19 21  1  0  0  0  0
 19 22  1  0  0  0  0
 17 18  1  0  0  0  0
 17 19  1  0  0  0  0
M  END
$$$$
default_name
  -OEChem-01062215323D

 22 21  0     1  0  0  0  0  0999 V2000
   -2.5423   -3.6749    0.8058 H   0  0  0  0  0  0  0  0  0  0  0  0
   -2.5063   -2.6779    0.3688 C   0  0  0  0  0  0  0  0  0  0  0  0
   -3.1603   -2.0109    0.9268 H   0  0  0  0  0  0  0  0  0  0  0  0
   -2.8193   -2.7229   -0.6722 H   0  0  0  0  0  0  0  0  0  0  0  0
   -1.0873   -2.1629    0.4418 C   0  0  0  0  0  0  0  0  0  0  0  0
   -0.2073   -2.8549    0.9368 O   0  0  0  0  0  0  0  0  0  0  0  0
   -0.8713   -0.9449   -0.0482 N   0  0  0  0  0  0  0  0  0  0  0  0
   -1.6543   -0.4189   -0.4062 H   0  0  0  0  0  0  0  0  0  0  0  0
    0.4237   -0.2649   -0.0462 C   0  0  1  0  0  0  0  0  0  0  0  0
    0.4075    0.5223    0.7093 H   0  0  0  0  0  0  0  0  0  0  0  0
    1.5178   -1.2771    0.3269 C   0  0  0  0  0  0  0  0  0  0  0  0
    1.5509   -2.0781   -0.4134 H   0  0  0  0  0  0  0  0  0  0  0  0
    2.4877   -0.7821    0.3626 H   0  0  0  0  0  0  0  0  0  0  0  0
    1.3057   -1.7038    1.3087 H   0  0  0  0  0  0  0  0  0  0  0  0
    0.7045    0.3937   -1.4110 C   0  0  0  0  0  0  0  0  0  0  0  0
    1.1333    1.5459   -1.4712 O   0  0  0  0  0  0  0  0  0  0  0  0
    0.4468   -0.3367   -2.5033 N   0  0  0  0  0  0  0  0  0  0  0  0
    0.0920   -1.2707   -2.3737 H   0  0  0  0  0  0  0  0  0  0  0  0
    0.6481    0.1401   -3.8708 C   0  0  0  0  0  0  0  0  0  0  0  0
    1.6798    0.4747   -3.9961 H   0  0  0  0  0  0  0  0  0  0  0  0
    0.4403   -0.6574   -4.5856 H   0  0  0  0  0  0  0  0  0  0  0  0
   -0.0158    0.9836   -4.0678 H   0  0  0  0  0  0  0  0  0  0  0  0
  5  6  2  0  0  0  0
  5  7  1  0  0  0  0
  2  3  1  0  0  0  0
  2  4  1  0  0  0  0
  2  5  1  0  0  0  0
  1  2  1  0  0  0  0
 15 16  2  0  0  0  0
 15 17  1  0  0  0  0
 11 12  1  0  0  0  0
 11 13  1  0  0  0  0
 11 14  1  0  0  0  0
  9 10  1  0  0  0  0
  9 11  1  0  0  0  0
  9 15  1  0  0  0  0
  7  8  1  0  0  0  0
  7  9  1  0  0  0  0
 19 20  1  0  0  0  0
 19 21  1  0  0  0  0
 19 22  1  0  0  0  0
 17 18  1  0  0  0  0
 17 19  1  0  0  0  0
M  END
$$$$
default_name
  -OEChem-01062215323D

 22 21  0     1  0  0  0  0  0999 V2000
   -2.5423   -3.6749    0.8058 H   0  0  0  0  0  0  0  0  0  0  0  0
   -2.5063   -2.6779    0.3688 C   0  0  0  0  0  0  0  0  0  0  0  0
   -3.1603   -2.0109    0.9268 H   0  0  0  0  0  0  0  0  0  0  0  0
   -2.8193   -2.7229   -0.6722 H   0  0  0  0  0  0  0  0  0  0  0  0
   -1.0873   -2.1629    0.4418 C   0  0  0  0  0  0  0  0  0  0  0  0
   -0.2073   -2.8549    0.9368 O   0  0  0  0  0  0  0  0  0  0  0  0
   -0.8713   -0.9449   -0.0482 N   0  0  0  0  0  0  0  0  0  0  0  0
   -1.6543   -0.4189   -0.4062 H   0  0  0  0  0  0  0  0  0  0  0  0
    0.4237   -0.2649   -0.0462 C   0  0  1  0  0  0  0  0  0  0  0  0
    0.4075    0.5223    0.7093 H   0  0  0  0  0  0  0  0  0  0  0  0
    1.5178   -1.2771    0.3269 C   0  0  0  0  0  0  0  0  0  0  0  0
    1.5509   -2.0781   -0.4134 H   0  0  0  0  0  0  0  0  0  0  0  0
    2.4877   -0.7821    0.3626 H   0  0  0  0  0  0  0  0  0  0  0  0
    1.3057   -1.7038    1.3087 H   0  0  0  0  0  0  0  0  0  0  0  0
    0.7045    0.3937   -1.4110 C   0  0  0  0  0  0  0  0  0  0  0  0
    1.3799    1.4202   -1.4810 O   0  0  0  0  0  0  0  0  0  0  0  0
    0.1711   -0.1924   -2.4904 N   0  0  0  0  0  0  0  0  0  0  0  0
   -0.3749   -1.0278   -2.3526 H   0  0  0  0  0  0  0  0  0  0  0  0
    0.3326    0.3076   -3.8549 C   0  0  0  0  0  0  0  0  0  0  0  0
    1.3948    0.4067   -4.0875 H   0  0  0  0  0  0  0  0  0  0  0  0
   -0.1284   -0.3777   -4.5676 H   0  0  0  0  0  0  0  0  0  0  0  0
   -0.1346    1.2898   -3.9444 H   0  0  0  0  0  0  0  0  0  0  0  0
  5  6  2  0  0  0  0
  5  7  1  0  0  0  0
  2  3  1  0  0  0  0
  2  4  1  0  0  0  0
  2  5  1  0  0  0  0
  1  2  1  0  0  0  0
 15 16  2  0  0  0  0
 15 17  1  0  0  0  0
 11 12  1  0  0  0  0
 11 13  1  0  0  0  0
 11 14  1  0  0  0  0
  9 10  1  0  0  0  0
  9 11  1  0  0  0  0
  9 15  1  0  0  0  0
  7  8  1  0  0  0  0
  7  9  1  0  0  0  0
 19 20  1  0  0  0  0
 19 21  1  0  0  0  0
 19 22  1  0  0  0  0
 17 18  1  0  0  0  0
 17 19  1  0  0  0  0
M  END
$$$$
default_name
  -OEChem-01062215323D

 22 21  0     1  0  0  0  0  0999 V2000
   -2.5423   -3.6749    0.8058 H   0  0  0  0  0  0  0  0  0  0  0  0
   -2.5063   -2.6779    0.3688 C   0  0  0  0  0  0  0  0  0  0  0  0
   -3.1603   -2.0109    0.9268 H   0  0  0  0  0  0  0  0  0  0  0  0
   -2.8193   -2.7229   -0.6722 H   0  0  0  0  0  0  0  0  0  0  0  0
   -1.0873   -2.1629    0.4418 C   0  0  0  0  0  0  0  0  0  0  0  0
   -0.2073   -2.8549    0.9368 O   0  0  0  0  0  0  0  0  0  0  0  0
   -0.8713   -0.9449   -0.0482 N   0  0  0  0  0  0  0  0  0  0  0  0
   -1.6543   -0.4189   -0.4062 H   0  0  0  0  0  0  0  0  0  0  0  0
    0.4237   -0.2649   -0.0462 C   0  0  1  0  0  0  0  0  0  0  0  0
    0.4075    0.5223    0.7093 H   0  0  0  0  0  0  0  0  0  0  0  0
    1.5178   -1.2771    0.3269 C   0  0  0  0  0  0  0  0  0  0  0  0
    1.5509   -2.0781   -0.4134 H   0  0  0  0  0  0  0  0  0  0  0  0
    2.4877   -0.7821    0.3626 H   0  0  0  0  0  0  0  0  0  0  0  0
    1.3057   -1.7038    1.3087 H   0  0  0  0  0  0  0  0  0  0  0  0
    0.7045    0.3937   -1.4110 C   0  0  0  0  0  0  0  0  0  0  0  0
    1.5883    1.2428   -1.5238 O   0  0  0  0  0  0  0  0  0  0  0  0
   -0.0607    0.0096   -2.4406 N   0  0  0  0  0  0  0  0  0  0  0  0
   -0.7679   -0.6871   -2.2690 H   0  0  0  0  0  0  0  0  0  0  0  0
    0.0680    0.5410   -3.7967 C   0  0  0  0  0  0  0  0  0  0  0  0
    1.0937    0.4106   -4.1476 H   0  0  0  0  0  0  0  0  0  0  0  0
   -0.6116    0.0220   -4.4741 H   0  0  0  0  0  0  0  0  0  0  0  0
   -0.1655    1.6070   -3.7977 H   0  0  0  0  0  0  0  0  0  0  0  0
  5  6  2  0  0  0  0
  5  7  1  0  0  0  0
  2  3  1  0  0  0  0
  2  4  1  0  0  0  0
  2  5  1  0  0  0  0
  1  2  1  0  0  0  0
 15 16  2  0  0  0  0
 15 17  1  0  0  0  0
 11 12  1  0  0  0  0
 11 13  1  0  0  0  0
 11 14  1  0  0  0  0
  9 10  1  0  0  0  0
  9 11  1  0  0  0  0
  9 15  1  0  0  0  0
  7  8  1  0  0  0  0
  7  9  1  0  0  0  0
 19 20  1  0  0  0  0
 19 21  1  0  0  0  0
 19 22  1  0  0  0  0
 17 18  1  0  0  0  0
 17 19  1  0  0  0  0
M  END
$$$$
default_name
  -OEChem-01062215323D

 22 21  0     1  0  0  0  0  0999 V2000
   -2.5423   -3.6749    0.8058 H   0  0  0  0  0  0  0  0  0  0  0  0
   -2.5063   -2.6779    0.3688 C   0  0  0  0  0  0  0  0  0  0  0  0
   -3.1603   -2.0109    0.9268 H   0  0  0  0  0  0  0  0  0  0  0  0
   -2.8193   -2.7229   -0.6722 H   0  0  0  0  0  0  0  0  0  0  0  0
   -1.0873   -2.1629    0.4418 C   0  0  0  0  0  0  0  0  0  0  0  0
   -0.2073   -2.8549    0.9368 O   0  0  0  0  0  0  0  0  0  0  0  0
   -0.8713   -0.9449   -0.0482 N   0  0  0  0  0  0  0  0  0  0  0  0
   -1.6543   -0.4189   -0.4062 H   0  0  0  0  0  0  0  0  0  0  0  0
    0.4237   -0.2649   -0.0462 C   0  0  1  0  0  0  0  0  0  0  0  0
    0.4075    0.5223    0.7093 H   0  0  0  0  0  0  0  0  0  0  0  0
    1.5178   -1.2771    0.3269 C   0  0  0  0  0  0  0  0  0  0  0  0
    1.5509   -2.0781   -0.4134 H   0  0  0  0  0  0  0  0  0  0  0  0
    2.4877   -0.7821    0.3626 H   0  0  0  0  0  0  0  0  0  0  0  0
    1.3057   -1.7038    1.3087 H   0  0  0  0  0  0  0  0  0  0  0  0
    0.7045    0.3937   -1.4110 C   0  0  0  0  0  0  0  0  0  0  0  0
    1.7442    1.0257   -1.5965 O   0  0  0  0  0  0  0  0  0  0  0  0
   -0.2328    0.2554   -2.3573 N   0  0  0  0  0  0  0  0  0  0  0  0
   -1.0602   -0.2720   -2.1288 H   0  0  0  0  0  0  0  0  0  0  0  0
   -0.1277    0.8243   -3.7002 C   0  0  0  0  0  0  0  0  0  0  0  0
    0.7971    0.4863   -4.1720 H   0  0  0  0  0  0  0  0  0  0  0  0
   -0.9764    0.5144   -4.3115 H   0  0  0  0  0  0  0  0  0  0  0  0
   -0.1064    1.9136   -3.6376 H   0  0  0  0  0  0  0  0  0  0  0  0
  5  6  2  0  0  0  0
  5  7  1  0  0  0  0
  2  3  1  0  0  0  0
  2  4  1  0  0  0  0
  2  5  1  0  0  0  0
  1  2  1  0  0  0  0
 15 16  2  0  0  0  0
 15 17  1  0  0  0  0
 11 12  1  0  0  0  0
 11 13  1  0  0  0  0
 11 14  1  0  0  0  0
  9 10  1  0  0  0  0
  9 11  1  0  0  0  0
  9 15  1  0  0  0  0
  7  8  1  0  0  0  0
  7  9  1  0  0  0  0
 19 20  1  0  0  0  0
 19 21  1  0  0  0  0
 19 22  1  0  0  0  0
 17 18  1  0  0  0  0
 17 19  1  0  0  0  0
M  END
$$$$
default_name
  -OEChem-01062215323D

 22 21  0     1  0  0  0  0  0999 V2000
   -2.5423   -3.6749    0.8058 H   0  0  0  0  0  0  0  0  0  0  0  0
   -2.5063   -2.6779    0.3688 C   0  0  0  0  0  0  0  0  0  0  0  0
   -3.1603   -2.0109    0.9268 H   0  0  0  0  0  0  0  0  0  0  0  0
   -2.8193   -2.7229   -0.6722 H   0  0  0  0  0  0  0  0  0  0  0  0
   -1.0873   -2.1629    0.4418 C   0  0  0  0  0  0  0  0  0  0  0  0
   -0.2073   -2.8549    0.9368 O   0  0  0  0  0  0  0  0  0  0  0  0
   -0.8713   -0.9449   -0.0482 N   0  0  0  0  0  0  0  0  0  0  0  0
   -1.6543   -0.4189   -0.4062 H   0  0  0  0  0  0  0  0  0  0  0  0
    0.4237   -0.2649   -0.0462 C   0  0  1  0  0  0  0  0  0  0  0  0
    0.4075    0.5223    0.7093 H   0  0  0  0  0  0  0  0  0  0  0  0
    1.5178   -1.2771    0.3269 C   0  0  0  0  0  0  0  0  0  0  0  0
    1.5509   -2.0781   -0.4134 H   0  0  0  0  0  0  0  0  0  0  0  0
    2.4877   -0.7821    0.3626 H   0  0  0  0  0  0  0  0  0  0  0  0
    1.3057   -1.7038    1.3087 H   0  0  0  0  0  0  0  0  0  0  0  0
    0.7045    0.3937   -1.4110 C   0  0  0  0  0  0  0  0  0  0  0  0
    1.8370    0.7837   -1.6942 O   0  0  0  0  0  0  0  0  0  0  0  0
   -0.3334    0.5284   -2.2463 N   0  0  0  0  0  0  0  0  0  0  0  0
   -1.2318    0.1894   -1.9414 H   0  0  0  0  0  0  0  0  0  0  0  0
   -0.2410    1.1382   -3.5720 C   0  0  0  0  0  0  0  0  0  0  0  0
    0.5253    0.6285   -4.1593 H   0  0  0  0  0  0  0  0  0  0  0  0
   -1.1979    1.0660   -4.0909 H   0  0  0  0  0  0  0  0  0  0  0  0
    0.0386    2.1887   -3.4750 H   0  0  0  0  0  0  0  0  0  0  0  0
  5  6  2  0  0  0  0
  5  7  1  0  0  0  0
  2  3  1  0  0  0  0
  2  4  1  0  0  0  0
  2  5  1  0  0  0  0
  1  2  1  0  0  0  0
 15 16  2  0  0  0  0
 15 17  1  0  0  0  0
 11 12  1  0  0  0  0
 11 13  1  0  0  0  0
 11 14  1  0  0  0  0
  9 10  1  0  0  0  0
  9 11  1  0  0  0  0
  9 15  1  0  0  0  0
  7  8  1  0  0  0  0
  7  9  1  0  0  0  0
 19 20  1  0  0  0  0
 19 21  1  0  0  0  0
 19 22  1  0  0  0  0
 17 18  1  0  0  0  0
 17 19  1  0  0  0  0
M  END
$$$$
default_name
  -OEChem-01062215323D

 22 21  0     1  0  0  0  0  0999 V2000
   -2.5423   -3.6749    0.8058 H   0  0  0  0  0  0  0  0  0  0  0  0
   -2.5063   -2.6779    0.3688 C   0  0  0  0  0  0  0  0  0  0  0  0
   -3.1603   -2.0109    0.9268 H   0  0  0  0  0  0  0  0  0  0  0  0
   -2.8193   -2.7229   -0.6722 H   0  0  0  0  0  0  0  0  0  0  0  0
   -1.0873   -2.1629    0.4418 C   0  0  0  0  0  0  0  0  0  0  0  0
   -0.2073   -2.8549    0.9368 O   0  0  0  0  0  0  0  0  0  0  0  0
   -0.8713   -0.9449   -0.0482 N   0  0  0  0  0  0  0  0  0  0  0  0
   -1.6543   -0.4189   -0.4062 H   0  0  0  0  0  0  0  0  0  0  0  0
    0.4237   -0.2649   -0.0462 C   0  0  1  0  0  0  0  0  0  0  0  0
    0.4075    0.5223    0.7093 H   0  0  0  0  0  0  0  0  0  0  0  0
    1.5178   -1.2771    0.3269 C   0  0  0  0  0  0  0  0  0  0  0  0
    1.5509   -2.0781   -0.4134 H   0  0  0  0  0  0  0  0  0  0  0  0
    2.4877   -0.7821    0.3626 H   0  0  0  0  0  0  0  0  0  0  0  0
    1.3057   -1.7038    1.3087 H   0  0  0  0  0  0  0  0  0  0  0  0
    0.7045    0.3937   -1.4110 C   0  0  0  0  0  0  0  0  0  0  0  0
    1.8603    0.5333   -1.8103 O   0  0  0  0  0  0  0  0  0  0  0  0
   -0.3558    0.8100   -2.1150 N   0  0  0  0  0  0  0  0  0  0  0  0
   -1.2711    0.6656   -1.7197 H   0  0  0  0  0  0  0  0  0  0  0  0
   -0.2644    1.4614   -3.4208 C   0  0  0  0  0  0  0  0  0  0  0  0
    0.2968    0.8275   -4.1103 H   0  0  0  0  0  0  0  0  0  0  0  0
   -1.2611    1.6391   -3.8273 H   0  0  0  0  0  0  0  0  0  0  0  0
    0.2598    2.4134   -3.3210 H   0  0  0  0  0  0  0  0  0  0  0  0
  5  6  2  0  0  0  0
  5  7  1  0  0  0  0
  2  3  1  0  0  0  0
  2  4  1  0  0  0  0
  2  5  1  0  0  0  0
  1  2  1  0  0  0  0
 15 16  2  0  0  0  0
 15 17  1  0  0  0  0
 11 12  1  0  0  0  0
 11 13  1  0  0  0  0
 11 14  1  0  0  0  0
  9 10  1  0  0  0  0
  9 11  1  0  0  0  0
  9 15  1  0  0  0  0
  7  8  1  0  0  0  0
  7  9  1  0  0  0  0
 19 20  1  0  0  0  0
 19 21  1  0  0  0  0
 19 22  1  0  0  0  0
 17 18  1  0  0  0  0
 17 19  1  0  0  0  0
M  END
$$$$
default_name
  -OEChem-01062215323D

 22 21  0     1  0  0  0  0  0999 V2000
   -2.5423   -3.6749    0.8058 H   0  0  0  0  0  0  0  0  0  0  0  0
   -2.5063   -2.6779    0.3688 C   0  0  0  0  0  0  0  0  0  0  0  0
   -3.1603   -2.0109    0.9268 H   0  0  0  0  0  0  0  0  0  0  0  0
   -2.8193   -2.7229   -0.6722 H   0  0  0  0  0  0  0  0  0  0  0  0
   -1.0873   -2.1629    0.4418 C   0  0  0  0  0  0  0  0  0  0  0  0
   -0.2073   -2.8549    0.9368 O   0  0  0  0  0  0  0  0  0  0  0  0
   -0.8713   -0.9449   -0.0482 N   0  0  0  0  0  0  0  0  0  0  0  0
   -1.6543   -0.4189   -0.4062 H   0  0  0  0  0  0  0  0  0  0  0  0
    0.4237   -0.2649   -0.0462 C   0  0  1  0  0  0  0  0  0  0  0  0
    0.4075    0.5223    0.7093 H   0  0  0  0  0  0  0  0  0  0  0  0
    1.5178   -1.2771    0.3269 C   0  0  0  0  0  0  0  0  0  0  0  0
    1.5509   -2.0781   -0.4134 H   0  0  0  0  0  0  0  0  0  0  0  0
    2.4877   -0.7821    0.3626 H   0  0  0  0  0  0  0  0  0  0  0  0
    1.3057   -1.7038    1.3087 H   0  0  0  0  0  0  0  0  0  0  0  0
    0.7045    0.3937   -1.4110 C   0  0  0  0  0  0  0  0  0  0  0  0
    1.8126    0.2915   -1.9367 O   0  0  0  0  0  0  0  0  0  0  0  0
   -0.2984    1.0808   -1.9725 N   0  0  0  0  0  0  0  0  0  0  0  0
   -1.1755    1.1241   -1.4787 H   0  0  0  0  0  0  0  0  0  0  0  0
   -0.1962    1.7719   -3.2570 C   0  0  0  0  0  0  0  0  0  0  0  0
    0.1270    1.0699   -4.0282 H   0  0  0  0  0  0  0  0  0  0  0  0
   -1.1616    2.1948   -3.5387 H   0  0  0  0  0  0  0  0  0  0  0  0
    0.5419    2.5726   -3.1862 H   0  0  0  0  0  0  0  0  0  0  0  0
  5  6  2  0  0  0  0
  5  7  1  0  0  0  0
  2  3  1  0  0  0  0
  2  4  1  0  0  0  0
  2  5  1  0  0  0  0
  1  2  1  0  0  0  0
 15 16  2  0  0  0  0
 15 17  1  0  0  0  0
 11 12  1  0  0  0  0
 11 13  1  0  0  0  0
 11 14  1  0  0  0  0
  9 10  1  0  0  0  0
  9 11  1  0  0  0  0
  9 15  1  0  0  0  0
  7  8  1  0  0  0  0
  7  9  1  0  0  0  0
 19 20  1  0  0  0  0
 19 21  1  0  0  0  0
 19 22  1  0  0  0  0
 17 18  1  0  0  0  0
 17 19  1  0  0  0  0
M  END
$$$$
default_name
  -OEChem-01062215323D

 22 21  0     1  0  0  0  0  0999 V2000
   -2.5423   -3.6749    0.8058 H   0  0  0  0  0  0  0  0  0  0  0  0
   -2.5063   -2.6779    0.3688 C   0  0  0  0  0  0  0  0  0  0  0  0
   -3.1603   -2.0109    0.9268 H   0  0  0  0  0  0  0  0  0  0  0  0
   -2.8193   -2.7229   -0.6722 H   0  0  0  0  0  0  0  0  0  0  0  0
   -1.0873   -2.1629    0.4418 C   0  0  0  0  0  0  0  0  0  0  0  0
   -0.2073   -2.8549    0.9368 O   0  0  0  0  0  0  0  0  0  0  0  0
   -0.8713   -0.9449   -0.0482 N   0  0  0  0  0  0  0  0  0  0  0  0
   -1.6543   -0.4189   -0.4062 H   0  0  0  0  0  0  0  0  0  0  0  0
    0.4237   -0.2649   -0.0462 C   0  0  1  0  0  0  0  0  0  0  0  0
    0.4075    0.5223    0.7093 H   0  0  0  0  0  0  0  0  0  0  0  0
    1.5178   -1.2771    0.3269 C   0  0  0  0  0  0  0  0  0  0  0  0
    1.5509   -2.0781   -0.4134 H   0  0  0  0  0  0  0  0  0  0  0  0
    2.4877   -0.7821    0.3626 H   0  0  0  0  0  0  0  0  0  0  0  0
    1.3057   -1.7038    1.3087 H   0  0  0  0  0  0  0  0  0  0  0  0
    0.7045    0.3937   -1.4110 C   0  0  0  0  0  0  0  0  0  0  0  0
    1.6971    0.0749   -2.0650 O   0  0  0  0  0  0  0  0  0  0  0  0
   -0.1651    1.3226   -1.8284 N   0  0  0  0  0  0  0  0  0  0  0  0
   -0.9513    1.5337   -1.2349 H   0  0  0  0  0  0  0  0  0  0  0  0
   -0.0411    2.0484   -3.0917 C   0  0  0  0  0  0  0  0  0  0  0  0
    0.0277    1.3390   -3.9188 H   0  0  0  0  0  0  0  0  0  0  0  0
   -0.9062    2.6951   -3.2447 H   0  0  0  0  0  0  0  0  0  0  0  0
    0.8658    2.6553   -3.0796 H   0  0  0  0  0  0  0  0  0  0  0  0
  5  6  2  0  0  0  0
  5  7  1  0  0  0  0
  2  3  1  0  0  0  0
  2  4  1  0  0  0  0
  2  5  1  0  0  0  0
  1  2  1  0  0  0  0
 15 16  2  0  0  0  0
 15 17  1  0  0  0  0
 11 12  1  0  0  0  0
 11 13  1  0  0  0  0
 11 14  1  0  0  0  0
  9 10  1  0  0  0  0
  9 11  1  0  0  0  0
  9 15  1  0  0  0  0
  7  8  1  0  0  0  0
  7  9  1  0  0  0  0
 19 20  1  0  0  0  0
 19 21  1  0  0  0  0
 19 22  1  0  0  0  0
 17 18  1  0  0  0  0
 17 19  1  0  0  0  0
M  END
$$$$
default_name
  -OEChem-01062215323D

 22 21  0     1  0  0  0  0  0999 V2000
   -2.5423   -3.6749    0.8058 H   0  0  0  0  0  0  0  0  0  0  0  0
   -2.5063   -2.6779    0.3688 C   0  0  0  0  0  0  0  0  0  0  0  0
   -3.1603   -2.0109    0.9268 H   0  0  0  0  0  0  0  0  0  0  0  0
   -2.8193   -2.7229   -0.6722 H   0  0  0  0  0  0  0  0  0  0  0  0
   -1.0873   -2.1629    0.4418 C   0  0  0  0  0  0  0  0  0  0  0  0
   -0.2073   -2.8549    0.9368 O   0  0  0  0  0  0  0  0  0  0  0  0
   -0.8713   -0.9449   -0.0482 N   0  0  0  0  0  0  0  0  0  0  0  0
   -1.6543   -0.4189   -0.4062 H   0  0  0  0  0  0  0  0  0  0  0  0
    0.4237   -0.2649   -0.0462 C   0  0  1  0  0  0  0  0  0  0  0  0
    0.4075    0.5223    0.7093 H   0  0  0  0  0  0  0  0  0  0  0  0
    1.5178   -1.2771    0.3269 C   0  0  0  0  0  0  0  0  0  0  0  0
    1.5509   -2.0781   -0.4134 H   0  0  0  0  0  0  0  0  0  0  0  0
    2.4877   -0.7821    0.3626 H   0  0  0  0  0  0  0  0  0  0  0  0
    1.3057   -1.7038    1.3087 H   0  0  0  0  0  0  0  0  0  0  0  0
    0.7045    0.3937   -1.4110 C   0  0  0  0  0  0  0  0  0  0  0  0
    1.5218   -0.1018   -2.1864 O   0  0  0  0  0  0  0  0  0  0  0  0
    0.0351    1.5188   -1.6926 N   0  0  0  0  0  0  0  0  0  0  0  0
   -0.6140    1.8665   -1.0049 H   0  0  0  0  0  0  0  0  0  0  0  0
    0.1904    2.2721   -2.9361 C   0  0  0  0  0  0  0  0  0  0  0  0
    0.0056    1.6165   -3.7894 H   0  0  0  0  0  0  0  0  0  0  0  0
   -0.5123    3.1060   -2.9654 H   0  0  0  0  0  0  0  0  0  0  0  0
    1.2095    2.6560   -3.0087 H   0  0  0  0  0  0  0  0  0  0  0  0
  5  6  2  0  0  0  0
  5  7  1  0  0  0  0
  2  3  1  0  0  0  0
  2  4  1  0  0  0  0
  2  5  1  0  0  0  0
  1  2  1  0  0  0  0
 15 16  2  0  0  0  0
 15 17  1  0  0  0  0
 11 12  1  0  0  0  0
 11 13  1  0  0  0  0
 11 14  1  0  0  0  0
  9 10  1  0  0  0  0
  9 11  1  0  0  0  0
  9 15  1  0  0  0  0
  7  8  1  0  0  0  0
  7  9  1  0  0  0  0
 19 20  1  0  0  0  0
 19 21  1  0  0  0  0
 19 22  1  0  0  0  0
 17 18  1  0  0  0  0
 17 19  1  0  0  0  0
M  END
$$$$
default_name
  -OEChem-01062215323D

 22 21  0     1  0  0  0  0  0999 V2000
   -2.5423   -3.6749    0.8058 H   0  0  0  0  0  0  0  0  0  0  0  0
   -2.5063   -2.6779    0.3688 C   0  0  0  0  0  0  0  0  0  0  0  0
   -3.1603   -2.0109    0.9268 H   0  0  0  0  0  0  0  0  0  0  0  0
   -2.8193   -2.7229   -0.6722 H   0  0  0  0  0  0  0  0  0  0  0  0
   -1.0873   -2.1629    0.4418 C   0  0  0  0  0  0  0  0  0  0  0  0
   -0.2073   -2.8549    0.9368 O   0  0  0  0  0  0  0  0  0  0  0  0
   -0.8713   -0.9449   -0.0482 N   0  0  0  0  0  0  0  0  0  0  0  0
   -1.6543   -0.4189   -0.4062 H   0  0  0  0  0  0  0  0  0  0  0  0
    0.4237   -0.2649   -0.0462 C   0  0  1  0  0  0  0  0  0  0  0  0
    0.4075    0.5223    0.7093 H   0  0  0  0  0  0  0  0  0  0  0  0
    1.5178   -1.2771    0.3269 C   0  0  0  0  0  0  0  0  0  0  0  0
    1.5509   -2.0781   -0.4134 H   0  0  0  0  0  0  0  0  0  0  0  0
    2.4877   -0.7821    0.3626 H   0  0  0  0  0  0  0  0  0  0  0  0
    1.3057   -1.7038    1.3087 H   0  0  0  0  0  0  0  0  0  0  0  0
    0.7045    0.3937   -1.4110 C   0  0  0  0  0  0  0  0  0  0  0  0
    1.2984   -0.2266   -2.2926 O   0  0  0  0  0  0  0  0  0  0  0  0
    0.2883    1.6560   -1.5743 N   0  0  0  0  0  0  0  0  0  0  0  0
   -0.1864    2.0998   -0.8044 H   0  0  0  0  0  0  0  0  0  0  0  0
    0.4826    2.4278   -2.8008 C   0  0  0  0  0  0  0  0  0  0  0  0
    0.0621    1.8836   -3.6489 H   0  0  0  0  0  0  0  0  0  0  0  0
   -0.0068    3.3994   -2.7198 H   0  0  0  0  0  0  0  0  0  0  0  0
    1.5494    2.5745   -2.9781 H   0  0  0  0  0  0  0  0  0  0  0  0
  5  6  2  0  0  0  0
  5  7  1  0  0  0  0
  2  3  1  0  0  0  0
  2  4  1  0  0  0  0
  2  5  1  0  0  0  0
  1  2  1  0  0  0  0
 15 16  2  0  0  0  0
 15 17  1  0  0  0  0
 11 12  1  0  0  0  0
 11 13  1  0  0  0  0
 11 14  1  0  0  0  0
  9 10  1  0  0  0  0
  9 11  1  0  0  0  0
  9 15  1  0  0  0  0
  7  8  1  0  0  0  0
  7  9  1  0  0  0  0
 19 20  1  0  0  0  0
 19 21  1  0  0  0  0
 19 22  1  0  0  0  0
 17 18  1  0  0  0  0
 17 19  1  0  0  0  0
M  END
$$$$
default_name
  -OEChem-01062215323D

 22 21  0     1  0  0  0  0  0999 V2000
   -2.5423   -3.6749    0.8058 H   0  0  0  0  0  0  0  0  0  0  0  0
   -2.5063   -2.6779    0.3688 C   0  0  0  0  0  0  0  0  0  0  0  0
   -3.1603   -2.0109    0.9268 H   0  0  0  0  0  0  0  0  0  0  0  0
   -2.8193   -2.7229   -0.6722 H   0  0  0  0  0  0  0  0  0  0  0  0
   -1.0873   -2.1629    0.4418 C   0  0  0  0  0  0  0  0  0  0  0  0
   -0.2073   -2.8549    0.9368 O   0  0  0  0  0  0  0  0  0  0  0  0
   -0.8713   -0.9449   -0.0482 N   0  0  0  0  0  0  0  0  0  0  0  0
   -1.6543   -0.4189   -0.4062 H   0  0  0  0  0  0  0  0  0  0  0  0
    0.4237   -0.2649   -0.0462 C   0  0  1  0  0  0  0  0  0  0  0  0
    0.4075    0.5223    0.7093 H   0  0  0  0  0  0  0  0  0  0  0  0
    1.5178   -1.2771    0.3269 C   0  0  0  0  0  0  0  0  0  0  0  0
    1.5509   -2.0781   -0.4134 H   0  0  0  0  0  0  0  0  0  0  0  0
    2.4877   -0.7821    0.3626 H   0  0  0  0  0  0  0  0  0  0  0  0
    1.3057   -1.7038    1.3087 H   0  0  0  0  0  0  0  0  0  0  0  0
    0.7045    0.3937   -1.4110 C   0  0  0  0  0  0  0  0  0  0  0  0
    1.0424   -0.2910   -2.3763 O   0  0  0  0  0  0  0  0  0  0  0  0
    0.5775    1.7249   -1.4815 N   0  0  0  0  0  0  0  0  0  0  0  0
    0.3023    2.2177   -0.6470 H   0  0  0  0  0  0  0  0  0  0  0  0
    0.8154    2.5048   -2.6952 C   0  0  0  0  0  0  0  0  0  0  0  0
    0.1934    2.1220   -3.5068 H   0  0  0  0  0  0  0  0  0  0  0  0
    0.5759    3.5554   -2.5246 H   0  0  0  0  0  0  0  0  0  0  0  0
    1.8624    2.4164   -2.9900 H   0  0  0  0  0  0  0  0  0  0  0  0
  5  6  2  0  0  0  0
  5  7  1  0  0  0  0
  2  3  1  0  0  0  0
  2  4  1  0  0  0  0
  2  5  1  0  0  0  0
  1  2  1  0  0  0  0
 15 16  2  0  0  0  0
 15 17  1  0  0  0  0
 11 12  1  0  0  0  0
 11 13  1  0  0  0  0
 11 14  1  0  0  0  0
  9 10  1  0  0  0  0
  9 11  1  0  0  0  0
  9 15  1  0  0  0  0
  7  8  1  0  0  0  0
  7  9  1  0  0  0  0
 19 20  1  0  0  0  0
 19 21  1  0  0  0  0
 19 22  1  0  0  0  0
 17 18  1  0  0  0  0
 17 19  1  0  0  0  0
M  END
$$$$
default_name
  -OEChem-01062215323D

 22 21  0     1  0  0  0  0  0999 V2000
   -2.5423   -3.6749    0.8058 H   0  0  0  0  0  0  0  0  0  0  0  0
   -2.5063   -2.6779    0.3688 C   0  0  0  0  0  0  0  0  0  0  0  0
   -3.1603   -2.0109    0.9268 H   0  0  0  0  0  0  0  0  0  0  0  0
   -2.8193   -2.7229   -0.6722 H   0  0  0  0  0  0  0  0  0  0  0  0
   -1.0873   -2.1629    0.4418 C   0  0  0  0  0  0  0  0  0  0  0  0
   -0.2073   -2.8549    0.9368 O   0  0  0  0  0  0  0  0  0  0  0  0
   -0.8713   -0.9449   -0.0482 N   0  0  0  0  0  0  0  0  0  0  0  0
   -1.6543   -0.4189   -0.4062 H   0  0  0  0  0  0  0  0  0  0  0  0
    0.4237   -0.2649   -0.0462 C   0  0  1  0  0  0  0  0  0  0  0  0
    0.4075    0.5223    0.7093 H   0  0  0  0  0  0  0  0  0  0  0  0
    1.5178   -1.2771    0.3269 C   0  0  0  0  0  0  0  0  0  0  0  0
    1.5509   -2.0781   -0.4134 H   0  0  0  0  0  0  0  0  0  0  0  0
    2.4877   -0.7821    0.3626 H   0  0  0  0  0  0  0  0  0  0  0  0
    1.3057   -1.7038    1.3087 H   0  0  0  0  0  0  0  0  0  0  0  0
    0.7045    0.3937   -1.4110 C   0  0  0  0  0  0  0  0  0  0  0  0
    0.7710   -0.2905   -2.4319 O   0  0  0  0  0  0  0  0  0  0  0  0
    0.8829    1.7208   -1.4207 N   0  0  0  0  0  0  0  0  0  0  0  0
    0.8187    2.2121   -0.5435 H   0  0  0  0  0  0  0  0  0  0  0  0
    1.1662    2.4980   -2.6263 C   0  0  0  0  0  0  0  0  0  0  0  0
    0.3907    2.3155   -3.3729 H   0  0  0  0  0  0  0  0  0  0  0  0
    1.1961    3.5633   -2.3932 H   0  0  0  0  0  0  0  0  0  0  0  0
    2.1273    2.1925   -3.0435 H   0  0  0  0  0  0  0  0  0  0  0  0
  5  6  2  0  0  0  0
  5  7  1  0  0  0  0
  2  3  1  0  0  0  0
  2  4  1  0  0  0  0
  2  5  1  0  0  0  0
  1  2  1  0  0  0  0
 15 16  2  0  0  0  0
 15 17  1  0  0  0  0
 11 12  1  0  0  0  0
 11 13  1  0  0  0  0
 11 14  1  0  0  0  0
  9 10  1  0  0  0  0
  9 11  1  0  0  0  0
  9 15  1  0  0  0  0
  7  8  1  0  0  0  0
  7  9  1  0  0  0  0
 19 20  1  0  0  0  0
 19 21  1  0  0  0  0
 19 22  1  0  0  0  0
 17 18  1  0  0  0  0
 17 19  1  0  0  0  0
M  END
$$$$
default_name
  -OEChem-01062215323D

 22 21  0     1  0  0  0  0  0999 V2000
   -2.5423   -3.6749    0.8058 H   0  0  0  0  0  0  0  0  0  0  0  0
   -2.5063   -2.6779    0.3688 C   0  0  0  0  0  0  0  0  0  0  0  0
   -3.1603   -2.0109    0.9268 H   0  0  0  0  0  0  0  0  0  0  0  0
   -2.8193   -2.7229   -0.6722 H   0  0  0  0  0  0  0  0  0  0  0  0
   -1.0873   -2.1629    0.4418 C   0  0  0  0  0  0  0  0  0  0  0  0
   -0.2073   -2.8549    0.9368 O   0  0  0  0  0  0  0  0  0  0  0  0
   -0.8713   -0.9449   -0.0482 N   0  0  0  0  0  0  0  0  0  0  0  0
   -1.6543   -0.4189   -0.4062 H   0  0  0  0  0  0  0  0  0  0  0  0
    0.4237   -0.2649   -0.0462 C   0  0  1  0  0  0  0  0  0  0  0  0
    0.4075    0.5223    0.7093 H   0  0  0  0  0  0  0  0  0  0  0  0
    1.5178   -1.2771    0.3269 C   0  0  0  0  0  0  0  0  0  0  0  0
    1.5509   -2.0781   -0.4134 H   0  0  0  0  0  0  0  0  0  0  0  0
    2.4877   -0.7821    0.3626 H   0  0  0  0  0  0  0  0  0  0  0  0
    1.3057   -1.7038    1.3087 H   0  0  0  0  0  0  0  0  0  0  0  0
    0.7045    0.3937   -1.4110 C   0  0  0  0  0  0  0  0  0  0  0  0
    0.5029   -0.2253   -2.4556 O   0  0  0  0  0  0  0  0  0  0  0  0
    1.1837    1.6440   -1.3959 N   0  0  0  0  0  0  0  0  0  0  0  0
    1.3277    2.0835   -0.5008 H   0  0  0  0  0  0  0  0  0  0  0  0
    1.5111    2.4078   -2.5989 C   0  0  0  0  0  0  0  0  0  0  0  0
    0.6403    2.4508   -3.2562 H   0  0  0  0  0  0  0  0  0  0  0  0
    1.8116    3.4226   -2.3345 H   0  0  0  0  0  0  0  0  0  0  0  0
    2.3258    1.9181   -3.1351 H   0  0  0  0  0  0  0  0  0  0  0  0
  5  6  2  0  0  0  0
  5  7  1  0  0  0  0
  2  3  1  0  0  0  0
  2  4  1  0  0  0  0
  2  5  1  0  0  0  0
  1  2  1  0  0  0  0
 15 16  2  0  0  0  0
 15 17  1  0  0  0  0
 11 12  1  0  0  0  0
 11 13  1  0  0  0  0
 11 14  1  0  0  0  0
  9 10  1  0  0  0  0
  9 11  1  0  0  0  0
  9 15  1  0  0  0  0
  7  8  1  0  0  0  0
  7  9  1  0  0  0  0
 19 20  1  0  0  0  0
 19 21  1  0  0  0  0
 19 22  1  0  0  0  0
 17 18  1  0  0  0  0
 17 19  1  0  0  0  0
M  END
$$$$
default_name
  -OEChem-01062215323D

 22 21  0     1  0  0  0  0  0999 V2000
   -2.5423   -3.6749    0.8058 H   0  0  0  0  0  0  0  0  0  0  0  0
   -2.5063   -2.6779    0.3688 C   0  0  0  0  0  0  0  0  0  0  0  0
   -3.1603   -2.0109    0.9268 H   0  0  0  0  0  0  0  0  0  0  0  0
   -2.8193   -2.7229   -0.6722 H   0  0  0  0  0  0  0  0  0  0  0  0
   -1.0873   -2.1629    0.4418 C   0  0  0  0  0  0  0  0  0  0  0  0
   -0.2073   -2.8549    0.9368 O   0  0  0  0  0  0  0  0  0  0  0  0
   -0.8713   -0.9449   -0.0482 N   0  0  0  0  0  0  0  0  0  0  0  0
   -1.6543   -0.4189   -0.4062 H   0  0  0  0  0  0  0  0  0  0  0  0
    0.4237   -0.2649   -0.0462 C   0  0  1  0  0  0  0  0  0  0  0  0
    0.4075    0.5223    0.7093 H   0  0  0  0  0  0  0  0  0  0  0  0
    1.5178   -1.2771    0.3269 C   0  0  0  0  0  0  0  0  0  0  0  0
    1.5509   -2.0781   -0.4134 H   0  0  0  0  0  0  0  0  0  0  0  0
    2.4877   -0.7821    0.3626 H   0  0  0  0  0  0  0  0  0  0  0  0
    1.3057   -1.7038    1.3087 H   0  0  0  0  0  0  0  0  0  0  0  0
    0.7045    0.3937   -1.4110 C   0  0  0  0  0  0  0  0  0  0  0  0
    0.2562   -0.0996   -2.4457 O   0  0  0  0  0  0  0  0  0  0  0  0
    1.4594    1.4997   -1.4088 N   0  0  0  0  0  0  0  0  0  0  0  0
    1.7946    1.8406   -0.5220 H   0  0  0  0  0  0  0  0  0  0  0  0
    1.8266    2.2403   -2.6149 C   0  0  0  0  0  0  0  0  0  0  0  0
    0.9254    2.5188   -3.1647 H   0  0  0  0  0  0  0  0  0  0  0  0
    2.3803    3.1429   -2.3526 H   0  0  0  0  0  0  0  0  0  0  0  0
    2.4446    1.6119   -3.2585 H   0  0  0  0  0  0  0  0  0  0  0  0
  5  6  2  0  0  0  0
  5  7  1  0  0  0  0
  2  3  1  0  0  0  0
  2  4  1  0  0  0  0
  2  5  1  0  0  0  0
  1  2  1  0  0  0  0
 15 16  2  0  0  0  0
 15 17  1  0  0  0  0
 11 12  1  0  0  0  0
 11 13  1  0  0  0  0
 11 14  1  0  0  0  0
  9 10  1  0  0  0  0
  9 11  1  0  0  0  0
  9 15  1  0  0  0  0
  7  8  1  0  0  0  0
  7  9  1  0  0  0  0
 19 20  1  0  0  0  0
 19 21  1  0  0  0  0
 19 22  1  0  0  0  0
 17 18  1  0  0  0  0
 17 19  1  0  0  0  0
M  END
$$$$
default_name
  -OEChem-01062215323D

 22 21  0     1  0  0  0  0  0999 V2000
   -2.5423   -3.6749    0.8058 H   0  0  0  0  0  0  0  0  0  0  0  0
   -2.5063   -2.6779    0.3688 C   0  0  0  0  0  0  0  0  0  0  0  0
   -3.1603   -2.0109    0.9268 H   0  0  0  0  0  0  0  0  0  0  0  0
   -2.8193   -2.7229   -0.6722 H   0  0  0  0  0  0  0  0  0  0  0  0
   -1.0873   -2.1629    0.4418 C   0  0  0  0  0  0  0  0  0  0  0  0
   -0.2073   -2.8549    0.9368 O   0  0  0  0  0  0  0  0  0  0  0  0
   -0.8713   -0.9449   -0.0482 N   0  0  0  0  0  0  0  0  0  0  0  0
   -1.6543   -0.4189   -0.4062 H   0  0  0  0  0  0  0  0  0  0  0  0
    0.4237   -0.2649   -0.0462 C   0  0  1  0  0  0  0  0  0  0  0  0
    0.4075    0.5223    0.7093 H   0  0  0  0  0  0  0  0  0  0  0  0
    1.5178   -1.2771    0.3269 C   0  0  0  0  0  0  0  0  0  0  0  0
    1.5509   -2.0781   -0.4134 H   0  0  0  0  0  0  0  0  0  0  0  0
    2.4877   -0.7821    0.3626 H   0  0  0  0  0  0  0  0  0  0  0  0
    1.3057   -1.7038    1.3087 H   0  0  0  0  0  0  0  0  0  0  0  0
    0.7045    0.3937   -1.4110 C   0  0  0  0  0  0  0  0  0  0  0  0
    0.0478    0.0778   -2.4029 O   0  0  0  0  0  0  0  0  0  0  0  0
    1.6912    1.2977   -1.4586 N   0  0  0  0  0  0  0  0  0  0  0  0
    2.1876    1.5000   -0.6056 H   0  0  0  0  0  0  0  0  0  0  0  0
    2.0912    2.0069   -2.6731 C   0  0  0  0  0  0  0  0  0  0  0  0
    1.2265    2.5149   -3.1047 H   0  0  0  0  0  0  0  0  0  0  0  0
    2.8635    2.7432   -2.4461 H   0  0  0  0  0  0  0  0  0  0  0  0
    2.4755    1.2946   -3.4052 H   0  0  0  0  0  0  0  0  0  0  0  0
  5  6  2  0  0  0  0
  5  7  1  0  0  0  0
  2  3  1  0  0  0  0
  2  4  1  0  0  0  0
  2  5  1  0  0  0  0
  1  2  1  0  0  0  0
 15 16  2  0  0  0  0
 15 17  1  0  0  0  0
 11 12  1  0  0  0  0
 11 13  1  0  0  0  0
 11 14  1  0  0  0  0
  9 10  1  0  0  0  0
  9 11  1  0  0  0  0
  9 15  1  0  0  0  0
  7  8  1  0  0  0  0
  7  9  1  0  0  0  0
 19 20  1  0  0  0  0
 19 21  1  0  0  0  0
 19 22  1  0  0  0  0
 17 18  1  0  0  0  0
 17 19  1  0  0  0  0
M  END
$$$$
default_name
  -OEChem-01062215323D

 22 21  0     1  0  0  0  0  0999 V2000
   -2.5423   -3.6749    0.8058 H   0  0  0  0  0  0  0  0  0  0  0  0
   -2.5063   -2.6779    0.3688 C   0  0  0  0  0  0  0  0  0  0  0  0
   -3.1603   -2.0109    0.9268 H   0  0  0  0  0  0  0  0  0  0  0  0
   -2.8193   -2.7229   -0.6722 H   0  0  0  0  0  0  0  0  0  0  0  0
   -1.0873   -2.1629    0.4418 C   0  0  0  0  0  0  0  0  0  0  0  0
   -0.2073   -2.8549    0.9368 O   0  0  0  0  0  0  0  0  0  0  0  0
   -0.8713   -0.9449   -0.0482 N   0  0  0  0  0  0  0  0  0  0  0  0
   -1.6543   -0.4189   -0.4062 H   0  0  0  0  0  0  0  0  0  0  0  0
    0.4237   -0.2649   -0.0462 C   0  0  1  0  0  0  0  0  0  0  0  0
    0.5093    0.3279    0.8659 H   0  0  0  0  0  0  0  0  0  0  0  0
    1.5408   -1.3198   -0.0494 C   0  0  0  0  0  0  0  0  0  0  0  0
    1.4736   -1.9294   -0.9520 H   0  0  0  0  0  0  0  0  0  0  0  0
    2.5146   -0.8323   -0.0181 H   0  0  0  0  0  0  0  0  0  0  0  0
    1.4426   -1.9631    0.8267 H   0  0  0  0  0  0  0  0  0  0  0  0
    0.5471    0.6929   -1.2473 C   0  0  0  0  0  0  0  0  0  0  0  0
   -0.3714    0.7956   -2.0601 O   0  0  0  0  0  0  0  0  0  0  0  0
    1.6906    1.3801   -1.3623 N   0  0  0  0  0  0  0  0  0  0  0  0
    2.3990    1.2386   -0.6600 H   0  0  0  0  0  0  0  0  0  0  0  0
    1.9725    2.3213   -2.4452 C   0  0  0  0  0  0  0  0  0  0  0  0
    1.1867    3.0780   -2.4894 H   0  0  0  0  0  0  0  0  0  0  0  0
    2.9336    2.8111   -2.2821 H   0  0  0  0  0  0  0  0  0  0  0  0
    1.9953    1.7896   -3.3980 H   0  0  0  0  0  0  0  0  0  0  0  0
  5  6  2  0  0  0  0
  5  7  1  0  0  0  0
  2  3  1  0  0  0  0
  2  4  1  0  0  0  0
  2  5  1  0  0  0  0
  1  2  1  0  0  0  0
 15 16  2  0  0  0  0
 15 17  1  0  0  0  0
 11 12  1  0  0  0  0
 11 13  1  0  0  0  0
 11 14  1  0  0  0  0
  9 10  1  0  0  0  0
  9 11  1  0  0  0  0
  9 15  1  0  0  0  0
  7  8  1  0  0  0  0
  7  9  1  0  0  0  0
 19 20  1  0  0  0  0
 19 21  1  0  0  0  0
 19 22  1  0  0  0  0
 17 18  1  0  0  0  0
 17 19  1  0  0  0  0
M  END
$$$$
default_name
  -OEChem-01062215323D

 22 21  0     1  0  0  0  0  0999 V2000
   -2.5423   -3.6749    0.8058 H   0  0  0  0  0  0  0  0  0  0  0  0
   -2.5063   -2.6779    0.3688 C   0  0  0  0  0  0  0  0  0  0  0  0
   -3.1603   -2.0109    0.9268 H   0  0  0  0  0  0  0  0  0  0  0  0
   -2.8193   -2.7229   -0.6722 H   0  0  0  0  0  0  0  0  0  0  0  0
   -1.0873   -2.1629    0.4418 C   0  0  0  0  0  0  0  0  0  0  0  0
   -0.2073   -2.8549    0.9368 O   0  0  0  0  0  0  0  0  0  0  0  0
   -0.8713   -0.9449   -0.0482 N   0  0  0  0  0  0  0  0  0  0  0  0
   -1.6543   -0.4189   -0.4062 H   0  0  0  0  0  0  0  0  0  0  0  0
    0.4237   -0.2649   -0.0462 C   0  0  1  0  0  0  0  0  0  0  0  0
    0.5093    0.3279    0.8659 H   0  0  0  0  0  0  0  0  0  0  0  0
    1.5408   -1.3198   -0.0494 C   0  0  0  0  0  0  0  0  0  0  0  0
    1.4736   -1.9294   -0.9520 H   0  0  0  0  0  0  0  0  0  0  0  0
    2.5146   -0.8323   -0.0181 H   0  0  0  0  0  0  0  0  0  0  0  0
    1.4426   -1.9631    0.8267 H   0  0  0  0  0  0  0  0  0  0  0  0
    0.5471    0.6929   -1.2473 C   0  0  0  0  0  0  0  0  0  0  0  0
   -0.4484    1.0074   -1.8991 O   0  0  0  0  0  0  0  0  0  0  0  0
    1.7734    1.1413   -1.5442 N   0  0  0  0  0  0  0  0  0  0  0  0
    2.5405    0.8349   -0.9674 H   0  0  0  0  0  0  0  0  0  0  0  0
    2.0654    2.0467   -2.6546 C   0  0  0  0  0  0  0  0  0  0  0  0
    1.4531    2.9464   -2.5669 H   0  0  0  0  0  0  0  0  0  0  0  0
    3.1194    2.3280   -2.6483 H   0  0  0  0  0  0  0  0  0  0  0  0
    1.8280    1.5570   -3.6006 H   0  0  0  0  0  0  0  0  0  0  0  0
  5  6  2  0  0  0  0
  5  7  1  0  0  0  0
  2  3  1  0  0  0  0
  2  4  1  0  0  0  0
  2  5  1  0  0  0  0
  1  2  1  0  0  0  0
 15 16  2  0  0  0  0
 15 17  1  0  0  0  0
 11 12  1  0  0  0  0
 11 13  1  0  0  0  0
 11 14  1  0  0  0  0
  9 10  1  0  0  0  0
  9 11  1  0  0  0  0
  9 15  1  0  0  0  0
  7  8  1  0  0  0  0
  7  9  1  0  0  0  0
 19 20  1  0  0  0  0
 19 21  1  0  0  0  0
 19 22  1  0  0  0  0
 17 18  1  0  0  0  0
 17 19  1  0  0  0  0
M  END
$$$$
default_name
  -OEChem-01062215323D

 22 21  0     1  0  0  0  0  0999 V2000
   -2.5423   -3.6749    0.8058 H   0  0  0  0  0  0  0  0  0  0  0  0
   -2.5063   -2.6779    0.3688 C   0  0  0  0  0  0  0  0  0  0  0  0
   -3.1603   -2.0109    0.9268 H   0  0  0  0  0  0  0  0  0  0  0  0
   -2.8193   -2.7229   -0.6722 H   0  0  0  0  0  0  0  0  0  0  0  0
   -1.0873   -2.1629    0.4418 C   0  0  0  0  0  0  0  0  0  0  0  0
   -0.2073   -2.8549    0.9368 O   0  0  0  0  0  0  0  0  0  0  0  0
   -0.8713   -0.9449   -0.0482 N   0  0  0  0  0  0  0  0  0  0  0  0
   -1.6543   -0.4189   -0.4062 H   0  0  0  0  0  0  0  0  0  0  0  0
    0.4237   -0.2649   -0.0462 C   0  0  1  0  0  0  0  0  0  0  0  0
    0.5093    0.3279    0.8659 H   0  0  0  0  0  0  0  0  0  0  0  0
    1.5408   -1.3198   -0.0494 C   0  0  0  0  0  0  0  0  0  0  0  0
    1.4736   -1.9294   -0.9520 H   0  0  0  0  0  0  0  0  0  0  0  0
    2.5146   -0.8323   -0.0181 H   0  0  0  0  0  0  0  0  0  0  0  0
    1.4426   -1.9631    0.8267 H   0  0  0  0  0  0  0  0  0  0  0  0
    0.5471    0.6929   -1.2473 C   0  0  0  0  0  0  0  0  0  0  0  0
   -0.4542    1.2242   -1.7268 O   0  0  0  0  0  0  0  0  0  0  0  0
    1.7760    0.8977   -1.7382 N   0  0  0  0  0  0  0  0  0  0  0  0
    2.5463    0.4228   -1.2954 H   0  0  0  0  0  0  0  0  0  0  0  0
    2.0660    1.7671   -2.8775 C   0  0  0  0  0  0  0  0  0  0  0  0
    1.6713    2.7672   -2.6874 H   0  0  0  0  0  0  0  0  0  0  0  0
    3.1425    1.8315   -3.0419 H   0  0  0  0  0  0  0  0  0  0  0  0
    1.5869    1.3704   -3.7742 H   0  0  0  0  0  0  0  0  0  0  0  0
  5  6  2  0  0  0  0
  5  7  1  0  0  0  0
  2  3  1  0  0  0  0
  2  4  1  0  0  0  0
  2  5  1  0  0  0  0
  1  2  1  0  0  0  0
 15 16  2  0  0  0  0
 15 17  1  0  0  0  0
 11 12  1  0  0  0  0
 11 13  1  0  0  0  0
 11 14  1  0  0  0  0
  9 10  1  0  0  0  0
  9 11  1  0  0  0  0
  9 15  1  0  0  0  0
  7  8  1  0  0  0  0
  7  9  1  0  0  0  0
 19 20  1  0  0  0  0
 19 21  1  0  0  0  0
 19 22  1  0  0  0  0
 17 18  1  0  0  0  0
 17 19  1  0  0  0  0
M  END
$$$$
default_name
  -OEChem-01062215323D

 22 21  0     1  0  0  0  0  0999 V2000
   -2.5423   -3.6749    0.8058 H   0  0  0  0  0  0  0  0  0  0  0  0
   -2.5063   -2.6779    0.3688 C   0  0  0  0  0  0  0  0  0  0  0  0
   -3.1603   -2.0109    0.9268 H   0  0  0  0  0  0  0  0  0  0  0  0
   -2.8193   -2.7229   -0.6722 H   0  0  0  0  0  0  0  0  0  0  0  0
   -1.0873   -2.1629    0.4418 C   0  0  0  0  0  0  0  0  0  0  0  0
   -0.2073   -2.8549    0.9368 O   0  0  0  0  0  0  0  0  0  0  0  0
   -0.8713   -0.9449   -0.0482 N   0  0  0  0  0  0  0  0  0  0  0  0
   -1.6543   -0.4189   -0.4062 H   0  0  0  0  0  0  0  0  0  0  0  0
    0.4237   -0.2649   -0.0462 C   0  0  1  0  0  0  0  0  0  0  0  0
    0.5093    0.3279    0.8659 H   0  0  0  0  0  0  0  0  0  0  0  0
    1.5408   -1.3198   -0.0494 C   0  0  0  0  0  0  0  0  0  0  0  0
    1.4736   -1.9294   -0.9520 H   0  0  0  0  0  0  0  0  0  0  0  0
    2.5146   -0.8323   -0.0181 H   0  0  0  0  0  0  0  0  0  0  0  0
    1.4426   -1.9631    0.8267 H   0  0  0  0  0  0  0  0  0  0  0  0
    0.5471    0.6929   -1.2473 C   0  0  0  0  0  0  0  0  0  0  0  0
   -0.3883    1.4312   -1.5550 O   0  0  0  0  0  0  0  0  0  0  0  0
    1.6981    0.6659   -1.9310 N   0  0  0  0  0  0  0  0  0  0  0  0
    2.4161    0.0304   -1.6217 H   0  0  0  0  0  0  0  0  0  0  0  0
    1.9743    1.5015   -3.0987 C   0  0  0  0  0  0  0  0  0  0  0  0
    1.8266    2.5526   -2.8426 H   0  0  0  0  0  0  0  0  0  0  0  0
    3.0014    1.3553   -3.4360 H   0  0  0  0  0  0  0  0  0  0  0  0
    1.2884    1.2423   -3.9070 H   0  0  0  0  0  0  0  0  0  0  0  0
  5  6  2  0  0  0  0
  5  7  1  0  0  0  0
  2  3  1  0  0  0  0
  2  4  1  0  0  0  0
  2  5  1  0  0  0  0
  1  2  1  0  0  0  0
 15 16  2  0  0  0  0
 15 17  1  0  0  0  0
 11 12  1  0  0  0  0
 11 13  1  0  0  0  0
 11 14  1  0  0  0  0
  9 10  1  0  0  0  0
  9 11  1  0  0  0  0
  9 15  1  0  0  0  0
  7  8  1  0  0  0  0
  7  9  1  0  0  0  0
 19 20  1  0  0  0  0
 19 21  1  0  0  0  0
 19 22  1  0  0  0  0
 17 18  1  0  0  0  0
 17 19  1  0  0  0  0
M  END
$$$$
default_name
  -OEChem-01062215323D

 22 21  0     1  0  0  0  0  0999 V2000
   -2.5423   -3.6749    0.8058 H   0  0  0  0  0  0  0  0  0  0  0  0
   -2.5063   -2.6779    0.3688 C   0  0  0  0  0  0  0  0  0  0  0  0
   -3.1603   -2.0109    0.9268 H   0  0  0  0  0  0  0  0  0  0  0  0
   -2.8193   -2.7229   -0.6722 H   0  0  0  0  0  0  0  0  0  0  0  0
   -1.0873   -2.1629    0.4418 C   0  0  0  0  0  0  0  0  0  0  0  0
   -0.2073   -2.8549    0.9368 O   0  0  0  0  0  0  0  0  0  0  0  0
   -0.8713   -0.9449   -0.0482 N   0  0  0  0  0  0  0  0  0  0  0  0
   -1.6543   -0.4189   -0.4062 H   0  0  0  0  0  0  0  0  0  0  0  0
    0.4237   -0.2649   -0.0462 C   0  0  1  0  0  0  0  0  0  0  0  0
    0.5093    0.3279    0.8659 H   0  0  0  0  0  0  0  0  0  0  0  0
    1.5408   -1.3198   -0.0494 C   0  0  0  0  0  0  0  0  0  0  0  0
    1.4736   -1.9294   -0.9520 H   0  0  0  0  0  0  0  0  0  0  0  0
    2.5146   -0.8323   -0.0181 H   0  0  0  0  0  0  0  0  0  0  0  0
    1.4426   -1.9631    0.8267 H   0  0  0  0  0  0  0  0  0  0  0  0
    0.5471    0.6929   -1.2473 C   0  0  0  0  0  0  0  0  0  0  0  0
   -0.2553    1.6143   -1.3953 O   0  0  0  0  0  0  0  0  0  0  0  0
    1.5452    0.4617   -2.1096 N   0  0  0  0  0  0  0  0  0  0  0  0
    2.1587   -0.3156   -1.9241 H   0  0  0  0  0  0  0  0  0  0  0  0
    1.7966    1.2681   -3.3031 C   0  0  0  0  0  0  0  0  0  0  0  0
    1.9083    2.3171   -3.0220 H   0  0  0  0  0  0  0  0  0  0  0  0
    2.7057    0.9321   -3.8039 H   0  0  0  0  0  0  0  0  0  0  0  0
    0.9529    1.1815   -3.9899 H   0  0  0  0  0  0  0  0  0  0  0  0
  5  6  2  0  0  0  0
  5  7  1  0  0  0  0
  2  3  1  0  0  0  0
  2  4  1  0  0  0  0
  2  5  1  0  0  0  0
  1  2  1  0  0  0  0
 15 16  2  0  0  0  0
 15 17  1  0  0  0  0
 11 12  1  0  0  0  0
 11 13  1  0  0  0  0
 11 14  1  0  0  0  0
  9 10  1  0  0  0  0
  9 11  1  0  0  0  0
  9 15  1  0  0  0  0
  7  8  1  0  0  0  0
  7  9  1  0  0  0  0
 19 20  1  0  0  0  0
 19 21  1  0  0  0  0
 19 22  1  0  0  0  0
 17 18  1  0  0  0  0
 17 19  1  0  0  0  0
M  END
$$$$
default_name
  -OEChem-01062215323D

 22 21  0     1  0  0  0  0  0999 V2000
   -2.5423   -3.6749    0.8058 H   0  0  0  0  0  0  0  0  0  0  0  0
   -2.5063   -2.6779    0.3688 C   0  0  0  0  0  0  0  0  0  0  0  0
   -3.1603   -2.0109    0.9268 H   0  0  0  0  0  0  0  0  0  0  0  0
   -2.8193   -2.7229   -0.6722 H   0  0  0  0  0  0  0  0  0  0  0  0
   -1.0873   -2.1629    0.4418 C   0  0  0  0  0  0  0  0  0  0  0  0
   -0.2073   -2.8549    0.9368 O   0  0  0  0  0  0  0  0  0  0  0  0
   -0.8713   -0.9449   -0.0482 N   0  0  0  0  0  0  0  0  0  0  0  0
   -1.6543   -0.4189   -0.4062 H   0  0  0  0  0  0  0  0  0  0  0  0
    0.4237   -0.2649   -0.0462 C   0  0  1  0  0  0  0  0  0  0  0  0
    0.5093    0.3279    0.8659 H   0  0  0  0  0  0  0  0  0  0  0  0
    1.5408   -1.3198   -0.0494 C   0  0  0  0  0  0  0  0  0  0  0  0
    1.4736   -1.9294   -0.9520 H   0  0  0  0  0  0  0  0  0  0  0  0
    2.5146   -0.8323   -0.0181 H   0  0  0  0  0  0  0  0  0  0  0  0
    1.4426   -1.9631    0.8267 H   0  0  0  0  0  0  0  0  0  0  0  0
    0.5471    0.6929   -1.2473 C   0  0  0  0  0  0  0  0  0  0  0  0
   -0.0642    1.7611   -1.2587 O   0  0  0  0  0  0  0  0  0  0  0  0
    1.3275    0.2990   -2.2617 N   0  0  0  0  0  0  0  0  0  0  0  0
    1.7916   -0.5917   -2.1819 H   0  0  0  0  0  0  0  0  0  0  0  0
    1.5450    1.0826   -3.4768 C   0  0  0  0  0  0  0  0  0  0  0  0
    1.9110    2.0770   -3.2132 H   0  0  0  0  0  0  0  0  0  0  0  0
    2.2754    0.5905   -4.1205 H   0  0  0  0  0  0  0  0  0  0  0  0
    0.6033    1.1922   -4.0173 H   0  0  0  0  0  0  0  0  0  0  0  0
  5  6  2  0  0  0  0
  5  7  1  0  0  0  0
  2  3  1  0  0  0  0
  2  4  1  0  0  0  0
  2  5  1  0  0  0  0
  1  2  1  0  0  0  0
 15 16  2  0  0  0  0
 15 17  1  0  0  0  0
 11 12  1  0  0  0  0
 11 13  1  0  0  0  0
 11 14  1  0  0  0  0
  9 10  1  0  0  0  0
  9 11  1  0  0  0  0
  9 15  1  0  0  0  0
  7  8  1  0  0  0  0
  7  9  1  0  0  0  0
 19 20  1  0  0  0  0
 19 21  1  0  0  0  0
 19 22  1  0  0  0  0
 17 18  1  0  0  0  0
 17 19  1  0  0  0  0
M  END
$$$$
default_name
  -OEChem-01062215323D

 22 21  0     1  0  0  0  0  0999 V2000
   -2.5423   -3.6749    0.8058 H   0  0  0  0  0  0  0  0  0  0  0  0
   -2.5063   -2.6779    0.3688 C   0  0  0  0  0  0  0  0  0  0  0  0
   -3.1603   -2.0109    0.9268 H   0  0  0  0  0  0  0  0  0  0  0  0
   -2.8193   -2.7229   -0.6722 H   0  0  0  0  0  0  0  0  0  0  0  0
   -1.0873   -2.1629    0.4418 C   0  0  0  0  0  0  0  0  0  0  0  0
   -0.2073   -2.8549    0.9368 O   0  0  0  0  0  0  0  0  0  0  0  0
   -0.8713   -0.9449   -0.0482 N   0  0  0  0  0  0  0  0  0  0  0  0
   -1.6543   -0.4189   -0.4062 H   0  0  0  0  0  0  0  0  0  0  0  0
    0.4237   -0.2649   -0.0462 C   0  0  1  0  0  0  0  0  0  0  0  0
    0.5093    0.3279    0.8659 H   0  0  0  0  0  0  0  0  0  0  0  0
    1.5408   -1.3198   -0.0494 C   0  0  0  0  0  0  0  0  0  0  0  0
    1.4736   -1.9294   -0.9520 H   0  0  0  0  0  0  0  0  0  0  0  0
    2.5146   -0.8323   -0.0181 H   0  0  0  0  0  0  0  0  0  0  0  0
    1.4426   -1.9631    0.8267 H   0  0  0  0  0  0  0  0  0  0  0  0
    0.5471    0.6929   -1.2473 C   0  0  0  0  0  0  0  0  0  0  0  0
    0.1720    1.8614   -1.1544 O   0  0  0  0  0  0  0  0  0  0  0  0
    1.0599    0.1889   -2.3770 N   0  0  0  0  0  0  0  0  0  0  0  0
    1.3398   -0.7789   -2.3776 H   0  0  0  0  0  0  0  0  0  0  0  0
    1.2366    0.9579   -3.6079 C   0  0  0  0  0  0  0  0  0  0  0  0
    1.8343    1.8484   -3.4033 H   0  0  0  0  0  0  0  0  0  0  0  0
    1.7401    0.3539   -4.3642 H   0  0  0  0  0  0  0  0  0  0  0  0
    0.2633    1.2737   -3.9873 H   0  0  0  0  0  0  0  0  0  0  0  0
  5  6  2  0  0  0  0
  5  7  1  0  0  0  0
  2  3  1  0  0  0  0
  2  4  1  0  0  0  0
  2  5  1  0  0  0  0
  1  2  1  0  0  0  0
 15 16  2  0  0  0  0
 15 17  1  0  0  0  0
 11 12  1  0  0  0  0
 11 13  1  0  0  0  0
 11 14  1  0  0  0  0
  9 10  1  0  0  0  0
  9 11  1  0  0  0  0
  9 15  1  0  0  0  0
  7  8  1  0  0  0  0
  7  9  1  0  0  0  0
 19 20  1  0  0  0  0
 19 21  1  0  0  0  0
 19 22  1  0  0  0  0
 17 18  1  0  0  0  0
 17 19  1  0  0  0  0
M  END
$$$$
default_name
  -OEChem-01062215323D

 22 21  0     1  0  0  0  0  0999 V2000
   -2.5423   -3.6749    0.8058 H   0  0  0  0  0  0  0  0  0  0  0  0
   -2.5063   -2.6779    0.3688 C   0  0  0  0  0  0  0  0  0  0  0  0
   -3.1603   -2.0109    0.9268 H   0  0  0  0  0  0  0  0  0  0  0  0
   -2.8193   -2.7229   -0.6722 H   0  0  0  0  0  0  0  0  0  0  0  0
   -1.0873   -2.1629    0.4418 C   0  0  0  0  0  0  0  0  0  0  0  0
   -0.2073   -2.8549    0.9368 O   0  0  0  0  0  0  0  0  0  0  0  0
   -0.8713   -0.9449   -0.0482 N   0  0  0  0  0  0  0  0  0  0  0  0
   -1.6543   -0.4189   -0.4062 H   0  0  0  0  0  0  0  0  0  0  0  0
    0.4237   -0.2649   -0.0462 C   0  0  1  0  0  0  0  0  0  0  0  0
    0.5093    0.3279    0.8659 H   0  0  0  0  0  0  0  0  0  0  0  0
    1.5408   -1.3198   -0.0494 C   0  0  0  0  0  0  0  0  0  0  0  0
    1.4736   -1.9294   -0.9520 H   0  0  0  0  0  0  0  0  0  0  0  0
    2.5146   -0.8323   -0.0181 H   0  0  0  0  0  0  0  0  0  0  0  0
    1.4426   -1.9631    0.8267 H   0  0  0  0  0  0  0  0  0  0  0  0
    0.5471    0.6929   -1.2473 C   0  0  0  0  0  0  0  0  0  0  0  0
    0.4371    1.9086   -1.0896 O   0  0  0  0  0  0  0  0  0  0  0  0
    0.7608    0.1389   -2.4475 N   0  0  0  0  0  0  0  0  0  0  0  0
    0.8342   -0.8646   -2.4979 H   0  0  0  0  0  0  0  0  0  0  0  0
    0.8925    0.9023   -3.6876 C   0  0  0  0  0  0  0  0  0  0  0  0
    1.6835    1.6471   -3.5794 H   0  0  0  0  0  0  0  0  0  0  0  0
    1.1360    0.2384   -4.5183 H   0  0  0  0  0  0  0  0  0  0  0  0
   -0.0439    1.4203   -3.9019 H   0  0  0  0  0  0  0  0  0  0  0  0
  5  6  2  0  0  0  0
  5  7  1  0  0  0  0
  2  3  1  0  0  0  0
  2  4  1  0  0  0  0
  2  5  1  0  0  0  0
  1  2  1  0  0  0  0
 15 16  2  0  0  0  0
 15 17  1  0  0  0  0
 11 12  1  0  0  0  0
 11 13  1  0  0  0  0
 11 14  1  0  0  0  0
  9 10  1  0  0  0  0
  9 11  1  0  0  0  0
  9 15  1  0  0  0  0
  7  8  1  0  0  0  0
  7  9  1  0  0  0  0
 19 20  1  0  0  0  0
 19 21  1  0  0  0  0
 19 22  1  0  0  0  0
 17 18  1  0  0  0  0
 17 19  1  0  0  0  0
M  END
$$$$
default_name
  -OEChem-01062215323D

 22 21  0     1  0  0  0  0  0999 V2000
   -2.5423   -3.6749    0.8058 H   0  0  0  0  0  0  0  0  0  0  0  0
   -2.5063   -2.6779    0.3688 C   0  0  0  0  0  0  0  0  0  0  0  0
   -3.1603   -2.0109    0.9268 H   0  0  0  0  0  0  0  0  0  0  0  0
   -2.8193   -2.7229   -0.6722 H   0  0  0  0  0  0  0  0  0  0  0  0
   -1.0873   -2.1629    0.4418 C   0  0  0  0  0  0  0  0  0  0  0  0
   -0.2073   -2.8549    0.9368 O   0  0  0  0  0  0  0  0  0  0  0  0
   -0.8713   -0.9449   -0.0482 N   0  0  0  0  0  0  0  0  0  0  0  0
   -1.6543   -0.4189   -0.4062 H   0  0  0  0  0  0  0  0  0  0  0  0
    0.4237   -0.2649   -0.0462 C   0  0  1  0  0  0  0  0  0  0  0  0
    0.5093    0.3279    0.8659 H   0  0  0  0  0  0  0  0  0  0  0  0
    1.5408   -1.3198   -0.0494 C   0  0  0  0  0  0  0  0  0  0  0  0
    1.4736   -1.9294   -0.9520 H   0  0  0  0  0  0  0  0  0  0  0  0
    2.5146   -0.8323   -0.0181 H   0  0  0  0  0  0  0  0  0  0  0  0
    1.4426   -1.9631    0.8267 H   0  0  0  0  0  0  0  0  0  0  0  0
    0.5471    0.6929   -1.2473 C   0  0  0  0  0  0  0  0  0  0  0  0
    0.7131    1.8993   -1.0686 O   0  0  0  0  0  0  0  0  0  0  0  0
    0.4504    0.1524   -2.4686 N   0  0  0  0  0  0  0  0  0  0  0  0
    0.3092   -0.8429   -2.5345 H   0  0  0  0  0  0  0  0  0  0  0  0
    0.5361    0.9197   -3.7104 C   0  0  0  0  0  0  0  0  0  0  0  0
    1.4690    1.4866   -3.7294 H   0  0  0  0  0  0  0  0  0  0  0  0
    0.5045    0.2519   -4.5725 H   0  0  0  0  0  0  0  0  0  0  0  0
   -0.2972    1.6221   -3.7670 H   0  0  0  0  0  0  0  0  0  0  0  0
  5  6  2  0  0  0  0
  5  7  1  0  0  0  0
  2  3  1  0  0  0  0
  2  4  1  0  0  0  0
  2  5  1  0  0  0  0
  1  2  1  0  0  0  0
 15 16  2  0  0  0  0
 15 17  1  0  0  0  0
 11 12  1  0  0  0  0
 11 13  1  0  0  0  0
 11 14  1  0  0  0  0
  9 10  1  0  0  0  0
  9 11  1  0  0  0  0
  9 15  1  0  0  0  0
  7  8  1  0  0  0  0
  7  9  1  0  0  0  0
 19 20  1  0  0  0  0
 19 21  1  0  0  0  0
 19 22  1  0  0  0  0
 17 18  1  0  0  0  0
 17 19  1  0  0  0  0
M  END
$$$$
default_name
  -OEChem-01062215323D

 22 21  0     1  0  0  0  0  0999 V2000
   -2.5423   -3.6749    0.8058 H   0  0  0  0  0  0  0  0  0  0  0  0
   -2.5063   -2.6779    0.3688 C   0  0  0  0  0  0  0  0  0  0  0  0
   -3.1603   -2.0109    0.9268 H   0  0  0  0  0  0  0  0  0  0  0  0
   -2.8193   -2.7229   -0.6722 H   0  0  0  0  0  0  0  0  0  0  0  0
   -1.0873   -2.1629    0.4418 C   0  0  0  0  0  0  0  0  0  0  0  0
   -0.2073   -2.8549    0.9368 O   0  0  0  0  0  0  0  0  0  0  0  0
   -0.8713   -0.9449   -0.0482 N   0  0  0  0  0  0  0  0  0  0  0  0
   -1.6543   -0.4189   -0.4062 H   0  0  0  0  0  0  0  0  0  0  0  0
    0.4237   -0.2649   -0.0462 C   0  0  1  0  0  0  0  0  0  0  0  0
    0.5093    0.3279    0.8659 H   0  0  0  0  0  0  0  0  0  0  0  0
    1.5408   -1.3198   -0.0494 C   0  0  0  0  0  0  0  0  0  0  0  0
    1.4736   -1.9294   -0.9520 H   0  0  0  0  0  0  0  0  0  0  0  0
    2.5146   -0.8323   -0.0181 H   0  0  0  0  0  0  0  0  0  0  0  0
    1.4426   -1.9631    0.8267 H   0  0  0  0  0  0  0  0  0  0  0  0
    0.5471    0.6929   -1.2473 C   0  0  0  0  0  0  0  0  0  0  0  0
    0.9813    1.8342   -1.0930 O   0  0  0  0  0  0  0  0  0  0  0  0
    0.1499    0.2286   -2.4388 N   0  0  0  0  0  0  0  0  0  0  0  0
   -0.1995   -0.7153   -2.4850 H   0  0  0  0  0  0  0  0  0  0  0  0
    0.1917    1.0088   -3.6747 C   0  0  0  0  0  0  0  0  0  0  0  0
    1.2053    1.3780   -3.8431 H   0  0  0  0  0  0  0  0  0  0  0  0
   -0.1116    0.3934   -4.5229 H   0  0  0  0  0  0  0  0  0  0  0  0
   -0.4796    1.8653   -3.5918 H   0  0  0  0  0  0  0  0  0  0  0  0
  5  6  2  0  0  0  0
  5  7  1  0  0  0  0
  2  3  1  0  0  0  0
  2  4  1  0  0  0  0
  2  5  1  0  0  0  0
  1  2  1  0  0  0  0
 15 16  2  0  0  0  0
 15 17  1  0  0  0  0
 11 12  1  0  0  0  0
 11 13  1  0  0  0  0
 11 14  1  0  0  0  0
  9 10  1  0  0  0  0
  9 11  1  0  0  0  0
  9 15  1  0  0  0  0
  7  8  1  0  0  0  0
  7  9  1  0  0  0  0
 19 20  1  0  0  0  0
 19 21  1  0  0  0  0
 19 22  1  0  0  0  0
 17 18  1  0  0  0  0
 17 19  1  0  0  0  0
M  END
$$$$
default_name
  -OEChem-01062215323D

 22 21  0     1  0  0  0  0  0999 V2000
   -2.5423   -3.6749    0.8058 H   0  0  0  0  0  0  0  0  0  0  0  0
   -2.5063   -2.6779    0.3688 C   0  0  0  0  0  0  0  0  0  0  0  0
   -3.1603   -2.0109    0.9268 H   0  0  0  0  0  0  0  0  0  0  0  0
   -2.8193   -2.7229   -0.6722 H   0  0  0  0  0  0  0  0  0  0  0  0
   -1.0873   -2.1629    0.4418 C   0  0  0  0  0  0  0  0  0  0  0  0
   -0.2073   -2.8549    0.9368 O   0  0  0  0  0  0  0  0  0  0  0  0
   -0.8713   -0.9449   -0.0482 N   0  0  0  0  0  0  0  0  0  0  0  0
   -1.6543   -0.4189   -0.4062 H   0  0  0  0  0  0  0  0  0  0  0  0
    0.4237   -0.2649   -0.0462 C   0  0  1  0  0  0  0  0  0  0  0  0
    0.5093    0.3279    0.8659 H   0  0  0  0  0  0  0  0  0  0  0  0
    1.5408   -1.3198   -0.0494 C   0  0  0  0  0  0  0  0  0  0  0  0
    1.4736   -1.9294   -0.9520 H   0  0  0  0  0  0  0  0  0  0  0  0
    2.5146   -0.8323   -0.0181 H   0  0  0  0  0  0  0  0  0  0  0  0
    1.4426   -1.9631    0.8267 H   0  0  0  0  0  0  0  0  0  0  0  0
    0.5471    0.6929   -1.2473 C   0  0  0  0  0  0  0  0  0  0  0  0
    1.2232    1.7177   -1.1610 O   0  0  0  0  0  0  0  0  0  0  0  0
   -0.1203    0.3621   -2.3601 N   0  0  0  0  0  0  0  0  0  0  0  0
   -0.6571   -0.4904   -2.3527 H   0  0  0  0  0  0  0  0  0  0  0  0
   -0.1173    1.1637   -3.5829 C   0  0  0  0  0  0  0  0  0  0  0  0
    0.9104    1.3287   -3.9127 H   0  0  0  0  0  0  0  0  0  0  0  0
   -0.6701    0.6534   -4.3730 H   0  0  0  0  0  0  0  0  0  0  0  0
   -0.5784    2.1334   -3.3881 H   0  0  0  0  0  0  0  0  0  0  0  0
  5  6  2  0  0  0  0
  5  7  1  0  0  0  0
  2  3  1  0  0  0  0
  2  4  1  0  0  0  0
  2  5  1  0  0  0  0
  1  2  1  0  0  0  0
 15 16  2  0  0  0  0
 15 17  1  0  0  0  0
 11 12  1  0  0  0  0
 11 13  1  0  0  0  0
 11 14  1  0  0  0  0
  9 10  1  0  0  0  0
  9 11  1  0  0  0  0
  9 15  1  0  0  0  0
  7  8  1  0  0  0  0
  7  9  1  0  0  0  0
 19 20  1  0  0  0  0
 19 21  1  0  0  0  0
 19 22  1  0  0  0  0
 17 18  1  0  0  0  0
 17 19  1  0  0  0  0
M  END
$$$$
default_name
  -OEChem-01062215323D

 22 21  0     1  0  0  0  0  0999 V2000
   -2.5423   -3.6749    0.8058 H   0  0  0  0  0  0  0  0  0  0  0  0
   -2.5063   -2.6779    0.3688 C   0  0  0  0  0  0  0  0  0  0  0  0
   -3.1603   -2.0109    0.9268 H   0  0  0  0  0  0  0  0  0  0  0  0
   -2.8193   -2.7229   -0.6722 H   0  0  0  0  0  0  0  0  0  0  0  0
   -1.0873   -2.1629    0.4418 C   0  0  0  0  0  0  0  0  0  0  0  0
   -0.2073   -2.8549    0.9368 O   0  0  0  0  0  0  0  0  0  0  0  0
   -0.8713   -0.9449   -0.0482 N   0  0  0  0  0  0  0  0  0  0  0  0
   -1.6543   -0.4189   -0.4062 H   0  0  0  0  0  0  0  0  0  0  0  0
    0.4237   -0.2649   -0.0462 C   0  0  1  0  0  0  0  0  0  0  0  0
    0.5093    0.3279    0.8659 H   0  0  0  0  0  0  0  0  0  0  0  0
    1.5408   -1.3198   -0.0494 C   0  0  0  0  0  0  0  0  0  0  0  0
    1.4736   -1.9294   -0.9520 H   0  0  0  0  0  0  0  0  0  0  0  0
    2.5146   -0.8323   -0.0181 H   0  0  0  0  0  0  0  0  0  0  0  0
    1.4426   -1.9631    0.8267 H   0  0  0  0  0  0  0  0  0  0  0  0
    0.5471    0.6929   -1.2473 C   0  0  0  0  0  0  0  0  0  0  0  0
    1.4225    1.5579   -1.2680 O   0  0  0  0  0  0  0  0  0  0  0  0
   -0.3416    0.5439   -2.2378 N   0  0  0  0  0  0  0  0  0  0  0  0
   -1.0324   -0.1837   -2.1467 H   0  0  0  0  0  0  0  0  0  0  0  0
   -0.3698    1.3737   -3.4414 C   0  0  0  0  0  0  0  0  0  0  0  0
    0.6043    1.3419   -3.9336 H   0  0  0  0  0  0  0  0  0  0  0  0
   -1.1330    1.0140   -4.1329 H   0  0  0  0  0  0  0  0  0  0  0  0
   -0.5871    2.4081   -3.1700 H   0  0  0  0  0  0  0  0  0  0  0  0
  5  6  2  0  0  0  0
  5  7  1  0  0  0  0
  2  3  1  0  0  0  0
  2  4  1  0  0  0  0
  2  5  1  0  0  0  0
  1  2  1  0  0  0  0
 15 16  2  0  0  0  0
 15 17  1  0  0  0  0
 11 12  1  0  0  0  0
 11 13  1  0  0  0  0
 11 14  1  0  0  0  0
  9 10  1  0  0  0  0
  9 11  1  0  0  0  0
  9 15  1  0  0  0  0
  7  8  1  0  0  0  0
  7  9  1  0  0  0  0
 19 20  1  0  0  0  0
 19 21  1  0  0  0  0
 19 22  1  0  0  0  0
 17 18  1  0  0  0  0
 17 19  1  0  0  0  0
M  END
$$$$
default_name
  -OEChem-01062215323D

 22 21  0     1  0  0  0  0  0999 V2000
   -2.5423   -3.6749    0.8058 H   0  0  0  0  0  0  0  0  0  0  0  0
   -2.5063   -2.6779    0.3688 C   0  0  0  0  0  0  0  0  0  0  0  0
   -3.1603   -2.0109    0.9268 H   0  0  0  0  0  0  0  0  0  0  0  0
   -2.8193   -2.7229   -0.6722 H   0  0  0  0  0  0  0  0  0  0  0  0
   -1.0873   -2.1629    0.4418 C   0  0  0  0  0  0  0  0  0  0  0  0
   -0.2073   -2.8549    0.9368 O   0  0  0  0  0  0  0  0  0  0  0  0
   -0.8713   -0.9449   -0.0482 N   0  0  0  0  0  0  0  0  0  0  0  0
   -1.6543   -0.4189   -0.4062 H   0  0  0  0  0  0  0  0  0  0  0  0
    0.4237   -0.2649   -0.0462 C   0  0  1  0  0  0  0  0  0  0  0  0
    0.5093    0.3279    0.8659 H   0  0  0  0  0  0  0  0  0  0  0  0
    1.5408   -1.3198   -0.0494 C   0  0  0  0  0  0  0  0  0  0  0  0
    1.4736   -1.9294   -0.9520 H   0  0  0  0  0  0  0  0  0  0  0  0
    2.5146   -0.8323   -0.0181 H   0  0  0  0  0  0  0  0  0  0  0  0
    1.4426   -1.9631    0.8267 H   0  0  0  0  0  0  0  0  0  0  0  0
    0.5471    0.6929   -1.2473 C   0  0  0  0  0  0  0  0  0  0  0  0
    1.5655    1.3654   -1.4067 O   0  0  0  0  0  0  0  0  0  0  0  0
   -0.4990    0.7616   -2.0804 N   0  0  0  0  0  0  0  0  0  0  0  0
   -1.3000    0.1841   -1.8809 H   0  0  0  0  0  0  0  0  0  0  0  0
   -0.5485    1.6245   -3.2598 C   0  0  0  0  0  0  0  0  0  0  0  0
    0.3080    1.4169   -3.9042 H   0  0  0  0  0  0  0  0  0  0  0  0
   -1.4688    1.4508   -3.8192 H   0  0  0  0  0  0  0  0  0  0  0  0
   -0.5050    2.6707   -2.9522 H   0  0  0  0  0  0  0  0  0  0  0  0
  5  6  2  0  0  0  0
  5  7  1  0  0  0  0
  2  3  1  0  0  0  0
  2  4  1  0  0  0  0
  2  5  1  0  0  0  0
  1  2  1  0  0  0  0
 15 16  2  0  0  0  0
 15 17  1  0  0  0  0
 11 12  1  0  0  0  0
 11 13  1  0  0  0  0
 11 14  1  0  0  0  0
  9 10  1  0  0  0  0
  9 11  1  0  0  0  0
  9 15  1  0  0  0  0
  7  8  1  0  0  0  0
  7  9  1  0  0  0  0
 19 20  1  0  0  0  0
 19 21  1  0  0  0  0
 19 22  1  0  0  0  0
 17 18  1  0  0  0  0
 17 19  1  0  0  0  0
M  END
$$$$
default_name
  -OEChem-01062215323D

 22 21  0     1  0  0  0  0  0999 V2000
   -2.5423   -3.6749    0.8058 H   0  0  0  0  0  0  0  0  0  0  0  0
   -2.5063   -2.6779    0.3688 C   0  0  0  0  0  0  0  0  0  0  0  0
   -3.1603   -2.0109    0.9268 H   0  0  0  0  0  0  0  0  0  0  0  0
   -2.8193   -2.7229   -0.6722 H   0  0  0  0  0  0  0  0  0  0  0  0
   -1.0873   -2.1629    0.4418 C   0  0  0  0  0  0  0  0  0  0  0  0
   -0.2073   -2.8549    0.9368 O   0  0  0  0  0  0  0  0  0  0  0  0
   -0.8713   -0.9449   -0.0482 N   0  0  0  0  0  0  0  0  0  0  0  0
   -1.6543   -0.4189   -0.4062 H   0  0  0  0  0  0  0  0  0  0  0  0
    0.4237   -0.2649   -0.0462 C   0  0  1  0  0  0  0  0  0  0  0  0
    0.5093    0.3279    0.8659 H   0  0  0  0  0  0  0  0  0  0  0  0
    1.5408   -1.3198   -0.0494 C   0  0  0  0  0  0  0  0  0  0  0  0
    1.4736   -1.9294   -0.9520 H   0  0  0  0  0  0  0  0  0  0  0  0
    2.5146   -0.8323   -0.0181 H   0  0  0  0  0  0  0  0  0  0  0  0
    1.4426   -1.9631    0.8267 H   0  0  0  0  0  0  0  0  0  0  0  0
    0.5471    0.6929   -1.2473 C   0  0  0  0  0  0  0  0  0  0  0  0
    1.6425    1.1536   -1.5677 O   0  0  0  0  0  0  0  0  0  0  0  0
   -0.5818    1.0005   -1.8985 N   0  0  0  0  0  0  0  0  0  0  0  0
   -1.4415    0.5877   -1.5736 H   0  0  0  0  0  0  0  0  0  0  0  0
   -0.6414    1.8991   -3.0504 C   0  0  0  0  0  0  0  0  0  0  0  0
    0.0417    1.5485   -3.8267 H   0  0  0  0  0  0  0  0  0  0  0  0
   -1.6546    1.9339   -3.4530 H   0  0  0  0  0  0  0  0  0  0  0  0
   -0.3377    2.9032   -2.7496 H   0  0  0  0  0  0  0  0  0  0  0  0
  5  6  2  0  0  0  0
  5  7  1  0  0  0  0
  2  3  1  0  0  0  0
  2  4  1  0  0  0  0
  2  5  1  0  0  0  0
  1  2  1  0  0  0  0
 15 16  2  0  0  0  0
 15 17  1  0  0  0  0
 11 12  1  0  0  0  0
 11 13  1  0  0  0  0
 11 14  1  0  0  0  0
  9 10  1  0  0  0  0
  9 11  1  0  0  0  0
  9 15  1  0  0  0  0
  7  8  1  0  0  0  0
  7  9  1  0  0  0  0
 19 20  1  0  0  0  0
 19 21  1  0  0  0  0
 19 22  1  0  0  0  0
 17 18  1  0  0  0  0
 17 19  1  0  0  0  0
M  END
$$$$
default_name
  -OEChem-01062215323D

 22 21  0     1  0  0  0  0  0999 V2000
   -2.5423   -3.6749    0.8058 H   0  0  0  0  0  0  0  0  0  0  0  0
   -2.5063   -2.6779    0.3688 C   0  0  0  0  0  0  0  0  0  0  0  0
   -3.1603   -2.0109    0.9268 H   0  0  0  0  0  0  0  0  0  0  0  0
   -2.8193   -2.7229   -0.6722 H   0  0  0  0  0  0  0  0  0  0  0  0
   -1.0873   -2.1629    0.4418 C   0  0  0  0  0  0  0  0  0  0  0  0
   -0.2073   -2.8549    0.9368 O   0  0  0  0  0  0  0  0  0  0  0  0
   -0.8713   -0.9449   -0.0482 N   0  0  0  0  0  0  0  0  0  0  0  0
   -1.6543   -0.4189   -0.4062 H   0  0  0  0  0  0  0  0  0  0  0  0
    0.4237   -0.2649   -0.0462 C   0  0  1  0  0  0  0  0  0  0  0  0
    0.5093    0.3279    0.8659 H   0  0  0  0  0  0  0  0  0  0  0  0
    1.5408   -1.3198   -0.0494 C   0  0  0  0  0  0  0  0  0  0  0  0
    1.4736   -1.9294   -0.9520 H   0  0  0  0  0  0  0  0  0  0  0  0
    2.5146   -0.8323   -0.0181 H   0  0  0  0  0  0  0  0  0  0  0  0
    1.4426   -1.9631    0.8267 H   0  0  0  0  0  0  0  0  0  0  0  0
    0.5471    0.6929   -1.2473 C   0  0  0  0  0  0  0  0  0  0  0  0
    1.6483    0.9368   -1.7400 O   0  0  0  0  0  0  0  0  0  0  0  0
   -0.5844    1.2441   -1.7045 N   0  0  0  0  0  0  0  0  0  0  0  0
   -1.4474    0.9998   -1.2455 H   0  0  0  0  0  0  0  0  0  0  0  0
   -0.6420    2.1787   -2.8275 C   0  0  0  0  0  0  0  0  0  0  0  0
   -0.1765    1.7277   -3.7062 H   0  0  0  0  0  0  0  0  0  0  0  0
   -1.6778    2.4304   -3.0594 H   0  0  0  0  0  0  0  0  0  0  0  0
   -0.0966    3.0899   -2.5759 H   0  0  0  0  0  0  0  0  0  0  0  0
  5  6  2  0  0  0  0
  5  7  1  0  0  0  0
  2  3  1  0  0  0  0
  2  4  1  0  0  0  0
  2  5  1  0  0  0  0
  1  2  1  0  0  0  0
 15 16  2  0  0  0  0
 15 17  1  0  0  0  0
 11 12  1  0  0  0  0
 11 13  1  0  0  0  0
 11 14  1  0  0  0  0
  9 10  1  0  0  0  0
  9 11  1  0  0  0  0
  9 15  1  0  0  0  0
  7  8  1  0  0  0  0
  7  9  1  0  0  0  0
 19 20  1  0  0  0  0
 19 21  1  0  0  0  0
 19 22  1  0  0  0  0
 17 18  1  0  0  0  0
 17 19  1  0  0  0  0
M  END
$$$$
default_name
  -OEChem-01062215323D

 22 21  0     1  0  0  0  0  0999 V2000
   -2.5423   -3.6749    0.8058 H   0  0  0  0  0  0  0  0  0  0  0  0
   -2.5063   -2.6779    0.3688 C   0  0  0  0  0  0  0  0  0  0  0  0
   -3.1603   -2.0109    0.9268 H   0  0  0  0  0  0  0  0  0  0  0  0
   -2.8193   -2.7229   -0.6722 H   0  0  0  0  0  0  0  0  0  0  0  0
   -1.0873   -2.1629    0.4418 C   0  0  0  0  0  0  0  0  0  0  0  0
   -0.2073   -2.8549    0.9368 O   0  0  0  0  0  0  0  0  0  0  0  0
   -0.8713   -0.9449   -0.0482 N   0  0  0  0  0  0  0  0  0  0  0  0
   -1.6543   -0.4189   -0.4062 H   0  0  0  0  0  0  0  0  0  0  0  0
    0.4237   -0.2649   -0.0462 C   0  0  1  0  0  0  0  0  0  0  0  0
    0.5093    0.3279    0.8659 H   0  0  0  0  0  0  0  0  0  0  0  0
    1.5408   -1.3198   -0.0494 C   0  0  0  0  0  0  0  0  0  0  0  0
    1.4736   -1.9294   -0.9520 H   0  0  0  0  0  0  0  0  0  0  0  0
    2.5146   -0.8323   -0.0181 H   0  0  0  0  0  0  0  0  0  0  0  0
    1.4426   -1.9631    0.8267 H   0  0  0  0  0  0  0  0  0  0  0  0
    0.5471    0.6929   -1.2473 C   0  0  0  0  0  0  0  0  0  0  0  0
    1.5824    0.7298   -1.9119 O   0  0  0  0  0  0  0  0  0  0  0  0
   -0.5065    1.4759   -1.5116 N   0  0  0  0  0  0  0  0  0  0  0  0
   -1.3171    1.3923   -0.9192 H   0  0  0  0  0  0  0  0  0  0  0  0
   -0.5503    2.4442   -2.6063 C   0  0  0  0  0  0  0  0  0  0  0  0
   -0.3318    1.9423   -3.5510 H   0  0  0  0  0  0  0  0  0  0  0  0
   -1.5367    2.9065   -2.6653 H   0  0  0  0  0  0  0  0  0  0  0  0
    0.2019    3.2180   -2.4431 H   0  0  0  0  0  0  0  0  0  0  0  0
  5  6  2  0  0  0  0
  5  7  1  0  0  0  0
  2  3  1  0  0  0  0
  2  4  1  0  0  0  0
  2  5  1  0  0  0  0
  1  2  1  0  0  0  0
 15 16  2  0  0  0  0
 15 17  1  0  0  0  0
 11 12  1  0  0  0  0
 11 13  1  0  0  0  0
 11 14  1  0  0  0  0
  9 10  1  0  0  0  0
  9 11  1  0  0  0  0
  9 15  1  0  0  0  0
  7  8  1  0  0  0  0
  7  9  1  0  0  0  0
 19 20  1  0  0  0  0
 19 21  1  0  0  0  0
 19 22  1  0  0  0  0
 17 18  1  0  0  0  0
 17 19  1  0  0  0  0
M  END
$$$$
default_name
  -OEChem-01062215323D

 22 21  0     1  0  0  0  0  0999 V2000
   -2.5423   -3.6749    0.8058 H   0  0  0  0  0  0  0  0  0  0  0  0
   -2.5063   -2.6779    0.3688 C   0  0  0  0  0  0  0  0  0  0  0  0
   -3.1603   -2.0109    0.9268 H   0  0  0  0  0  0  0  0  0  0  0  0
   -2.8193   -2.7229   -0.6722 H   0  0  0  0  0  0  0  0  0  0  0  0
   -1.0873   -2.1629    0.4418 C   0  0  0  0  0  0  0  0  0  0  0  0
   -0.2073   -2.8549    0.9368 O   0  0  0  0  0  0  0  0  0  0  0  0
   -0.8713   -0.9449   -0.0482 N   0  0  0  0  0  0  0  0  0  0  0  0
   -1.6543   -0.4189   -0.4062 H   0  0  0  0  0  0  0  0  0  0  0  0
    0.4237   -0.2649   -0.0462 C   0  0  1  0  0  0  0  0  0  0  0  0
    0.5093    0.3279    0.8659 H   0  0  0  0  0  0  0  0  0  0  0  0
    1.5408   -1.3198   -0.0494 C   0  0  0  0  0  0  0  0  0  0  0  0
    1.4736   -1.9294   -0.9520 H   0  0  0  0  0  0  0  0  0  0  0  0
    2.5146   -0.8323   -0.0181 H   0  0  0  0  0  0  0  0  0  0  0  0
    1.4426   -1.9631    0.8267 H   0  0  0  0  0  0  0  0  0  0  0  0
    0.5471    0.6929   -1.2473 C   0  0  0  0  0  0  0  0  0  0  0  0
    1.4494    0.5467   -2.0716 O   0  0  0  0  0  0  0  0  0  0  0  0
   -0.3535    1.6801   -1.3331 N   0  0  0  0  0  0  0  0  0  0  0  0
   -1.0597    1.7383   -0.6168 H   0  0  0  0  0  0  0  0  0  0  0  0
   -0.3726    2.6777   -2.4018 C   0  0  0  0  0  0  0  0  0  0  0  0
   -0.4136    2.1778   -3.3716 H   0  0  0  0  0  0  0  0  0  0  0  0
   -1.2409    3.3298   -2.2974 H   0  0  0  0  0  0  0  0  0  0  0  0
    0.5374    3.2787   -2.3602 H   0  0  0  0  0  0  0  0  0  0  0  0
  5  6  2  0  0  0  0
  5  7  1  0  0  0  0
  2  3  1  0  0  0  0
  2  4  1  0  0  0  0
  2  5  1  0  0  0  0
  1  2  1  0  0  0  0
 15 16  2  0  0  0  0
 15 17  1  0  0  0  0
 11 12  1  0  0  0  0
 11 13  1  0  0  0  0
 11 14  1  0  0  0  0
  9 10  1  0  0  0  0
  9 11  1  0  0  0  0
  9 15  1  0  0  0  0
  7  8  1  0  0  0  0
  7  9  1  0  0  0  0
 19 20  1  0  0  0  0
 19 21  1  0  0  0  0
 19 22  1  0  0  0  0
 17 18  1  0  0  0  0
 17 19  1  0  0  0  0
M  END
$$$$
default_name
  -OEChem-01062215323D

 22 21  0     1  0  0  0  0  0999 V2000
   -2.5423   -3.6749    0.8058 H   0  0  0  0  0  0  0  0  0  0  0  0
   -2.5063   -2.6779    0.3688 C   0  0  0  0  0  0  0  0  0  0  0  0
   -3.1603   -2.0109    0.9268 H   0  0  0  0  0  0  0  0  0  0  0  0
   -2.8193   -2.7229   -0.6722 H   0  0  0  0  0  0  0  0  0  0  0  0
   -1.0873   -2.1629    0.4418 C   0  0  0  0  0  0  0  0  0  0  0  0
   -0.2073   -2.8549    0.9368 O   0  0  0  0  0  0  0  0  0  0  0  0
   -0.8713   -0.9449   -0.0482 N   0  0  0  0  0  0  0  0  0  0  0  0
   -1.6543   -0.4189   -0.4062 H   0  0  0  0  0  0  0  0  0  0  0  0
    0.4237   -0.2649   -0.0462 C   0  0  1  0  0  0  0  0  0  0  0  0
    0.5093    0.3279    0.8659 H   0  0  0  0  0  0  0  0  0  0  0  0
    1.5408   -1.3198   -0.0494 C   0  0  0  0  0  0  0  0  0  0  0  0
    1.4736   -1.9294   -0.9520 H   0  0  0  0  0  0  0  0  0  0  0  0
    2.5146   -0.8323   -0.0181 H   0  0  0  0  0  0  0  0  0  0  0  0
    1.4426   -1.9631    0.8267 H   0  0  0  0  0  0  0  0  0  0  0  0
    0.5471    0.6929   -1.2473 C   0  0  0  0  0  0  0  0  0  0  0  0
    1.2583    0.4000   -2.2082 O   0  0  0  0  0  0  0  0  0  0  0  0
   -0.1359    1.8428   -1.1810 N   0  0  0  0  0  0  0  0  0  0  0  0
   -0.6926    2.0143   -0.3590 H   0  0  0  0  0  0  0  0  0  0  0  0
   -0.1210    2.8631   -2.2281 C   0  0  0  0  0  0  0  0  0  0  0  0
   -0.4162    2.4179   -3.1804 H   0  0  0  0  0  0  0  0  0  0  0  0
   -0.8107    3.6713   -1.9808 H   0  0  0  0  0  0  0  0  0  0  0  0
    0.8870    3.2680   -2.3329 H   0  0  0  0  0  0  0  0  0  0  0  0
  5  6  2  0  0  0  0
  5  7  1  0  0  0  0
  2  3  1  0  0  0  0
  2  4  1  0  0  0  0
  2  5  1  0  0  0  0
  1  2  1  0  0  0  0
 15 16  2  0  0  0  0
 15 17  1  0  0  0  0
 11 12  1  0  0  0  0
 11 13  1  0  0  0  0
 11 14  1  0  0  0  0
  9 10  1  0  0  0  0
  9 11  1  0  0  0  0
  9 15  1  0  0  0  0
  7  8  1  0  0  0  0
  7  9  1  0  0  0  0
 19 20  1  0  0  0  0
 19 21  1  0  0  0  0
 19 22  1  0  0  0  0
 17 18  1  0  0  0  0
 17 19  1  0  0  0  0
M  END
$$$$
default_name
  -OEChem-01062215323D

 22 21  0     1  0  0  0  0  0999 V2000
   -2.5423   -3.6749    0.8058 H   0  0  0  0  0  0  0  0  0  0  0  0
   -2.5063   -2.6779    0.3688 C   0  0  0  0  0  0  0  0  0  0  0  0
   -3.1603   -2.0109    0.9268 H   0  0  0  0  0  0  0  0  0  0  0  0
   -2.8193   -2.7229   -0.6722 H   0  0  0  0  0  0  0  0  0  0  0  0
   -1.0873   -2.1629    0.4418 C   0  0  0  0  0  0  0  0  0  0  0  0
   -0.2073   -2.8549    0.9368 O   0  0  0  0  0  0  0  0  0  0  0  0
   -0.8713   -0.9449   -0.0482 N   0  0  0  0  0  0  0  0  0  0  0  0
   -1.6543   -0.4189   -0.4062 H   0  0  0  0  0  0  0  0  0  0  0  0
    0.4237   -0.2649   -0.0462 C   0  0  1  0  0  0  0  0  0  0  0  0
    0.5093    0.3279    0.8659 H   0  0  0  0  0  0  0  0  0  0  0  0
    1.5408   -1.3198   -0.0494 C   0  0  0  0  0  0  0  0  0  0  0  0
    1.4736   -1.9294   -0.9520 H   0  0  0  0  0  0  0  0  0  0  0  0
    2.5146   -0.8323   -0.0181 H   0  0  0  0  0  0  0  0  0  0  0  0
    1.4426   -1.9631    0.8267 H   0  0  0  0  0  0  0  0  0  0  0  0
    0.5471    0.6929   -1.2473 C   0  0  0  0  0  0  0  0  0  0  0  0
    1.0221    0.2996   -2.3125 O   0  0  0  0  0  0  0  0  0  0  0  0
    0.1317    1.9528   -1.0657 N   0  0  0  0  0  0  0  0  0  0  0  0
   -0.2408    2.2016   -0.1633 H   0  0  0  0  0  0  0  0  0  0  0  0
    0.1874    2.9879   -2.0970 C   0  0  0  0  0  0  0  0  0  0  0  0
   -0.3395    2.6465   -2.9903 H   0  0  0  0  0  0  0  0  0  0  0  0
   -0.2753    3.9079   -1.7371 H   0  0  0  0  0  0  0  0  0  0  0  0
    1.2270    3.1866   -2.3629 H   0  0  0  0  0  0  0  0  0  0  0  0
  5  6  2  0  0  0  0
  5  7  1  0  0  0  0
  2  3  1  0  0  0  0
  2  4  1  0  0  0  0
  2  5  1  0  0  0  0
  1  2  1  0  0  0  0
 15 16  2  0  0  0  0
 15 17  1  0  0  0  0
 11 12  1  0  0  0  0
 11 13  1  0  0  0  0
 11 14  1  0  0  0  0
  9 10  1  0  0  0  0
  9 11  1  0  0  0  0
  9 15  1  0  0  0  0
  7  8  1  0  0  0  0
  7  9  1  0  0  0  0
 19 20  1  0  0  0  0
 19 21  1  0  0  0  0
 19 22  1  0  0  0  0
 17 18  1  0  0  0  0
 17 19  1  0  0  0  0
M  END
$$$$
default_name
  -OEChem-01062215323D

 22 21  0     1  0  0  0  0  0999 V2000
   -2.5423   -3.6749    0.8058 H   0  0  0  0  0  0  0  0  0  0  0  0
   -2.5063   -2.6779    0.3688 C   0  0  0  0  0  0  0  0  0  0  0  0
   -3.1603   -2.0109    0.9268 H   0  0  0  0  0  0  0  0  0  0  0  0
   -2.8193   -2.7229   -0.6722 H   0  0  0  0  0  0  0  0  0  0  0  0
   -1.0873   -2.1629    0.4418 C   0  0  0  0  0  0  0  0  0  0  0  0
   -0.2073   -2.8549    0.9368 O   0  0  0  0  0  0  0  0  0  0  0  0
   -0.8713   -0.9449   -0.0482 N   0  0  0  0  0  0  0  0  0  0  0  0
   -1.6543   -0.4189   -0.4062 H   0  0  0  0  0  0  0  0  0  0  0  0
    0.4237   -0.2649   -0.0462 C   0  0  1  0  0  0  0  0  0  0  0  0
    0.5093    0.3279    0.8659 H   0  0  0  0  0  0  0  0  0  0  0  0
    1.5408   -1.3198   -0.0494 C   0  0  0  0  0  0  0  0  0  0  0  0
    1.4736   -1.9294   -0.9520 H   0  0  0  0  0  0  0  0  0  0  0  0
    2.5146   -0.8323   -0.0181 H   0  0  0  0  0  0  0  0  0  0  0  0
    1.4426   -1.9631    0.8267 H   0  0  0  0  0  0  0  0  0  0  0  0
    0.5471    0.6929   -1.2473 C   0  0  0  0  0  0  0  0  0  0  0  0
    0.7570    0.2525   -2.3773 O   0  0  0  0  0  0  0  0  0  0  0  0
    0.4309    2.0028   -0.9951 N   0  0  0  0  0  0  0  0  0  0  0  0
    0.2648    2.2873   -0.0430 H   0  0  0  0  0  0  0  0  0  0  0  0
    0.5315    3.0434   -2.0173 C   0  0  0  0  0  0  0  0  0  0  0  0
   -0.1888    2.8478   -2.8142 H   0  0  0  0  0  0  0  0  0  0  0  0
    0.3287    4.0234   -1.5830 H   0  0  0  0  0  0  0  0  0  0  0  0
    1.5342    3.0400   -2.4482 H   0  0  0  0  0  0  0  0  0  0  0  0
  5  6  2  0  0  0  0
  5  7  1  0  0  0  0
  2  3  1  0  0  0  0
  2  4  1  0  0  0  0
  2  5  1  0  0  0  0
  1  2  1  0  0  0  0
 15 16  2  0  0  0  0
 15 17  1  0  0  0  0
 11 12  1  0  0  0  0
 11 13  1  0  0  0  0
 11 14  1  0  0  0  0
  9 10  1  0  0  0  0
  9 11  1  0  0  0  0
  9 15  1  0  0  0  0
  7  8  1  0  0  0  0
  7  9  1  0  0  0  0
 19 20  1  0  0  0  0
 19 21  1  0  0  0  0
 19 22  1  0  0  0  0
 17 18  1  0  0  0  0
 17 19  1  0  0  0  0
M  END
$$$$
default_name
  -OEChem-01062215323D

 22 21  0     1  0  0  0  0  0999 V2000
   -2.5423   -3.6749    0.8058 H   0  0  0  0  0  0  0  0  0  0  0  0
   -2.5063   -2.6779    0.3688 C   0  0  0  0  0  0  0  0  0  0  0  0
   -3.1603   -2.0109    0.9268 H   0  0  0  0  0  0  0  0  0  0  0  0
   -2.8193   -2.7229   -0.6722 H   0  0  0  0  0  0  0  0  0  0  0  0
   -1.0873   -2.1629    0.4418 C   0  0  0  0  0  0  0  0  0  0  0  0
   -0.2073   -2.8549    0.9368 O   0  0  0  0  0  0  0  0  0  0  0  0
   -0.8713   -0.9449   -0.0482 N   0  0  0  0  0  0  0  0  0  0  0  0
   -1.6543   -0.4189   -0.4062 H   0  0  0  0  0  0  0  0  0  0  0  0
    0.4237   -0.2649   -0.0462 C   0  0  1  0  0  0  0  0  0  0  0  0
    0.5093    0.3279    0.8659 H   0  0  0  0  0  0  0  0  0  0  0  0
    1.5408   -1.3198   -0.0494 C   0  0  0  0  0  0  0  0  0  0  0  0
    1.4736   -1.9294   -0.9520 H   0  0  0  0  0  0  0  0  0  0  0  0
    2.5146   -0.8323   -0.0181 H   0  0  0  0  0  0  0  0  0  0  0  0
    1.4426   -1.9631    0.8267 H   0  0  0  0  0  0  0  0  0  0  0  0
    0.5471    0.6929   -1.2473 C   0  0  0  0  0  0  0  0  0  0  0  0
    0.4810    0.2618   -2.3983 O   0  0  0  0  0  0  0  0  0  0  0  0
    0.7413    1.9893   -0.9740 N   0  0  0  0  0  0  0  0  0  0  0  0
    0.7898    2.2656   -0.0064 H   0  0  0  0  0  0  0  0  0  0  0  0
    0.8879    3.0261   -1.9945 C   0  0  0  0  0  0  0  0  0  0  0  0
    0.0258    3.0083   -2.6642 H   0  0  0  0  0  0  0  0  0  0  0  0
    0.9603    4.0099   -1.5289 H   0  0  0  0  0  0  0  0  0  0  0  0
    1.7875    2.8382   -2.5831 H   0  0  0  0  0  0  0  0  0  0  0  0
  5  6  2  0  0  0  0
  5  7  1  0  0  0  0
  2  3  1  0  0  0  0
  2  4  1  0  0  0  0
  2  5  1  0  0  0  0
  1  2  1  0  0  0  0
 15 16  2  0  0  0  0
 15 17  1  0  0  0  0
 11 12  1  0  0  0  0
 11 13  1  0  0  0  0
 11 14  1  0  0  0  0
  9 10  1  0  0  0  0
  9 11  1  0  0  0  0
  9 15  1  0  0  0  0
  7  8  1  0  0  0  0
  7  9  1  0  0  0  0
 19 20  1  0  0  0  0
 19 21  1  0  0  0  0
 19 22  1  0  0  0  0
 17 18  1  0  0  0  0
 17 19  1  0  0  0  0
M  END
$$$$
default_name
  -OEChem-01062215323D

 22 21  0     1  0  0  0  0  0999 V2000
   -2.5423   -3.6749    0.8058 H   0  0  0  0  0  0  0  0  0  0  0  0
   -2.5063   -2.6779    0.3688 C   0  0  0  0  0  0  0  0  0  0  0  0
   -3.1603   -2.0109    0.9268 H   0  0  0  0  0  0  0  0  0  0  0  0
   -2.8193   -2.7229   -0.6722 H   0  0  0  0  0  0  0  0  0  0  0  0
   -1.0873   -2.1629    0.4418 C   0  0  0  0  0  0  0  0  0  0  0  0
   -0.2073   -2.8549    0.9368 O   0  0  0  0  0  0  0  0  0  0  0  0
   -0.8713   -0.9449   -0.0482 N   0  0  0  0  0  0  0  0  0  0  0  0
   -1.6543   -0.4189   -0.4062 H   0  0  0  0  0  0  0  0  0  0  0  0
    0.4237   -0.2649   -0.0462 C   0  0  1  0  0  0  0  0  0  0  0  0
    0.5093    0.3279    0.8659 H   0  0  0  0  0  0  0  0  0  0  0  0
    1.5408   -1.3198   -0.0494 C   0  0  0  0  0  0  0  0  0  0  0  0
    1.4736   -1.9294   -0.9520 H   0  0  0  0  0  0  0  0  0  0  0  0
    2.5146   -0.8323   -0.0181 H   0  0  0  0  0  0  0  0  0  0  0  0
    1.4426   -1.9631    0.8267 H   0  0  0  0  0  0  0  0  0  0  0  0
    0.5471    0.6929   -1.2473 C   0  0  0  0  0  0  0  0  0  0  0  0
    0.2128    0.3269   -2.3739 O   0  0  0  0  0  0  0  0  0  0  0  0
    1.0418    1.9132   -1.0038 N   0  0  0  0  0  0  0  0  0  0  0  0
    1.2984    2.1379   -0.0559 H   0  0  0  0  0  0  0  0  0  0  0  0
    1.2324    2.9369   -2.0302 C   0  0  0  0  0  0  0  0  0  0  0  0
    0.2895    3.1169   -2.5505 H   0  0  0  0  0  0  0  0  0  0  0  0
    1.5763    3.8684   -1.5784 H   0  0  0  0  0  0  0  0  0  0  0  0
    1.9699    2.5949   -2.7584 H   0  0  0  0  0  0  0  0  0  0  0  0
  5  6  2  0  0  0  0
  5  7  1  0  0  0  0
  2  3  1  0  0  0  0
  2  4  1  0  0  0  0
  2  5  1  0  0  0  0
  1  2  1  0  0  0  0
 15 16  2  0  0  0  0
 15 17  1  0  0  0  0
 11 12  1  0  0  0  0
 11 13  1  0  0  0  0
 11 14  1  0  0  0  0
  9 10  1  0  0  0  0
  9 11  1  0  0  0  0
  9 15  1  0  0  0  0
  7  8  1  0  0  0  0
  7  9  1  0  0  0  0
 19 20  1  0  0  0  0
 19 21  1  0  0  0  0
 19 22  1  0  0  0  0
 17 18  1  0  0  0  0
 17 19  1  0  0  0  0
M  END
$$$$
default_name
  -OEChem-01062215323D

 22 21  0     1  0  0  0  0  0999 V2000
   -2.5423   -3.6749    0.8058 H   0  0  0  0  0  0  0  0  0  0  0  0
   -2.5063   -2.6779    0.3688 C   0  0  0  0  0  0  0  0  0  0  0  0
   -3.1603   -2.0109    0.9268 H   0  0  0  0  0  0  0  0  0  0  0  0
   -2.8193   -2.7229   -0.6722 H   0  0  0  0  0  0  0  0  0  0  0  0
   -1.0873   -2.1629    0.4418 C   0  0  0  0  0  0  0  0  0  0  0  0
   -0.2073   -2.8549    0.9368 O   0  0  0  0  0  0  0  0  0  0  0  0
   -0.8713   -0.9449   -0.0482 N   0  0  0  0  0  0  0  0  0  0  0  0
   -1.6543   -0.4189   -0.4062 H   0  0  0  0  0  0  0  0  0  0  0  0
    0.4237   -0.2649   -0.0462 C   0  0  1  0  0  0  0  0  0  0  0  0
    0.5093    0.3279    0.8659 H   0  0  0  0  0  0  0  0  0  0  0  0
    1.5408   -1.3198   -0.0494 C   0  0  0  0  0  0  0  0  0  0  0  0
    1.4736   -1.9294   -0.9520 H   0  0  0  0  0  0  0  0  0  0  0  0
    2.5146   -0.8323   -0.0181 H   0  0  0  0  0  0  0  0  0  0  0  0
    1.4426   -1.9631    0.8267 H   0  0  0  0  0  0  0  0  0  0  0  0
    0.5471    0.6929   -1.2473 C   0  0  0  0  0  0  0  0  0  0  0  0
   -0.0291    0.4433   -2.3059 O   0  0  0  0  0  0  0  0  0  0  0  0
    1.3119    1.7797   -1.0826 N   0  0  0  0  0  0  0  0  0  0  0  0
    1.7560    1.9131   -0.1882 H   0  0  0  0  0  0  0  0  0  0  0  0
    1.5413    2.7821   -2.1220 C   0  0  0  0  0  0  0  0  0  0  0  0
    0.5844    3.1662   -2.4809 H   0  0  0  0  0  0  0  0  0  0  0  0
    2.1348    3.6085   -1.7283 H   0  0  0  0  0  0  0  0  0  0  0  0
    2.0688    2.3268   -2.9620 H   0  0  0  0  0  0  0  0  0  0  0  0
  5  6  2  0  0  0  0
  5  7  1  0  0  0  0
  2  3  1  0  0  0  0
  2  4  1  0  0  0  0
  2  5  1  0  0  0  0
  1  2  1  0  0  0  0
 15 16  2  0  0  0  0
 15 17  1  0  0  0  0
 11 12  1  0  0  0  0
 11 13  1  0  0  0  0
 11 14  1  0  0  0  0
  9 10  1  0  0  0  0
  9 11  1  0  0  0  0
  9 15  1  0  0  0  0
  7  8  1  0  0  0  0
  7  9  1  0  0  0  0
 19 20  1  0  0  0  0
 19 21  1  0  0  0  0
 19 22  1  0  0  0  0
 17 18  1  0  0  0  0
 17 19  1  0  0  0  0
M  END
$$$$
default_name
  -OEChem-01062215323D

 22 21  0     1  0  0  0  0  0999 V2000
   -2.5423   -3.6749    0.8058 H   0  0  0  0  0  0  0  0  0  0  0  0
   -2.5063   -2.6779    0.3688 C   0  0  0  0  0  0  0  0  0  0  0  0
   -3.1603   -2.0109    0.9268 H   0  0  0  0  0  0  0  0  0  0  0  0
   -2.8193   -2.7229   -0.6722 H   0  0  0  0  0  0  0  0  0  0  0  0
   -1.0873   -2.1629    0.4418 C   0  0  0  0  0  0  0  0  0  0  0  0
   -0.2073   -2.8549    0.9368 O   0  0  0  0  0  0  0  0  0  0  0  0
   -0.8713   -0.9449   -0.0482 N   0  0  0  0  0  0  0  0  0  0  0  0
   -1.6543   -0.4189   -0.4062 H   0  0  0  0  0  0  0  0  0  0  0  0
    0.4237   -0.2649   -0.0462 C   0  0  1  0  0  0  0  0  0  0  0  0
    0.5093    0.3279    0.8659 H   0  0  0  0  0  0  0  0  0  0  0  0
    1.5408   -1.3198   -0.0494 C   0  0  0  0  0  0  0  0  0  0  0  0
    1.4736   -1.9294   -0.9520 H   0  0  0  0  0  0  0  0  0  0  0  0
    2.5146   -0.8323   -0.0181 H   0  0  0  0  0  0  0  0  0  0  0  0
    1.4426   -1.9631    0.8267 H   0  0  0  0  0  0  0  0  0  0  0  0
    0.5471    0.6929   -1.2473 C   0  0  0  0  0  0  0  0  0  0  0  0
   -0.2284    0.6032   -2.1989 O   0  0  0  0  0  0  0  0  0  0  0  0
    1.5332    1.5978   -1.2048 N   0  0  0  0  0  0  0  0  0  0  0  0
    2.1314    1.6063   -0.3942 H   0  0  0  0  0  0  0  0  0  0  0  0
    1.7938    2.5721   -2.2635 C   0  0  0  0  0  0  0  0  0  0  0  0
    0.8904    3.1530   -2.4600 H   0  0  0  0  0  0  0  0  0  0  0  0
    2.5978    3.2478   -1.9684 H   0  0  0  0  0  0  0  0  0  0  0  0
    2.0774    2.0521   -3.1801 H   0  0  0  0  0  0  0  0  0  0  0  0
  5  6  2  0  0  0  0
  5  7  1  0  0  0  0
  2  3  1  0  0  0  0
  2  4  1  0  0  0  0
  2  5  1  0  0  0  0
  1  2  1  0  0  0  0
 15 16  2  0  0  0  0
 15 17  1  0  0  0  0
 11 12  1  0  0  0  0
 11 13  1  0  0  0  0
 11 14  1  0  0  0  0
  9 10  1  0  0  0  0
  9 11  1  0  0  0  0
  9 15  1  0  0  0  0
  7  8  1  0  0  0  0
  7  9  1  0  0  0  0
 19 20  1  0  0  0  0
 19 21  1  0  0  0  0
 19 22  1  0  0  0  0
 17 18  1  0  0  0  0
 17 19  1  0  0  0  0
M  END
$$$$
default_name
  -OEChem-01062215323D

 22 21  0     1  0  0  0  0  0999 V2000
   -2.5423   -3.6749    0.8058 H   0  0  0  0  0  0  0  0  0  0  0  0
   -2.5063   -2.6779    0.3688 C   0  0  0  0  0  0  0  0  0  0  0  0
   -3.1603   -2.0109    0.9268 H   0  0  0  0  0  0  0  0  0  0  0  0
   -2.8193   -2.7229   -0.6722 H   0  0  0  0  0  0  0  0  0  0  0  0
   -1.0873   -2.1629    0.4418 C   0  0  0  0  0  0  0  0  0  0  0  0
   -0.2073   -2.8549    0.9368 O   0  0  0  0  0  0  0  0  0  0  0  0
   -0.8713   -0.9449   -0.0482 N   0  0  0  0  0  0  0  0  0  0  0  0
   -1.6543   -0.4189   -0.4062 H   0  0  0  0  0  0  0  0  0  0  0  0
    0.4237   -0.2649   -0.0462 C   0  0  1  0  0  0  0  0  0  0  0  0
    0.6266    0.1043    0.9604 H   0  0  0  0  0  0  0  0  0  0  0  0
    1.5178   -1.2748   -0.4254 C   0  0  0  0  0  0  0  0  0  0  0  0
    1.3341   -1.6623   -1.4288 H   0  0  0  0  0  0  0  0  0  0  0  0
    2.4949   -0.7935   -0.4006 H   0  0  0  0  0  0  0  0  0  0  0  0
    1.5169   -2.1031    0.2852 H   0  0  0  0  0  0  0  0  0  0  0  0
    0.4147    0.9443   -1.0017 C   0  0  0  0  0  0  0  0  0  0  0  0
   -0.5935    1.2173   -1.6528 O   0  0  0  0  0  0  0  0  0  0  0  0
    1.5454    1.6559   -1.0928 N   0  0  0  0  0  0  0  0  0  0  0  0
    2.3311    1.3675   -0.5321 H   0  0  0  0  0  0  0  0  0  0  0  0
    1.7077    2.8241   -1.9570 C   0  0  0  0  0  0  0  0  0  0  0  0
    0.9327    3.5595   -1.7318 H   0  0  0  0  0  0  0  0  0  0  0  0
    2.6880    3.2773   -1.8029 H   0  0  0  0  0  0  0  0  0  0  0  0
    1.6084    2.5253   -3.0020 H   0  0  0  0  0  0  0  0  0  0  0  0
  5  6  2  0  0  0  0
  5  7  1  0  0  0  0
  2  3  1  0  0  0  0
  2  4  1  0  0  0  0
  2  5  1  0  0  0  0
  1  2  1  0  0  0  0
 15 16  2  0  0  0  0
 15 17  1  0  0  0  0
 11 12  1  0  0  0  0
 11 13  1  0  0  0  0
 11 14  1  0  0  0  0
  9 10  1  0  0  0  0
  9 11  1  0  0  0  0
  9 15  1  0  0  0  0
  7  8  1  0  0  0  0
  7  9  1  0  0  0  0
 19 20  1  0  0  0  0
 19 21  1  0  0  0  0
 19 22  1  0  0  0  0
 17 18  1  0  0  0  0
 17 19  1  0  0  0  0
M  END
$$$$
default_name
  -OEChem-01062215323D

 22 21  0     1  0  0  0  0  0999 V2000
   -2.5423   -3.6749    0.8058 H   0  0  0  0  0  0  0  0  0  0  0  0
   -2.5063   -2.6779    0.3688 C   0  0  0  0  0  0  0  0  0  0  0  0
   -3.1603   -2.0109    0.9268 H   0  0  0  0  0  0  0  0  0  0  0  0
   -2.8193   -2.7229   -0.6722 H   0  0  0  0  0  0  0  0  0  0  0  0
   -1.0873   -2.1629    0.4418 C   0  0  0  0  0  0  0  0  0  0  0  0
   -0.2073   -2.8549    0.9368 O   0  0  0  0  0  0  0  0  0  0  0  0
   -0.8713   -0.9449   -0.0482 N   0  0  0  0  0  0  0  0  0  0  0  0
   -1.6543   -0.4189   -0.4062 H   0  0  0  0  0  0  0  0  0  0  0  0
    0.4237   -0.2649   -0.0462 C   0  0  1  0  0  0  0  0  0  0  0  0
    0.6266    0.1043    0.9604 H   0  0  0  0  0  0  0  0  0  0  0  0
    1.5178   -1.2748   -0.4254 C   0  0  0  0  0  0  0  0  0  0  0  0
    1.3341   -1.6623   -1.4288 H   0  0  0  0  0  0  0  0  0  0  0  0
    2.4949   -0.7935   -0.4006 H   0  0  0  0  0  0  0  0  0  0  0  0
    1.5169   -2.1031    0.2852 H   0  0  0  0  0  0  0  0  0  0  0  0
    0.4147    0.9443   -1.0017 C   0  0  0  0  0  0  0  0  0  0  0  0
   -0.6476    1.3854   -1.4395 O   0  0  0  0  0  0  0  0  0  0  0  0
    1.6024    1.4664   -1.3332 N   0  0  0  0  0  0  0  0  0  0  0  0
    2.4291    1.0471   -0.9385 H   0  0  0  0  0  0  0  0  0  0  0  0
    1.7709    2.6062   -2.2334 C   0  0  0  0  0  0  0  0  0  0  0  0
    1.1860    3.4530   -1.8689 H   0  0  0  0  0  0  0  0  0  0  0  0
    2.8218    2.8937   -2.2897 H   0  0  0  0  0  0  0  0  0  0  0  0
    1.4147    2.3430   -3.2308 H   0  0  0  0  0  0  0  0  0  0  0  0
  5  6  2  0  0  0  0
  5  7  1  0  0  0  0
  2  3  1  0  0  0  0
  2  4  1  0  0  0  0
  2  5  1  0  0  0  0
  1  2  1  0  0  0  0
 15 16  2  0  0  0  0
 15 17  1  0  0  0  0
 11 12  1  0  0  0  0
 11 13  1  0  0  0  0
 11 14  1  0  0  0  0
  9 10  1  0  0  0  0
  9 11  1  0  0  0  0
  9 15  1  0  0  0  0
  7  8  1  0  0  0  0
  7  9  1  0  0  0  0
 19 20  1  0  0  0  0
 19 21  1  0  0  0  0
 19 22  1  0  0  0  0
 17 18  1  0  0  0  0
 17 19  1  0  0  0  0
M  END
$$$$
default_name
  -OEChem-01062215323D

 22 21  0     1  0  0  0  0  0999 V2000
   -2.5423   -3.6749    0.8058 H   0  0  0  0  0  0  0  0  0  0  0  0
   -2.5063   -2.6779    0.3688 C   0  0  0  0  0  0  0  0  0  0  0  0
   -3.1603   -2.0109    0.9268 H   0  0  0  0  0  0  0  0  0  0  0  0
   -2.8193   -2.7229   -0.6722 H   0  0  0  0  0  0  0  0  0  0  0  0
   -1.0873   -2.1629    0.4418 C   0  0  0  0  0  0  0  0  0  0  0  0
   -0.2073   -2.8549    0.9368 O   0  0  0  0  0  0  0  0  0  0  0  0
   -0.8713   -0.9449   -0.0482 N   0  0  0  0  0  0  0  0  0  0  0  0
   -1.6543   -0.4189   -0.4062 H   0  0  0  0  0  0  0  0  0  0  0  0
    0.4237   -0.2649   -0.0462 C   0  0  1  0  0  0  0  0  0  0  0  0
    0.6266    0.1043    0.9604 H   0  0  0  0  0  0  0  0  0  0  0  0
    1.5178   -1.2748   -0.4254 C   0  0  0  0  0  0  0  0  0  0  0  0
    1.3341   -1.6623   -1.4288 H   0  0  0  0  0  0  0  0  0  0  0  0
    2.4949   -0.7935   -0.4006 H   0  0  0  0  0  0  0  0  0  0  0  0
    1.5169   -2.1031    0.2852 H   0  0  0  0  0  0  0  0  0  0  0  0
    0.4147    0.9443   -1.0017 C   0  0  0  0  0  0  0  0  0  0  0  0
   -0.6297    1.5569   -1.2227 O   0  0  0  0  0  0  0  0  0  0  0  0
    1.5783    1.2737   -1.5768 N   0  0  0  0  0  0  0  0  0  0  0  0
    2.3898    0.7212   -1.3505 H   0  0  0  0  0  0  0  0  0  0  0  0
    1.7409    2.3851   -2.5129 C   0  0  0  0  0  0  0  0  0  0  0  0
    1.3857    3.3093   -2.0526 H   0  0  0  0  0  0  0  0  0  0  0  0
    2.7906    2.5009   -2.7864 H   0  0  0  0  0  0  0  0  0  0  0  0
    1.1520    2.1976   -3.4123 H   0  0  0  0  0  0  0  0  0  0  0  0
  5  6  2  0  0  0  0
  5  7  1  0  0  0  0
  2  3  1  0  0  0  0
  2  4  1  0  0  0  0
  2  5  1  0  0  0  0
  1  2  1  0  0  0  0
 15 16  2  0  0  0  0
 15 17  1  0  0  0  0
 11 12  1  0  0  0  0
 11 13  1  0  0  0  0
 11 14  1  0  0  0  0
  9 10  1  0  0  0  0
  9 11  1  0  0  0  0
  9 15  1  0  0  0  0
  7  8  1  0  0  0  0
  7  9  1  0  0  0  0
 19 20  1  0  0  0  0
 19 21  1  0  0  0  0
 19 22  1  0  0  0  0
 17 18  1  0  0  0  0
 17 19  1  0  0  0  0
M  END
$$$$
default_name
  -OEChem-01062215323D

 22 21  0     1  0  0  0  0  0999 V2000
   -2.5423   -3.6749    0.8058 H   0  0  0  0  0  0  0  0  0  0  0  0
   -2.5063   -2.6779    0.3688 C   0  0  0  0  0  0  0  0  0  0  0  0
   -3.1603   -2.0109    0.9268 H   0  0  0  0  0  0  0  0  0  0  0  0
   -2.8193   -2.7229   -0.6722 H   0  0  0  0  0  0  0  0  0  0  0  0
   -1.0873   -2.1629    0.4418 C   0  0  0  0  0  0  0  0  0  0  0  0
   -0.2073   -2.8549    0.9368 O   0  0  0  0  0  0  0  0  0  0  0  0
   -0.8713   -0.9449   -0.0482 N   0  0  0  0  0  0  0  0  0  0  0  0
   -1.6543   -0.4189   -0.4062 H   0  0  0  0  0  0  0  0  0  0  0  0
    0.4237   -0.2649   -0.0462 C   0  0  1  0  0  0  0  0  0  0  0  0
    0.6266    0.1043    0.9604 H   0  0  0  0  0  0  0  0  0  0  0  0
    1.5178   -1.2748   -0.4254 C   0  0  0  0  0  0  0  0  0  0  0  0
    1.3341   -1.6623   -1.4288 H   0  0  0  0  0  0  0  0  0  0  0  0
    2.4949   -0.7935   -0.4006 H   0  0  0  0  0  0  0  0  0  0  0  0
    1.5169   -2.1031    0.2852 H   0  0  0  0  0  0  0  0  0  0  0  0
    0.4147    0.9443   -1.0017 C   0  0  0  0  0  0  0  0  0  0  0  0
   -0.5408    1.7200   -1.0172 O   0  0  0  0  0  0  0  0  0  0  0  0
    1.4746    1.0912   -1.8068 N   0  0  0  0  0  0  0  0  0  0  0  0
    2.2158    0.4121   -1.7400 H   0  0  0  0  0  0  0  0  0  0  0  0
    1.6196    2.1760   -2.7764 C   0  0  0  0  0  0  0  0  0  0  0  0
    1.5182    3.1382   -2.2704 H   0  0  0  0  0  0  0  0  0  0  0  0
    2.5965    2.1258   -3.2593 H   0  0  0  0  0  0  0  0  0  0  0  0
    0.8380    2.0991   -3.5340 H   0  0  0  0  0  0  0  0  0  0  0  0
  5  6  2  0  0  0  0
  5  7  1  0  0  0  0
  2  3  1  0  0  0  0
  2  4  1  0  0  0  0
  2  5  1  0  0  0  0
  1  2  1  0  0  0  0
 15 16  2  0  0  0  0
 15 17  1  0  0  0  0
 11 12  1  0  0  0  0
 11 13  1  0  0  0  0
 11 14  1  0  0  0  0
  9 10  1  0  0  0  0
  9 11  1  0  0  0  0
  9 15  1  0  0  0  0
  7  8  1  0  0  0  0
  7  9  1  0  0  0  0
 19 20  1  0  0  0  0
 19 21  1  0  0  0  0
 19 22  1  0  0  0  0
 17 18  1  0  0  0  0
 17 19  1  0  0  0  0
M  END
$$$$
default_name
  -OEChem-01062215323D

 22 21  0     1  0  0  0  0  0999 V2000
   -2.5423   -3.6749    0.8058 H   0  0  0  0  0  0  0  0  0  0  0  0
   -2.5063   -2.6779    0.3688 C   0  0  0  0  0  0  0  0  0  0  0  0
   -3.1603   -2.0109    0.9268 H   0  0  0  0  0  0  0  0  0  0  0  0
   -2.8193   -2.7229   -0.6722 H   0  0  0  0  0  0  0  0  0  0  0  0
   -1.0873   -2.1629    0.4418 C   0  0  0  0  0  0  0  0  0  0  0  0
   -0.2073   -2.8549    0.9368 O   0  0  0  0  0  0  0  0  0  0  0  0
   -0.8713   -0.9449   -0.0482 N   0  0  0  0  0  0  0  0  0  0  0  0
   -1.6543   -0.4189   -0.4062 H   0  0  0  0  0  0  0  0  0  0  0  0
    0.4237   -0.2649   -0.0462 C   0  0  1  0  0  0  0  0  0  0  0  0
    0.6266    0.1043    0.9604 H   0  0  0  0  0  0  0  0  0  0  0  0
    1.5178   -1.2748   -0.4254 C   0  0  0  0  0  0  0  0  0  0  0  0
    1.3341   -1.6623   -1.4288 H   0  0  0  0  0  0  0  0  0  0  0  0
    2.4949   -0.7935   -0.4006 H   0  0  0  0  0  0  0  0  0  0  0  0
    1.5169   -2.1031    0.2852 H   0  0  0  0  0  0  0  0  0  0  0  0
    0.4147    0.9443   -1.0017 C   0  0  0  0  0  0  0  0  0  0  0  0
   -0.3870    1.8635   -0.8370 O   0  0  0  0  0  0  0  0  0  0  0  0
    1.2985    0.9312   -2.0077 N   0  0  0  0  0  0  0  0  0  0  0  0
    1.9192    0.1409   -2.0804 H   0  0  0  0  0  0  0  0  0  0  0  0
    1.4155    1.9931   -3.0059 C   0  0  0  0  0  0  0  0  0  0  0  0
    1.5745    2.9513   -2.5074 H   0  0  0  0  0  0  0  0  0  0  0  0
    2.2529    1.7939   -3.6761 H   0  0  0  0  0  0  0  0  0  0  0  0
    0.4941    2.0541   -3.5877 H   0  0  0  0  0  0  0  0  0  0  0  0
  5  6  2  0  0  0  0
  5  7  1  0  0  0  0
  2  3  1  0  0  0  0
  2  4  1  0  0  0  0
  2  5  1  0  0  0  0
  1  2  1  0  0  0  0
 15 16  2  0  0  0  0
 15 17  1  0  0  0  0
 11 12  1  0  0  0  0
 11 13  1  0  0  0  0
 11 14  1  0  0  0  0
  9 10  1  0  0  0  0
  9 11  1  0  0  0  0
  9 15  1  0  0  0  0
  7  8  1  0  0  0  0
  7  9  1  0  0  0  0
 19 20  1  0  0  0  0
 19 21  1  0  0  0  0
 19 22  1  0  0  0  0
 17 18  1  0  0  0  0
 17 19  1  0  0  0  0
M  END
$$$$
default_name
  -OEChem-01062215323D

 22 21  0     1  0  0  0  0  0999 V2000
   -2.5423   -3.6749    0.8058 H   0  0  0  0  0  0  0  0  0  0  0  0
   -2.5063   -2.6779    0.3688 C   0  0  0  0  0  0  0  0  0  0  0  0
   -3.1603   -2.0109    0.9268 H   0  0  0  0  0  0  0  0  0  0  0  0
   -2.8193   -2.7229   -0.6722 H   0  0  0  0  0  0  0  0  0  0  0  0
   -1.0873   -2.1629    0.4418 C   0  0  0  0  0  0  0  0  0  0  0  0
   -0.2073   -2.8549    0.9368 O   0  0  0  0  0  0  0  0  0  0  0  0
   -0.8713   -0.9449   -0.0482 N   0  0  0  0  0  0  0  0  0  0  0  0
   -1.6543   -0.4189   -0.4062 H   0  0  0  0  0  0  0  0  0  0  0  0
    0.4237   -0.2649   -0.0462 C   0  0  1  0  0  0  0  0  0  0  0  0
    0.6266    0.1043    0.9604 H   0  0  0  0  0  0  0  0  0  0  0  0
    1.5178   -1.2748   -0.4254 C   0  0  0  0  0  0  0  0  0  0  0  0
    1.3341   -1.6623   -1.4288 H   0  0  0  0  0  0  0  0  0  0  0  0
    2.4949   -0.7935   -0.4006 H   0  0  0  0  0  0  0  0  0  0  0  0
    1.5169   -2.1031    0.2852 H   0  0  0  0  0  0  0  0  0  0  0  0
    0.4147    0.9443   -1.0017 C   0  0  0  0  0  0  0  0  0  0  0  0
   -0.1788    1.9777   -0.6944 O   0  0  0  0  0  0  0  0  0  0  0  0
    1.0619    0.8045   -2.1657 N   0  0  0  0  0  0  0  0  0  0  0  0
    1.5200   -0.0739   -2.3486 H   0  0  0  0  0  0  0  0  0  0  0  0
    1.1423    1.8488   -3.1860 C   0  0  0  0  0  0  0  0  0  0  0  0
    1.5508    2.7614   -2.7475 H   0  0  0  0  0  0  0  0  0  0  0  0
    1.7831    1.5278   -4.0084 H   0  0  0  0  0  0  0  0  0  0  0  0
    0.1439    2.0658   -3.5696 H   0  0  0  0  0  0  0  0  0  0  0  0
  5  6  2  0  0  0  0
  5  7  1  0  0  0  0
  2  3  1  0  0  0  0
  2  4  1  0  0  0  0
  2  5  1  0  0  0  0
  1  2  1  0  0  0  0
 15 16  2  0  0  0  0
 15 17  1  0  0  0  0
 11 12  1  0  0  0  0
 11 13  1  0  0  0  0
 11 14  1  0  0  0  0
  9 10  1  0  0  0  0
  9 11  1  0  0  0  0
  9 15  1  0  0  0  0
  7  8  1  0  0  0  0
  7  9  1  0  0  0  0
 19 20  1  0  0  0  0
 19 21  1  0  0  0  0
 19 22  1  0  0  0  0
 17 18  1  0  0  0  0
 17 19  1  0  0  0  0
M  END
$$$$
default_name
  -OEChem-01062215323D

 22 21  0     1  0  0  0  0  0999 V2000
   -2.5423   -3.6749    0.8058 H   0  0  0  0  0  0  0  0  0  0  0  0
   -2.5063   -2.6779    0.3688 C   0  0  0  0  0  0  0  0  0  0  0  0
   -3.1603   -2.0109    0.9268 H   0  0  0  0  0  0  0  0  0  0  0  0
   -2.8193   -2.7229   -0.6722 H   0  0  0  0  0  0  0  0  0  0  0  0
   -1.0873   -2.1629    0.4418 C   0  0  0  0  0  0  0  0  0  0  0  0
   -0.2073   -2.8549    0.9368 O   0  0  0  0  0  0  0  0  0  0  0  0
   -0.8713   -0.9449   -0.0482 N   0  0  0  0  0  0  0  0  0  0  0  0
   -1.6543   -0.4189   -0.4062 H   0  0  0  0  0  0  0  0  0  0  0  0
    0.4237   -0.2649   -0.0462 C   0  0  1  0  0  0  0  0  0  0  0  0
    0.6266    0.1043    0.9604 H   0  0  0  0  0  0  0  0  0  0  0  0
    1.5178   -1.2748   -0.4254 C   0  0  0  0  0  0  0  0  0  0  0  0
    1.3341   -1.6623   -1.4288 H   0  0  0  0  0  0  0  0  0  0  0  0
    2.4949   -0.7935   -0.4006 H   0  0  0  0  0  0  0  0  0  0  0  0
    1.5169   -2.1031    0.2852 H   0  0  0  0  0  0  0  0  0  0  0  0
    0.4147    0.9443   -1.0017 C   0  0  0  0  0  0  0  0  0  0  0  0
    0.0695    2.0549   -0.5990 O   0  0  0  0  0  0  0  0  0  0  0  0
    0.7809    0.7200   -2.2701 N   0  0  0  0  0  0  0  0  0  0  0  0
    1.0454   -0.2178   -2.5262 H   0  0  0  0  0  0  0  0  0  0  0  0
    0.8187    1.7530   -3.3041 C   0  0  0  0  0  0  0  0  0  0  0  0
    1.4487    2.5815   -2.9743 H   0  0  0  0  0  0  0  0  0  0  0  0
    1.2191    1.3457   -4.2336 H   0  0  0  0  0  0  0  0  0  0  0  0
   -0.1889    2.1333   -3.4811 H   0  0  0  0  0  0  0  0  0  0  0  0
  5  6  2  0  0  0  0
  5  7  1  0  0  0  0
  2  3  1  0  0  0  0
  2  4  1  0  0  0  0
  2  5  1  0  0  0  0
  1  2  1  0  0  0  0
 15 16  2  0  0  0  0
 15 17  1  0  0  0  0
 11 12  1  0  0  0  0
 11 13  1  0  0  0  0
 11 14  1  0  0  0  0
  9 10  1  0  0  0  0
  9 11  1  0  0  0  0
  9 15  1  0  0  0  0
  7  8  1  0  0  0  0
  7  9  1  0  0  0  0
 19 20  1  0  0  0  0
 19 21  1  0  0  0  0
 19 22  1  0  0  0  0
 17 18  1  0  0  0  0
 17 19  1  0  0  0  0
M  END
$$$$
default_name
  -OEChem-01062215323D

 22 21  0     1  0  0  0  0  0999 V2000
   -2.5423   -3.6749    0.8058 H   0  0  0  0  0  0  0  0  0  0  0  0
   -2.5063   -2.6779    0.3688 C   0  0  0  0  0  0  0  0  0  0  0  0
   -3.1603   -2.0109    0.9268 H   0  0  0  0  0  0  0  0  0  0  0  0
   -2.8193   -2.7229   -0.6722 H   0  0  0  0  0  0  0  0  0  0  0  0
   -1.0873   -2.1629    0.4418 C   0  0  0  0  0  0  0  0  0  0  0  0
   -0.2073   -2.8549    0.9368 O   0  0  0  0  0  0  0  0  0  0  0  0
   -0.8713   -0.9449   -0.0482 N   0  0  0  0  0  0  0  0  0  0  0  0
   -1.6543   -0.4189   -0.4062 H   0  0  0  0  0  0  0  0  0  0  0  0
    0.4237   -0.2649   -0.0462 C   0  0  1  0  0  0  0  0  0  0  0  0
    0.6266    0.1043    0.9604 H   0  0  0  0  0  0  0  0  0  0  0  0
    1.5178   -1.2748   -0.4254 C   0  0  0  0  0  0  0  0  0  0  0  0
    1.3341   -1.6623   -1.4288 H   0  0  0  0  0  0  0  0  0  0  0  0
    2.4949   -0.7935   -0.4006 H   0  0  0  0  0  0  0  0  0  0  0  0
    1.5169   -2.1031    0.2852 H   0  0  0  0  0  0  0  0  0  0  0  0
    0.4147    0.9443   -1.0017 C   0  0  0  0  0  0  0  0  0  0  0  0
    0.3411    2.0898   -0.5575 O   0  0  0  0  0  0  0  0  0  0  0  0
    0.4748    0.6832   -2.3137 N   0  0  0  0  0  0  0  0  0  0  0  0
    0.5279   -0.2809   -2.6012 H   0  0  0  0  0  0  0  0  0  0  0  0
    0.4667    1.7122   -3.3524 C   0  0  0  0  0  0  0  0  0  0  0  0
    1.2751    2.4237   -3.1724 H   0  0  0  0  0  0  0  0  0  0  0  0
    0.5994    1.2599   -4.3363 H   0  0  0  0  0  0  0  0  0  0  0  0
   -0.4815    2.2520   -3.3281 H   0  0  0  0  0  0  0  0  0  0  0  0
  5  6  2  0  0  0  0
  5  7  1  0  0  0  0
  2  3  1  0  0  0  0
  2  4  1  0  0  0  0
  2  5  1  0  0  0  0
  1  2  1  0  0  0  0
 15 16  2  0  0  0  0
 15 17  1  0  0  0  0
 11 12  1  0  0  0  0
 11 13  1  0  0  0  0
 11 14  1  0  0  0  0
  9 10  1  0  0  0  0
  9 11  1  0  0  0  0
  9 15  1  0  0  0  0
  7  8  1  0  0  0  0
  7  9  1  0  0  0  0
 19 20  1  0  0  0  0
 19 21  1  0  0  0  0
 19 22  1  0  0  0  0
 17 18  1  0  0  0  0
 17 19  1  0  0  0  0
M  END
$$$$
default_name
  -OEChem-01062215323D

 22 21  0     1  0  0  0  0  0999 V2000
   -2.5423   -3.6749    0.8058 H   0  0  0  0  0  0  0  0  0  0  0  0
   -2.5063   -2.6779    0.3688 C   0  0  0  0  0  0  0  0  0  0  0  0
   -3.1603   -2.0109    0.9268 H   0  0  0  0  0  0  0  0  0  0  0  0
   -2.8193   -2.7229   -0.6722 H   0  0  0  0  0  0  0  0  0  0  0  0
   -1.0873   -2.1629    0.4418 C   0  0  0  0  0  0  0  0  0  0  0  0
   -0.2073   -2.8549    0.9368 O   0  0  0  0  0  0  0  0  0  0  0  0
   -0.8713   -0.9449   -0.0482 N   0  0  0  0  0  0  0  0  0  0  0  0
   -1.6543   -0.4189   -0.4062 H   0  0  0  0  0  0  0  0  0  0  0  0
    0.4237   -0.2649   -0.0462 C   0  0  1  0  0  0  0  0  0  0  0  0
    0.6266    0.1043    0.9604 H   0  0  0  0  0  0  0  0  0  0  0  0
    1.5178   -1.2748   -0.4254 C   0  0  0  0  0  0  0  0  0  0  0  0
    1.3341   -1.6623   -1.4288 H   0  0  0  0  0  0  0  0  0  0  0  0
    2.4949   -0.7935   -0.4006 H   0  0  0  0  0  0  0  0  0  0  0  0
    1.5169   -2.1031    0.2852 H   0  0  0  0  0  0  0  0  0  0  0  0
    0.4147    0.9443   -1.0017 C   0  0  0  0  0  0  0  0  0  0  0  0
    0.6175    2.0799   -0.5726 O   0  0  0  0  0  0  0  0  0  0  0  0
    0.1643    0.6967   -2.2937 N   0  0  0  0  0  0  0  0  0  0  0  0
    0.0026   -0.2590   -2.5684 H   0  0  0  0  0  0  0  0  0  0  0  0
    0.1104    1.7292   -3.3276 C   0  0  0  0  0  0  0  0  0  0  0  0
    1.0419    2.2988   -3.3282 H   0  0  0  0  0  0  0  0  0  0  0  0
   -0.0339    1.2763   -4.3095 H   0  0  0  0  0  0  0  0  0  0  0  0
   -0.7140    2.4139   -3.1211 H   0  0  0  0  0  0  0  0  0  0  0  0
  5  6  2  0  0  0  0
  5  7  1  0  0  0  0
  2  3  1  0  0  0  0
  2  4  1  0  0  0  0
  2  5  1  0  0  0  0
  1  2  1  0  0  0  0
 15 16  2  0  0  0  0
 15 17  1  0  0  0  0
 11 12  1  0  0  0  0
 11 13  1  0  0  0  0
 11 14  1  0  0  0  0
  9 10  1  0  0  0  0
  9 11  1  0  0  0  0
  9 15  1  0  0  0  0
  7  8  1  0  0  0  0
  7  9  1  0  0  0  0
 19 20  1  0  0  0  0
 19 21  1  0  0  0  0
 19 22  1  0  0  0  0
 17 18  1  0  0  0  0
 17 19  1  0  0  0  0
M  END
$$$$
default_name
  -OEChem-01062215323D

 22 21  0     1  0  0  0  0  0999 V2000
   -2.5423   -3.6749    0.8058 H   0  0  0  0  0  0  0  0  0  0  0  0
   -2.5063   -2.6779    0.3688 C   0  0  0  0  0  0  0  0  0  0  0  0
   -3.1603   -2.0109    0.9268 H   0  0  0  0  0  0  0  0  0  0  0  0
   -2.8193   -2.7229   -0.6722 H   0  0  0  0  0  0  0  0  0  0  0  0
   -1.0873   -2.1629    0.4418 C   0  0  0  0  0  0  0  0  0  0  0  0
   -0.2073   -2.8549    0.9368 O   0  0  0  0  0  0  0  0  0  0  0  0
   -0.8713   -0.9449   -0.0482 N   0  0  0  0  0  0  0  0  0  0  0  0
   -1.6543   -0.4189   -0.4062 H   0  0  0  0  0  0  0  0  0  0  0  0
    0.4237   -0.2649   -0.0462 C   0  0  1  0  0  0  0  0  0  0  0  0
    0.6266    0.1043    0.9604 H   0  0  0  0  0  0  0  0  0  0  0  0
    1.5178   -1.2748   -0.4254 C   0  0  0  0  0  0  0  0  0  0  0  0
    1.3341   -1.6623   -1.4288 H   0  0  0  0  0  0  0  0  0  0  0  0
    2.4949   -0.7935   -0.4006 H   0  0  0  0  0  0  0  0  0  0  0  0
    1.5169   -2.1031    0.2852 H   0  0  0  0  0  0  0  0  0  0  0  0
    0.4147    0.9443   -1.0017 C   0  0  0  0  0  0  0  0  0  0  0  0
    0.8799    2.0260   -0.6433 O   0  0  0  0  0  0  0  0  0  0  0  0
   -0.1294    0.7597   -2.2113 N   0  0  0  0  0  0  0  0  0  0  0  0
   -0.4946   -0.1534   -2.4302 H   0  0  0  0  0  0  0  0  0  0  0  0
   -0.2260    1.8028   -3.2312 C   0  0  0  0  0  0  0  0  0  0  0  0
    0.7650    2.2153   -3.4312 H   0  0  0  0  0  0  0  0  0  0  0  0
   -0.6375    1.3939   -4.1551 H   0  0  0  0  0  0  0  0  0  0  0  0
   -0.8706    2.6078   -2.8741 H   0  0  0  0  0  0  0  0  0  0  0  0
  5  6  2  0  0  0  0
  5  7  1  0  0  0  0
  2  3  1  0  0  0  0
  2  4  1  0  0  0  0
  2  5  1  0  0  0  0
  1  2  1  0  0  0  0
 15 16  2  0  0  0  0
 15 17  1  0  0  0  0
 11 12  1  0  0  0  0
 11 13  1  0  0  0  0
 11 14  1  0  0  0  0
  9 10  1  0  0  0  0
  9 11  1  0  0  0  0
  9 15  1  0  0  0  0
  7  8  1  0  0  0  0
  7  9  1  0  0  0  0
 19 20  1  0  0  0  0
 19 21  1  0  0  0  0
 19 22  1  0  0  0  0
 17 18  1  0  0  0  0
 17 19  1  0  0  0  0
M  END
$$$$
default_name
  -OEChem-01062215323D

 22 21  0     1  0  0  0  0  0999 V2000
   -2.5423   -3.6749    0.8058 H   0  0  0  0  0  0  0  0  0  0  0  0
   -2.5063   -2.6779    0.3688 C   0  0  0  0  0  0  0  0  0  0  0  0
   -3.1603   -2.0109    0.9268 H   0  0  0  0  0  0  0  0  0  0  0  0
   -2.8193   -2.7229   -0.6722 H   0  0  0  0  0  0  0  0  0  0  0  0
   -1.0873   -2.1629    0.4418 C   0  0  0  0  0  0  0  0  0  0  0  0
   -0.2073   -2.8549    0.9368 O   0  0  0  0  0  0  0  0  0  0  0  0
   -0.8713   -0.9449   -0.0482 N   0  0  0  0  0  0  0  0  0  0  0  0
   -1.6543   -0.4189   -0.4062 H   0  0  0  0  0  0  0  0  0  0  0  0
    0.4237   -0.2649   -0.0462 C   0  0  1  0  0  0  0  0  0  0  0  0
    0.6266    0.1043    0.9604 H   0  0  0  0  0  0  0  0  0  0  0  0
    1.5178   -1.2748   -0.4254 C   0  0  0  0  0  0  0  0  0  0  0  0
    1.3341   -1.6623   -1.4288 H   0  0  0  0  0  0  0  0  0  0  0  0
    2.4949   -0.7935   -0.4006 H   0  0  0  0  0  0  0  0  0  0  0  0
    1.5169   -2.1031    0.2852 H   0  0  0  0  0  0  0  0  0  0  0  0
    0.4147    0.9443   -1.0017 C   0  0  0  0  0  0  0  0  0  0  0  0
    1.1103    1.9317   -0.7648 O   0  0  0  0  0  0  0  0  0  0  0  0
   -0.3862    0.8677   -2.0721 N   0  0  0  0  0  0  0  0  0  0  0  0
   -0.9298    0.0285   -2.1958 H   0  0  0  0  0  0  0  0  0  0  0  0
   -0.5195    1.9281   -3.0700 C   0  0  0  0  0  0  0  0  0  0  0  0
    0.4632    2.1790   -3.4743 H   0  0  0  0  0  0  0  0  0  0  0  0
   -1.1703    1.6045   -3.8835 H   0  0  0  0  0  0  0  0  0  0  0  0
   -0.9405    2.8207   -2.6041 H   0  0  0  0  0  0  0  0  0  0  0  0
  5  6  2  0  0  0  0
  5  7  1  0  0  0  0
  2  3  1  0  0  0  0
  2  4  1  0  0  0  0
  2  5  1  0  0  0  0
  1  2  1  0  0  0  0
 15 16  2  0  0  0  0
 15 17  1  0  0  0  0
 11 12  1  0  0  0  0
 11 13  1  0  0  0  0
 11 14  1  0  0  0  0
  9 10  1  0  0  0  0
  9 11  1  0  0  0  0
  9 15  1  0  0  0  0
  7  8  1  0  0  0  0
  7  9  1  0  0  0  0
 19 20  1  0  0  0  0
 19 21  1  0  0  0  0
 19 22  1  0  0  0  0
 17 18  1  0  0  0  0
 17 19  1  0  0  0  0
M  END
$$$$
default_name
  -OEChem-01062215323D

 22 21  0     1  0  0  0  0  0999 V2000
   -2.5423   -3.6749    0.8058 H   0  0  0  0  0  0  0  0  0  0  0  0
   -2.5063   -2.6779    0.3688 C   0  0  0  0  0  0  0  0  0  0  0  0
   -3.1603   -2.0109    0.9268 H   0  0  0  0  0  0  0  0  0  0  0  0
   -2.8193   -2.7229   -0.6722 H   0  0  0  0  0  0  0  0  0  0  0  0
   -1.0873   -2.1629    0.4418 C   0  0  0  0  0  0  0  0  0  0  0  0
   -0.2073   -2.8549    0.9368 O   0  0  0  0  0  0  0  0  0  0  0  0
   -0.8713   -0.9449   -0.0482 N   0  0  0  0  0  0  0  0  0  0  0  0
   -1.6543   -0.4189   -0.4062 H   0  0  0  0  0  0  0  0  0  0  0  0
    0.4237   -0.2649   -0.0462 C   0  0  1  0  0  0  0  0  0  0  0  0
    0.6266    0.1043    0.9604 H   0  0  0  0  0  0  0  0  0  0  0  0
    1.5178   -1.2748   -0.4254 C   0  0  0  0  0  0  0  0  0  0  0  0
    1.3341   -1.6623   -1.4288 H   0  0  0  0  0  0  0  0  0  0  0  0
    2.4949   -0.7935   -0.4006 H   0  0  0  0  0  0  0  0  0  0  0  0
    1.5169   -2.1031    0.2852 H   0  0  0  0  0  0  0  0  0  0  0  0
    0.4147    0.9443   -1.0017 C   0  0  0  0  0  0  0  0  0  0  0  0
    1.2930    1.8035   -0.9288 O   0  0  0  0  0  0  0  0  0  0  0  0
   -0.5887    1.0135   -1.8858 N   0  0  0  0  0  0  0  0  0  0  0  0
   -1.2734    0.2745   -1.8813 H   0  0  0  0  0  0  0  0  0  0  0  0
   -0.7502    2.0964   -2.8548 C   0  0  0  0  0  0  0  0  0  0  0  0
    0.1571    2.1923   -3.4546 H   0  0  0  0  0  0  0  0  0  0  0  0
   -1.5960    1.8938   -3.5134 H   0  0  0  0  0  0  0  0  0  0  0  0
   -0.9191    3.0379   -2.3294 H   0  0  0  0  0  0  0  0  0  0  0  0
  5  6  2  0  0  0  0
  5  7  1  0  0  0  0
  2  3  1  0  0  0  0
  2  4  1  0  0  0  0
  2  5  1  0  0  0  0
  1  2  1  0  0  0  0
 15 16  2  0  0  0  0
 15 17  1  0  0  0  0
 11 12  1  0  0  0  0
 11 13  1  0  0  0  0
 11 14  1  0  0  0  0
  9 10  1  0  0  0  0
  9 11  1  0  0  0  0
  9 15  1  0  0  0  0
  7  8  1  0  0  0  0
  7  9  1  0  0  0  0
 19 20  1  0  0  0  0
 19 21  1  0  0  0  0
 19 22  1  0  0  0  0
 17 18  1  0  0  0  0
 17 19  1  0  0  0  0
M  END
$$$$
default_name
  -OEChem-01062215323D

 22 21  0     1  0  0  0  0  0999 V2000
   -2.5423   -3.6749    0.8058 H   0  0  0  0  0  0  0  0  0  0  0  0
   -2.5063   -2.6779    0.3688 C   0  0  0  0  0  0  0  0  0  0  0  0
   -3.1603   -2.0109    0.9268 H   0  0  0  0  0  0  0  0  0  0  0  0
   -2.8193   -2.7229   -0.6722 H   0  0  0  0  0  0  0  0  0  0  0  0
   -1.0873   -2.1629    0.4418 C   0  0  0  0  0  0  0  0  0  0  0  0
   -0.2073   -2.8549    0.9368 O   0  0  0  0  0  0  0  0  0  0  0  0
   -0.8713   -0.9449   -0.0482 N   0  0  0  0  0  0  0  0  0  0  0  0
   -1.6543   -0.4189   -0.4062 H   0  0  0  0  0  0  0  0  0  0  0  0
    0.4237   -0.2649   -0.0462 C   0  0  1  0  0  0  0  0  0  0  0  0
    0.6266    0.1043    0.9604 H   0  0  0  0  0  0  0  0  0  0  0  0
    1.5178   -1.2748   -0.4254 C   0  0  0  0  0  0  0  0  0  0  0  0
    1.3341   -1.6623   -1.4288 H   0  0  0  0  0  0  0  0  0  0  0  0
    2.4949   -0.7935   -0.4006 H   0  0  0  0  0  0  0  0  0  0  0  0
    1.5169   -2.1031    0.2852 H   0  0  0  0  0  0  0  0  0  0  0  0
    0.4147    0.9443   -1.0017 C   0  0  0  0  0  0  0  0  0  0  0  0
    1.4156    1.6500   -1.1241 O   0  0  0  0  0  0  0  0  0  0  0  0
   -0.7230    1.1870   -1.6648 N   0  0  0  0  0  0  0  0  0  0  0  0
   -1.5020    0.5677   -1.5082 H   0  0  0  0  0  0  0  0  0  0  0  0
   -0.9023    2.2963   -2.6003 C   0  0  0  0  0  0  0  0  0  0  0  0
   -0.1325    2.2543   -3.3734 H   0  0  0  0  0  0  0  0  0  0  0  0
   -1.8856    2.2422   -3.0698 H   0  0  0  0  0  0  0  0  0  0  0  0
   -0.8078    3.2448   -2.0687 H   0  0  0  0  0  0  0  0  0  0  0  0
  5  6  2  0  0  0  0
  5  7  1  0  0  0  0
  2  3  1  0  0  0  0
  2  4  1  0  0  0  0
  2  5  1  0  0  0  0
  1  2  1  0  0  0  0
 15 16  2  0  0  0  0
 15 17  1  0  0  0  0
 11 12  1  0  0  0  0
 11 13  1  0  0  0  0
 11 14  1  0  0  0  0
  9 10  1  0  0  0  0
  9 11  1  0  0  0  0
  9 15  1  0  0  0  0
  7  8  1  0  0  0  0
  7  9  1  0  0  0  0
 19 20  1  0  0  0  0
 19 21  1  0  0  0  0
 19 22  1  0  0  0  0
 17 18  1  0  0  0  0
 17 19  1  0  0  0  0
M  END
$$$$
default_name
  -OEChem-01062215323D

 22 21  0     1  0  0  0  0  0999 V2000
   -2.5423   -3.6749    0.8058 H   0  0  0  0  0  0  0  0  0  0  0  0
   -2.5063   -2.6779    0.3688 C   0  0  0  0  0  0  0  0  0  0  0  0
   -3.1603   -2.0109    0.9268 H   0  0  0  0  0  0  0  0  0  0  0  0
   -2.8193   -2.7229   -0.6722 H   0  0  0  0  0  0  0  0  0  0  0  0
   -1.0873   -2.1629    0.4418 C   0  0  0  0  0  0  0  0  0  0  0  0
   -0.2073   -2.8549    0.9368 O   0  0  0  0  0  0  0  0  0  0  0  0
   -0.8713   -0.9449   -0.0482 N   0  0  0  0  0  0  0  0  0  0  0  0
   -1.6543   -0.4189   -0.4062 H   0  0  0  0  0  0  0  0  0  0  0  0
    0.4237   -0.2649   -0.0462 C   0  0  1  0  0  0  0  0  0  0  0  0
    0.6266    0.1043    0.9604 H   0  0  0  0  0  0  0  0  0  0  0  0
    1.5178   -1.2748   -0.4254 C   0  0  0  0  0  0  0  0  0  0  0  0
    1.3341   -1.6623   -1.4288 H   0  0  0  0  0  0  0  0  0  0  0  0
    2.4949   -0.7935   -0.4006 H   0  0  0  0  0  0  0  0  0  0  0  0
    1.5169   -2.1031    0.2852 H   0  0  0  0  0  0  0  0  0  0  0  0
    0.4147    0.9443   -1.0017 C   0  0  0  0  0  0  0  0  0  0  0  0
    1.4698    1.4819   -1.3374 O   0  0  0  0  0  0  0  0  0  0  0  0
   -0.7801    1.3766   -1.4244 N   0  0  0  0  0  0  0  0  0  0  0  0
   -1.6000    0.8881   -1.1018 H   0  0  0  0  0  0  0  0  0  0  0  0
   -0.9655    2.5143   -2.3240 C   0  0  0  0  0  0  0  0  0  0  0  0
   -0.3857    2.3608   -3.2363 H   0  0  0  0  0  0  0  0  0  0  0  0
   -2.0193    2.6258   -2.5831 H   0  0  0  0  0  0  0  0  0  0  0  0
   -0.6142    3.4271   -1.8398 H   0  0  0  0  0  0  0  0  0  0  0  0
  5  6  2  0  0  0  0
  5  7  1  0  0  0  0
  2  3  1  0  0  0  0
  2  4  1  0  0  0  0
  2  5  1  0  0  0  0
  1  2  1  0  0  0  0
 15 16  2  0  0  0  0
 15 17  1  0  0  0  0
 11 12  1  0  0  0  0
 11 13  1  0  0  0  0
 11 14  1  0  0  0  0
  9 10  1  0  0  0  0
  9 11  1  0  0  0  0
  9 15  1  0  0  0  0
  7  8  1  0  0  0  0
  7  9  1  0  0  0  0
 19 20  1  0  0  0  0
 19 21  1  0  0  0  0
 19 22  1  0  0  0  0
 17 18  1  0  0  0  0
 17 19  1  0  0  0  0
M  END
$$$$
default_name
  -OEChem-01062215323D

 22 21  0     1  0  0  0  0  0999 V2000
   -2.5423   -3.6749    0.8058 H   0  0  0  0  0  0  0  0  0  0  0  0
   -2.5063   -2.6779    0.3688 C   0  0  0  0  0  0  0  0  0  0  0  0
   -3.1603   -2.0109    0.9268 H   0  0  0  0  0  0  0  0  0  0  0  0
   -2.8193   -2.7229   -0.6722 H   0  0  0  0  0  0  0  0  0  0  0  0
   -1.0873   -2.1629    0.4418 C   0  0  0  0  0  0  0  0  0  0  0  0
   -0.2073   -2.8549    0.9368 O   0  0  0  0  0  0  0  0  0  0  0  0
   -0.8713   -0.9449   -0.0482 N   0  0  0  0  0  0  0  0  0  0  0  0
   -1.6543   -0.4189   -0.4062 H   0  0  0  0  0  0  0  0  0  0  0  0
    0.4237   -0.2649   -0.0462 C   0  0  1  0  0  0  0  0  0  0  0  0
    0.6266    0.1043    0.9604 H   0  0  0  0  0  0  0  0  0  0  0  0
    1.5178   -1.2748   -0.4254 C   0  0  0  0  0  0  0  0  0  0  0  0
    1.3341   -1.6623   -1.4288 H   0  0  0  0  0  0  0  0  0  0  0  0
    2.4949   -0.7935   -0.4006 H   0  0  0  0  0  0  0  0  0  0  0  0
    1.5169   -2.1031    0.2852 H   0  0  0  0  0  0  0  0  0  0  0  0
    0.4147    0.9443   -1.0017 C   0  0  0  0  0  0  0  0  0  0  0  0
    1.4518    1.3104   -1.5542 O   0  0  0  0  0  0  0  0  0  0  0  0
   -0.7559    1.5692   -1.1809 N   0  0  0  0  0  0  0  0  0  0  0  0
   -1.5606    1.2139   -0.6898 H   0  0  0  0  0  0  0  0  0  0  0  0
   -0.9355    2.7353   -2.0445 C   0  0  0  0  0  0  0  0  0  0  0  0
   -0.5854    2.5045   -3.0526 H   0  0  0  0  0  0  0  0  0  0  0  0
   -1.9881    3.0186   -2.0863 H   0  0  0  0  0  0  0  0  0  0  0  0
   -0.3514    3.5724   -1.6583 H   0  0  0  0  0  0  0  0  0  0  0  0
  5  6  2  0  0  0  0
  5  7  1  0  0  0  0
  2  3  1  0  0  0  0
  2  4  1  0  0  0  0
  2  5  1  0  0  0  0
  1  2  1  0  0  0  0
 15 16  2  0  0  0  0
 15 17  1  0  0  0  0
 11 12  1  0  0  0  0
 11 13  1  0  0  0  0
 11 14  1  0  0  0  0
  9 10  1  0  0  0  0
  9 11  1  0  0  0  0
  9 15  1  0  0  0  0
  7  8  1  0  0  0  0
  7  9  1  0  0  0  0
 19 20  1  0  0  0  0
 19 21  1  0  0  0  0
 19 22  1  0  0  0  0
 17 18  1  0  0  0  0
 17 19  1  0  0  0  0
M  END
$$$$
default_name
  -OEChem-01062215323D

 22 21  0     1  0  0  0  0  0999 V2000
   -2.5423   -3.6749    0.8058 H   0  0  0  0  0  0  0  0  0  0  0  0
   -2.5063   -2.6779    0.3688 C   0  0  0  0  0  0  0  0  0  0  0  0
   -3.1603   -2.0109    0.9268 H   0  0  0  0  0  0  0  0  0  0  0  0
   -2.8193   -2.7229   -0.6722 H   0  0  0  0  0  0  0  0  0  0  0  0
   -1.0873   -2.1629    0.4418 C   0  0  0  0  0  0  0  0  0  0  0  0
   -0.2073   -2.8549    0.9368 O   0  0  0  0  0  0  0  0  0  0  0  0
   -0.8713   -0.9449   -0.0482 N   0  0  0  0  0  0  0  0  0  0  0  0
   -1.6543   -0.4189   -0.4062 H   0  0  0  0  0  0  0  0  0  0  0  0
    0.4237   -0.2649   -0.0462 C   0  0  1  0  0  0  0  0  0  0  0  0
    0.6266    0.1043    0.9604 H   0  0  0  0  0  0  0  0  0  0  0  0
    1.5178   -1.2748   -0.4254 C   0  0  0  0  0  0  0  0  0  0  0  0
    1.3341   -1.6623   -1.4288 H   0  0  0  0  0  0  0  0  0  0  0  0
    2.4949   -0.7935   -0.4006 H   0  0  0  0  0  0  0  0  0  0  0  0
    1.5169   -2.1031    0.2852 H   0  0  0  0  0  0  0  0  0  0  0  0
    0.4147    0.9443   -1.0017 C   0  0  0  0  0  0  0  0  0  0  0  0
    1.3629    1.1474   -1.7597 O   0  0  0  0  0  0  0  0  0  0  0  0
   -0.6523    1.7518   -0.9509 N   0  0  0  0  0  0  0  0  0  0  0  0
   -1.3867    1.5230   -0.3003 H   0  0  0  0  0  0  0  0  0  0  0  0
   -0.8142    2.9444   -1.7810 C   0  0  0  0  0  0  0  0  0  0  0  0
   -0.7179    2.6756   -2.8348 H   0  0  0  0  0  0  0  0  0  0  0  0
   -1.7941    3.3937   -1.6134 H   0  0  0  0  0  0  0  0  0  0  0  0
   -0.0374    3.6709   -1.5366 H   0  0  0  0  0  0  0  0  0  0  0  0
  5  6  2  0  0  0  0
  5  7  1  0  0  0  0
  2  3  1  0  0  0  0
  2  4  1  0  0  0  0
  2  5  1  0  0  0  0
  1  2  1  0  0  0  0
 15 16  2  0  0  0  0
 15 17  1  0  0  0  0
 11 12  1  0  0  0  0
 11 13  1  0  0  0  0
 11 14  1  0  0  0  0
  9 10  1  0  0  0  0
  9 11  1  0  0  0  0
  9 15  1  0  0  0  0
  7  8  1  0  0  0  0
  7  9  1  0  0  0  0
 19 20  1  0  0  0  0
 19 21  1  0  0  0  0
 19 22  1  0  0  0  0
 17 18  1  0  0  0  0
 17 19  1  0  0  0  0
M  END
$$$$
default_name
  -OEChem-01062215323D

 22 21  0     1  0  0  0  0  0999 V2000
   -2.5423   -3.6749    0.8058 H   0  0  0  0  0  0  0  0  0  0  0  0
   -2.5063   -2.6779    0.3688 C   0  0  0  0  0  0  0  0  0  0  0  0
   -3.1603   -2.0109    0.9268 H   0  0  0  0  0  0  0  0  0  0  0  0
   -2.8193   -2.7229   -0.6722 H   0  0  0  0  0  0  0  0  0  0  0  0
   -1.0873   -2.1629    0.4418 C   0  0  0  0  0  0  0  0  0  0  0  0
   -0.2073   -2.8549    0.9368 O   0  0  0  0  0  0  0  0  0  0  0  0
   -0.8713   -0.9449   -0.0482 N   0  0  0  0  0  0  0  0  0  0  0  0
   -1.6543   -0.4189   -0.4062 H   0  0  0  0  0  0  0  0  0  0  0  0
    0.4237   -0.2649   -0.0462 C   0  0  1  0  0  0  0  0  0  0  0  0
    0.6266    0.1043    0.9604 H   0  0  0  0  0  0  0  0  0  0  0  0
    1.5178   -1.2748   -0.4254 C   0  0  0  0  0  0  0  0  0  0  0  0
    1.3341   -1.6623   -1.4288 H   0  0  0  0  0  0  0  0  0  0  0  0
    2.4949   -0.7935   -0.4006 H   0  0  0  0  0  0  0  0  0  0  0  0
    1.5169   -2.1031    0.2852 H   0  0  0  0  0  0  0  0  0  0  0  0
    0.4147    0.9443   -1.0017 C   0  0  0  0  0  0  0  0  0  0  0  0
    1.2092    1.0038   -1.9399 O   0  0  0  0  0  0  0  0  0  0  0  0
   -0.4761    1.9118   -0.7500 N   0  0  0  0  0  0  0  0  0  0  0  0
   -1.0901    1.7942    0.0401 H   0  0  0  0  0  0  0  0  0  0  0  0
   -0.6100    3.1274   -1.5514 C   0  0  0  0  0  0  0  0  0  0  0  0
   -0.7743    2.8624   -2.5978 H   0  0  0  0  0  0  0  0  0  0  0  0
   -1.4505    3.7256   -1.1966 H   0  0  0  0  0  0  0  0  0  0  0  0
    0.3065    3.7159   -1.4830 H   0  0  0  0  0  0  0  0  0  0  0  0
  5  6  2  0  0  0  0
  5  7  1  0  0  0  0
  2  3  1  0  0  0  0
  2  4  1  0  0  0  0
  2  5  1  0  0  0  0
  1  2  1  0  0  0  0
 15 16  2  0  0  0  0
 15 17  1  0  0  0  0
 11 12  1  0  0  0  0
 11 13  1  0  0  0  0
 11 14  1  0  0  0  0
  9 10  1  0  0  0  0
  9 11  1  0  0  0  0
  9 15  1  0  0  0  0
  7  8  1  0  0  0  0
  7  9  1  0  0  0  0
 19 20  1  0  0  0  0
 19 21  1  0  0  0  0
 19 22  1  0  0  0  0
 17 18  1  0  0  0  0
 17 19  1  0  0  0  0
M  END
$$$$
default_name
  -OEChem-01062215323D

 22 21  0     1  0  0  0  0  0999 V2000
   -2.5423   -3.6749    0.8058 H   0  0  0  0  0  0  0  0  0  0  0  0
   -2.5063   -2.6779    0.3688 C   0  0  0  0  0  0  0  0  0  0  0  0
   -3.1603   -2.0109    0.9268 H   0  0  0  0  0  0  0  0  0  0  0  0
   -2.8193   -2.7229   -0.6722 H   0  0  0  0  0  0  0  0  0  0  0  0
   -1.0873   -2.1629    0.4418 C   0  0  0  0  0  0  0  0  0  0  0  0
   -0.2073   -2.8549    0.9368 O   0  0  0  0  0  0  0  0  0  0  0  0
   -0.8713   -0.9449   -0.0482 N   0  0  0  0  0  0  0  0  0  0  0  0
   -1.6543   -0.4189   -0.4062 H   0  0  0  0  0  0  0  0  0  0  0  0
    0.4237   -0.2649   -0.0462 C   0  0  1  0  0  0  0  0  0  0  0  0
    0.6266    0.1043    0.9604 H   0  0  0  0  0  0  0  0  0  0  0  0
    1.5178   -1.2748   -0.4254 C   0  0  0  0  0  0  0  0  0  0  0  0
    1.3341   -1.6623   -1.4288 H   0  0  0  0  0  0  0  0  0  0  0  0
    2.4949   -0.7935   -0.4006 H   0  0  0  0  0  0  0  0  0  0  0  0
    1.5169   -2.1031    0.2852 H   0  0  0  0  0  0  0  0  0  0  0  0
    0.4147    0.9443   -1.0017 C   0  0  0  0  0  0  0  0  0  0  0  0
    1.0010    0.8896   -2.0825 O   0  0  0  0  0  0  0  0  0  0  0  0
   -0.2395    2.0384   -0.5920 N   0  0  0  0  0  0  0  0  0  0  0  0
   -0.6908    2.0091    0.3083 H   0  0  0  0  0  0  0  0  0  0  0  0
   -0.3368    3.2717   -1.3714 C   0  0  0  0  0  0  0  0  0  0  0  0
   -0.7506    3.0523   -2.3577 H   0  0  0  0  0  0  0  0  0  0  0  0
   -0.9806    3.9917   -0.8643 H   0  0  0  0  0  0  0  0  0  0  0  0
    0.6567    3.7042   -1.5010 H   0  0  0  0  0  0  0  0  0  0  0  0
  5  6  2  0  0  0  0
  5  7  1  0  0  0  0
  2  3  1  0  0  0  0
  2  4  1  0  0  0  0
  2  5  1  0  0  0  0
  1  2  1  0  0  0  0
 15 16  2  0  0  0  0
 15 17  1  0  0  0  0
 11 12  1  0  0  0  0
 11 13  1  0  0  0  0
 11 14  1  0  0  0  0
  9 10  1  0  0  0  0
  9 11  1  0  0  0  0
  9 15  1  0  0  0  0
  7  8  1  0  0  0  0
  7  9  1  0  0  0  0
 19 20  1  0  0  0  0
 19 21  1  0  0  0  0
 19 22  1  0  0  0  0
 17 18  1  0  0  0  0
 17 19  1  0  0  0  0
M  END
$$$$
default_name
  -OEChem-01062215323D

 22 21  0     1  0  0  0  0  0999 V2000
   -2.5423   -3.6749    0.8058 H   0  0  0  0  0  0  0  0  0  0  0  0
   -2.5063   -2.6779    0.3688 C   0  0  0  0  0  0  0  0  0  0  0  0
   -3.1603   -2.0109    0.9268 H   0  0  0  0  0  0  0  0  0  0  0  0
   -2.8193   -2.7229   -0.6722 H   0  0  0  0  0  0  0  0  0  0  0  0
   -1.0873   -2.1629    0.4418 C   0  0  0  0  0  0  0  0  0  0  0  0
   -0.2073   -2.8549    0.9368 O   0  0  0  0  0  0  0  0  0  0  0  0
   -0.8713   -0.9449   -0.0482 N   0  0  0  0  0  0  0  0  0  0  0  0
   -1.6543   -0.4189   -0.4062 H   0  0  0  0  0  0  0  0  0  0  0  0
    0.4237   -0.2649   -0.0462 C   0  0  1  0  0  0  0  0  0  0  0  0
    0.6266    0.1043    0.9604 H   0  0  0  0  0  0  0  0  0  0  0  0
    1.5178   -1.2748   -0.4254 C   0  0  0  0  0  0  0  0  0  0  0  0
    1.3341   -1.6623   -1.4288 H   0  0  0  0  0  0  0  0  0  0  0  0
    2.4949   -0.7935   -0.4006 H   0  0  0  0  0  0  0  0  0  0  0  0
    1.5169   -2.1031    0.2852 H   0  0  0  0  0  0  0  0  0  0  0  0
    0.4147    0.9443   -1.0017 C   0  0  0  0  0  0  0  0  0  0  0  0
    0.7527    0.8124   -2.1779 O   0  0  0  0  0  0  0  0  0  0  0  0
    0.0414    2.1230   -0.4876 N   0  0  0  0  0  0  0  0  0  0  0  0
   -0.2163    2.1530    0.4859 H   0  0  0  0  0  0  0  0  0  0  0  0
   -0.0133    3.3675   -1.2532 C   0  0  0  0  0  0  0  0  0  0  0  0
   -0.6485    3.2323   -2.1309 H   0  0  0  0  0  0  0  0  0  0  0  0
   -0.4166    4.1739   -0.6391 H   0  0  0  0  0  0  0  0  0  0  0  0
    0.9894    3.6367   -1.5896 H   0  0  0  0  0  0  0  0  0  0  0  0
  5  6  2  0  0  0  0
  5  7  1  0  0  0  0
  2  3  1  0  0  0  0
  2  4  1  0  0  0  0
  2  5  1  0  0  0  0
  1  2  1  0  0  0  0
 15 16  2  0  0  0  0
 15 17  1  0  0  0  0
 11 12  1  0  0  0  0
 11 13  1  0  0  0  0
 11 14  1  0  0  0  0
  9 10  1  0  0  0  0
  9 11  1  0  0  0  0
  9 15  1  0  0  0  0
  7  8  1  0  0  0  0
  7  9  1  0  0  0  0
 19 20  1  0  0  0  0
 19 21  1  0  0  0  0
 19 22  1  0  0  0  0
 17 18  1  0  0  0  0
 17 19  1  0  0  0  0
M  END
$$$$
default_name
  -OEChem-01062215323D

 22 21  0     1  0  0  0  0  0999 V2000
   -2.5423   -3.6749    0.8058 H   0  0  0  0  0  0  0  0  0  0  0  0
   -2.5063   -2.6779    0.3688 C   0  0  0  0  0  0  0  0  0  0  0  0
   -3.1603   -2.0109    0.9268 H   0  0  0  0  0  0  0  0  0  0  0  0
   -2.8193   -2.7229   -0.6722 H   0  0  0  0  0  0  0  0  0  0  0  0
   -1.0873   -2.1629    0.4418 C   0  0  0  0  0  0  0  0  0  0  0  0
   -0.2073   -2.8549    0.9368 O   0  0  0  0  0  0  0  0  0  0  0  0
   -0.8713   -0.9449   -0.0482 N   0  0  0  0  0  0  0  0  0  0  0  0
   -1.6543   -0.4189   -0.4062 H   0  0  0  0  0  0  0  0  0  0  0  0
    0.4237   -0.2649   -0.0462 C   0  0  1  0  0  0  0  0  0  0  0  0
    0.6266    0.1043    0.9604 H   0  0  0  0  0  0  0  0  0  0  0  0
    1.5178   -1.2748   -0.4254 C   0  0  0  0  0  0  0  0  0  0  0  0
    1.3341   -1.6623   -1.4288 H   0  0  0  0  0  0  0  0  0  0  0  0
    2.4949   -0.7935   -0.4006 H   0  0  0  0  0  0  0  0  0  0  0  0
    1.5169   -2.1031    0.2852 H   0  0  0  0  0  0  0  0  0  0  0  0
    0.4147    0.9443   -1.0017 C   0  0  0  0  0  0  0  0  0  0  0  0
    0.4810    0.7776   -2.2194 O   0  0  0  0  0  0  0  0  0  0  0  0
    0.3476    2.1598   -0.4439 N   0  0  0  0  0  0  0  0  0  0  0  0
    0.3012    2.2161    0.5609 H   0  0  0  0  0  0  0  0  0  0  0  0
    0.3387    3.4083   -1.2049 C   0  0  0  0  0  0  0  0  0  0  0  0
   -0.4749    3.3901   -1.9329 H   0  0  0  0  0  0  0  0  0  0  0  0
    0.2031    4.2596   -0.5364 H   0  0  0  0  0  0  0  0  0  0  0  0
    1.2820    3.5180   -1.7426 H   0  0  0  0  0  0  0  0  0  0  0  0
  5  6  2  0  0  0  0
  5  7  1  0  0  0  0
  2  3  1  0  0  0  0
  2  4  1  0  0  0  0
  2  5  1  0  0  0  0
  1  2  1  0  0  0  0
 15 16  2  0  0  0  0
 15 17  1  0  0  0  0
 11 12  1  0  0  0  0
 11 13  1  0  0  0  0
 11 14  1  0  0  0  0
  9 10  1  0  0  0  0
  9 11  1  0  0  0  0
  9 15  1  0  0  0  0
  7  8  1  0  0  0  0
  7  9  1  0  0  0  0
 19 20  1  0  0  0  0
 19 21  1  0  0  0  0
 19 22  1  0  0  0  0
 17 18  1  0  0  0  0
 17 19  1  0  0  0  0
M  END
$$$$
default_name
  -OEChem-01062215323D

 22 21  0     1  0  0  0  0  0999 V2000
   -2.5423   -3.6749    0.8058 H   0  0  0  0  0  0  0  0  0  0  0  0
   -2.5063   -2.6779    0.3688 C   0  0  0  0  0  0  0  0  0  0  0  0
   -3.1603   -2.0109    0.9268 H   0  0  0  0  0  0  0  0  0  0  0  0
   -2.8193   -2.7229   -0.6722 H   0  0  0  0  0  0  0  0  0  0  0  0
   -1.0873   -2.1629    0.4418 C   0  0  0  0  0  0  0  0  0  0  0  0
   -0.2073   -2.8549    0.9368 O   0  0  0  0  0  0  0  0  0  0  0  0
   -0.8713   -0.9449   -0.0482 N   0  0  0  0  0  0  0  0  0  0  0  0
   -1.6543   -0.4189   -0.4062 H   0  0  0  0  0  0  0  0  0  0  0  0
    0.4237   -0.2649   -0.0462 C   0  0  1  0  0  0  0  0  0  0  0  0
    0.6266    0.1043    0.9604 H   0  0  0  0  0  0  0  0  0  0  0  0
    1.5178   -1.2748   -0.4254 C   0  0  0  0  0  0  0  0  0  0  0  0
    1.3341   -1.6623   -1.4288 H   0  0  0  0  0  0  0  0  0  0  0  0
    2.4949   -0.7935   -0.4006 H   0  0  0  0  0  0  0  0  0  0  0  0
    1.5169   -2.1031    0.2852 H   0  0  0  0  0  0  0  0  0  0  0  0
    0.4147    0.9443   -1.0017 C   0  0  0  0  0  0  0  0  0  0  0  0
    0.2046    0.7874   -2.2043 O   0  0  0  0  0  0  0  0  0  0  0  0
    0.6581    2.1462   -0.4640 N   0  0  0  0  0  0  0  0  0  0  0  0
    0.8265    2.1941    0.5281 H   0  0  0  0  0  0  0  0  0  0  0  0
    0.6950    3.3912   -1.2298 C   0  0  0  0  0  0  0  0  0  0  0  0
   -0.2417    3.5150   -1.7770 H   0  0  0  0  0  0  0  0  0  0  0  0
    0.8363    4.2432   -0.5632 H   0  0  0  0  0  0  0  0  0  0  0  0
    1.5146    3.3562   -1.9496 H   0  0  0  0  0  0  0  0  0  0  0  0
  5  6  2  0  0  0  0
  5  7  1  0  0  0  0
  2  3  1  0  0  0  0
  2  4  1  0  0  0  0
  2  5  1  0  0  0  0
  1  2  1  0  0  0  0
 15 16  2  0  0  0  0
 15 17  1  0  0  0  0
 11 12  1  0  0  0  0
 11 13  1  0  0  0  0
 11 14  1  0  0  0  0
  9 10  1  0  0  0  0
  9 11  1  0  0  0  0
  9 15  1  0  0  0  0
  7  8  1  0  0  0  0
  7  9  1  0  0  0  0
 19 20  1  0  0  0  0
 19 21  1  0  0  0  0
 19 22  1  0  0  0  0
 17 18  1  0  0  0  0
 17 19  1  0  0  0  0
M  END
$$$$
default_name
  -OEChem-01062215323D

 22 21  0     1  0  0  0  0  0999 V2000
   -2.5423   -3.6749    0.8058 H   0  0  0  0  0  0  0  0  0  0  0  0
   -2.5063   -2.6779    0.3688 C   0  0  0  0  0  0  0  0  0  0  0  0
   -3.1603   -2.0109    0.9268 H   0  0  0  0  0  0  0  0  0  0  0  0
   -2.8193   -2.7229   -0.6722 H   0  0  0  0  0  0  0  0  0  0  0  0
   -1.0873   -2.1629    0.4418 C   0  0  0  0  0  0  0  0  0  0  0  0
   -0.2073   -2.8549    0.9368 O   0  0  0  0  0  0  0  0  0  0  0  0
   -0.8713   -0.9449   -0.0482 N   0  0  0  0  0  0  0  0  0  0  0  0
   -1.6543   -0.4189   -0.4062 H   0  0  0  0  0  0  0  0  0  0  0  0
    0.4237   -0.2649   -0.0462 C   0  0  1  0  0  0  0  0  0  0  0  0
    0.6266    0.1043    0.9604 H   0  0  0  0  0  0  0  0  0  0  0  0
    1.5178   -1.2748   -0.4254 C   0  0  0  0  0  0  0  0  0  0  0  0
    1.3341   -1.6623   -1.4288 H   0  0  0  0  0  0  0  0  0  0  0  0
    2.4949   -0.7935   -0.4006 H   0  0  0  0  0  0  0  0  0  0  0  0
    1.5169   -2.1031    0.2852 H   0  0  0  0  0  0  0  0  0  0  0  0
    0.4147    0.9443   -1.0017 C   0  0  0  0  0  0  0  0  0  0  0  0
   -0.0577    0.8414   -2.1336 O   0  0  0  0  0  0  0  0  0  0  0  0
    0.9517    2.0833   -0.5464 N   0  0  0  0  0  0  0  0  0  0  0  0
    1.3237    2.0886    0.3899 H   0  0  0  0  0  0  0  0  0  0  0  0
    1.0314    3.3176   -1.3261 C   0  0  0  0  0  0  0  0  0  0  0  0
    0.0353    3.5984   -1.6740 H   0  0  0  0  0  0  0  0  0  0  0  0
    1.4399    4.1256   -0.7176 H   0  0  0  0  0  0  0  0  0  0  0  0
    1.6711    3.1622   -2.1965 H   0  0  0  0  0  0  0  0  0  0  0  0
  5  6  2  0  0  0  0
  5  7  1  0  0  0  0
  2  3  1  0  0  0  0
  2  4  1  0  0  0  0
  2  5  1  0  0  0  0
  1  2  1  0  0  0  0
 15 16  2  0  0  0  0
 15 17  1  0  0  0  0
 11 12  1  0  0  0  0
 11 13  1  0  0  0  0
 11 14  1  0  0  0  0
  9 10  1  0  0  0  0
  9 11  1  0  0  0  0
  9 15  1  0  0  0  0
  7  8  1  0  0  0  0
  7  9  1  0  0  0  0
 19 20  1  0  0  0  0
 19 21  1  0  0  0  0
 19 22  1  0  0  0  0
 17 18  1  0  0  0  0
 17 19  1  0  0  0  0
M  END
$$$$
default_name
  -OEChem-01062215323D

 22 21  0     1  0  0  0  0  0999 V2000
   -2.5423   -3.6749    0.8058 H   0  0  0  0  0  0  0  0  0  0  0  0
   -2.5063   -2.6779    0.3688 C   0  0  0  0  0  0  0  0  0  0  0  0
   -3.1603   -2.0109    0.9268 H   0  0  0  0  0  0  0  0  0  0  0  0
   -2.8193   -2.7229   -0.6722 H   0  0  0  0  0  0  0  0  0  0  0  0
   -1.0873   -2.1629    0.4418 C   0  0  0  0  0  0  0  0  0  0  0  0
   -0.2073   -2.8549    0.9368 O   0  0  0  0  0  0  0  0  0  0  0  0
   -0.8713   -0.9449   -0.0482 N   0  0  0  0  0  0  0  0  0  0  0  0
   -1.6543   -0.4189   -0.4062 H   0  0  0  0  0  0  0  0  0  0  0  0
    0.4237   -0.2649   -0.0462 C   0  0  1  0  0  0  0  0  0  0  0  0
    0.6266    0.1043    0.9604 H   0  0  0  0  0  0  0  0  0  0  0  0
    1.5178   -1.2748   -0.4254 C   0  0  0  0  0  0  0  0  0  0  0  0
    1.3341   -1.6623   -1.4288 H   0  0  0  0  0  0  0  0  0  0  0  0
    2.4949   -0.7935   -0.4006 H   0  0  0  0  0  0  0  0  0  0  0  0
    1.5169   -2.1031    0.2852 H   0  0  0  0  0  0  0  0  0  0  0  0
    0.4147    0.9443   -1.0017 C   0  0  0  0  0  0  0  0  0  0  0  0
   -0.2881    0.9356   -2.0121 O   0  0  0  0  0  0  0  0  0  0  0  0
    1.2085    1.9753   -0.6855 N   0  0  0  0  0  0  0  0  0  0  0  0
    1.7589    1.9066    0.1555 H   0  0  0  0  0  0  0  0  0  0  0  0
    1.3249    3.1924   -1.4874 C   0  0  0  0  0  0  0  0  0  0  0  0
    0.3371    3.6347   -1.6309 H   0  0  0  0  0  0  0  0  0  0  0  0
    1.9727    3.9150   -0.9892 H   0  0  0  0  0  0  0  0  0  0  0  0
    1.7411    2.9493   -2.4666 H   0  0  0  0  0  0  0  0  0  0  0  0
  5  6  2  0  0  0  0
  5  7  1  0  0  0  0
  2  3  1  0  0  0  0
  2  4  1  0  0  0  0
  2  5  1  0  0  0  0
  1  2  1  0  0  0  0
 15 16  2  0  0  0  0
 15 17  1  0  0  0  0
 11 12  1  0  0  0  0
 11 13  1  0  0  0  0
 11 14  1  0  0  0  0
  9 10  1  0  0  0  0
  9 11  1  0  0  0  0
  9 15  1  0  0  0  0
  7  8  1  0  0  0  0
  7  9  1  0  0  0  0
 19 20  1  0  0  0  0
 19 21  1  0  0  0  0
 19 22  1  0  0  0  0
 17 18  1  0  0  0  0
 17 19  1  0  0  0  0
M  END
$$$$
default_name
  -OEChem-01062215323D

 22 21  0     1  0  0  0  0  0999 V2000
   -2.5423   -3.6749    0.8058 H   0  0  0  0  0  0  0  0  0  0  0  0
   -2.5063   -2.6779    0.3688 C   0  0  0  0  0  0  0  0  0  0  0  0
   -3.1603   -2.0109    0.9268 H   0  0  0  0  0  0  0  0  0  0  0  0
   -2.8193   -2.7229   -0.6722 H   0  0  0  0  0  0  0  0  0  0  0  0
   -1.0873   -2.1629    0.4418 C   0  0  0  0  0  0  0  0  0  0  0  0
   -0.2073   -2.8549    0.9368 O   0  0  0  0  0  0  0  0  0  0  0  0
   -0.8713   -0.9449   -0.0482 N   0  0  0  0  0  0  0  0  0  0  0  0
   -1.6543   -0.4189   -0.4062 H   0  0  0  0  0  0  0  0  0  0  0  0
    0.4237   -0.2649   -0.0462 C   0  0  1  0  0  0  0  0  0  0  0  0
    0.6266    0.1043    0.9604 H   0  0  0  0  0  0  0  0  0  0  0  0
    1.5178   -1.2748   -0.4254 C   0  0  0  0  0  0  0  0  0  0  0  0
    1.3341   -1.6623   -1.4288 H   0  0  0  0  0  0  0  0  0  0  0  0
    2.4949   -0.7935   -0.4006 H   0  0  0  0  0  0  0  0  0  0  0  0
    1.5169   -2.1031    0.2852 H   0  0  0  0  0  0  0  0  0  0  0  0
    0.4147    0.9443   -1.0017 C   0  0  0  0  0  0  0  0  0  0  0  0
   -0.4708    1.0639   -1.8481 O   0  0  0  0  0  0  0  0  0  0  0  0
    1.4110    1.8295   -0.8719 N   0  0  0  0  0  0  0  0  0  0  0  0
    2.1025    1.6607   -0.1589 H   0  0  0  0  0  0  0  0  0  0  0  0
    1.5556    3.0240   -1.7026 C   0  0  0  0  0  0  0  0  0  0  0  0
    0.6432    3.6214   -1.6506 H   0  0  0  0  0  0  0  0  0  0  0  0
    2.3984    3.6257   -1.3594 H   0  0  0  0  0  0  0  0  0  0  0  0
    1.7197    2.7321   -2.7413 H   0  0  0  0  0  0  0  0  0  0  0  0
  5  6  2  0  0  0  0
  5  7  1  0  0  0  0
  2  3  1  0  0  0  0
  2  4  1  0  0  0  0
  2  5  1  0  0  0  0
  1  2  1  0  0  0  0
 15 16  2  0  0  0  0
 15 17  1  0  0  0  0
 11 12  1  0  0  0  0
 11 13  1  0  0  0  0
 11 14  1  0  0  0  0
  9 10  1  0  0  0  0
  9 11  1  0  0  0  0
  9 15  1  0  0  0  0
  7  8  1  0  0  0  0
  7  9  1  0  0  0  0
 19 20  1  0  0  0  0
 19 21  1  0  0  0  0
 19 22  1  0  0  0  0
 17 18  1  0  0  0  0
 17 19  1  0  0  0  0
M  END
$$$$
