
  -OEChem-11182114133D

 22 21  0     1  0  0  0  0  0999 V2000
   -2.7250   -3.5910    1.1798 H   0  0  0  0  0  0  0  0  0  0  0  0
   -2.6628   -2.5861    0.7534 C   0  0  0  0  0  0  0  0  0  0  0  0
   -3.3887   -1.9433    1.2570 H   0  0  0  0  0  0  0  0  0  0  0  0
   -2.9089   -2.6388   -0.3098 H   0  0  0  0  0  0  0  0  0  0  0  0
   -1.2639   -2.0279    0.9338 C   0  0  0  0  0  0  0  0  0  0  0  0
   -0.4302   -2.6677    1.5543 O   0  0  0  0  0  0  0  0  0  0  0  0
   -0.9617   -0.7779    0.4351 N   0  0  0  0  0  0  0  0  0  0  0  0
   -1.7076   -0.2726   -0.0436 H   0  0  0  0  0  0  0  0  0  0  0  0
    0.3630   -0.1377    0.4227 C   0  0  1  0  0  0  0  0  0  0  0  0
    0.7230   -0.0276    1.4507 H   0  0  0  0  0  0  0  0  0  0  0  0
    1.3575   -0.9911   -0.3859 C   0  0  0  0  0  0  0  0  0  0  0  0
    0.9870   -1.1424   -1.4048 H   0  0  0  0  0  0  0  0  0  0  0  0
    2.3345   -0.5025   -0.4401 H   0  0  0  0  0  0  0  0  0  0  0  0
    1.5049   -1.9702    0.0775 H   0  0  0  0  0  0  0  0  0  0  0  0
    0.2808    1.2671   -0.2213 C   0  0  0  0  0  0  0  0  0  0  0  0
   -0.7902    1.6906   -0.6452 O   0  0  0  0  0  0  0  0  0  0  0  0
    1.4086    2.0594   -0.3409 N   0  0  0  0  0  0  0  0  0  0  0  0
    2.2845    1.6871    0.0139 H   0  0  0  0  0  0  0  0  0  0  0  0
    1.3988    3.3829   -0.9520 C   0  0  0  0  0  0  0  0  0  0  0  0
    0.7041    4.0442   -0.4239 H   0  0  0  0  0  0  0  0  0  0  0  0
    2.3977    3.8273   -0.9087 H   0  0  0  0  0  0  0  0  0  0  0  0
    1.0945    3.3180   -2.0018 H   0  0  0  0  0  0  0  0  0  0  0  0
  1  2  1  0  0  0  0
  2  3  1  0  0  0  0
  2  4  1  0  0  0  0
  2  5  1  0  0  0  0
  5  6  2  0  0  0  0
  5  7  1  0  0  0  0
  7  8  1  0  0  0  0
  7  9  1  0  0  0  0
  9 10  1  0  0  0  0
  9 11  1  0  0  0  0
  9 15  1  0  0  0  0
 11 12  1  0  0  0  0
 11 13  1  0  0  0  0
 11 14  1  0  0  0  0
 15 16  2  0  0  0  0
 15 17  1  0  0  0  0
 17 18  1  0  0  0  0
 17 19  1  0  0  0  0
 19 20  1  0  0  0  0
 19 21  1  0  0  0  0
 19 22  1  0  0  0  0
M  END
$$$$

  -OEChem-11182114133D

 22 21  0     1  0  0  0  0  0999 V2000
   -2.7609   -3.5633    1.1829 H   0  0  0  0  0  0  0  0  0  0  0  0
   -2.6811   -2.5568    0.7627 C   0  0  0  0  0  0  0  0  0  0  0  0
   -3.3730   -1.8978    1.2926 H   0  0  0  0  0  0  0  0  0  0  0  0
   -2.9598   -2.5935   -0.2931 H   0  0  0  0  0  0  0  0  0  0  0  0
   -1.2619   -2.0400    0.9061 C   0  0  0  0  0  0  0  0  0  0  0  0
   -0.4318   -2.7091    1.4996 O   0  0  0  0  0  0  0  0  0  0  0  0
   -0.9424   -0.7917    0.4133 N   0  0  0  0  0  0  0  0  0  0  0  0
   -1.7003   -0.2461    0.0024 H   0  0  0  0  0  0  0  0  0  0  0  0
    0.3841   -0.1526    0.4151 C   0  0  1  0  0  0  0  0  0  0  0  0
    0.7302   -0.0354    1.4470 H   0  0  0  0  0  0  0  0  0  0  0  0
    1.3933   -1.0147   -0.3690 C   0  0  0  0  0  0  0  0  0  0  0  0
    1.0558   -1.1503   -1.4013 H   0  0  0  0  0  0  0  0  0  0  0  0
    2.3802   -0.5441   -0.3821 H   0  0  0  0  0  0  0  0  0  0  0  0
    1.5112   -2.0007    0.0875 H   0  0  0  0  0  0  0  0  0  0  0  0
    0.2967    1.2527   -0.2331 C   0  0  0  0  0  0  0  0  0  0  0  0
   -0.8001    1.7630   -0.4387 O   0  0  0  0  0  0  0  0  0  0  0  0
    1.4304    1.9390   -0.6329 N   0  0  0  0  0  0  0  0  0  0  0  0
    2.3295    1.4929   -0.4776 H   0  0  0  0  0  0  0  0  0  0  0  0
    1.3929    3.2463   -1.2776 C   0  0  0  0  0  0  0  0  0  0  0  0
    0.8729    3.9724   -0.6436 H   0  0  0  0  0  0  0  0  0  0  0  0
    2.4095    3.6102   -1.4548 H   0  0  0  0  0  0  0  0  0  0  0  0
    0.8745    3.1837   -2.2402 H   0  0  0  0  0  0  0  0  0  0  0  0
  1  2  1  0  0  0  0
  2  3  1  0  0  0  0
  2  4  1  0  0  0  0
  2  5  1  0  0  0  0
  5  6  2  0  0  0  0
  5  7  1  0  0  0  0
  7  8  1  0  0  0  0
  7  9  1  0  0  0  0
  9 10  1  0  0  0  0
  9 11  1  0  0  0  0
  9 15  1  0  0  0  0
 11 12  1  0  0  0  0
 11 13  1  0  0  0  0
 11 14  1  0  0  0  0
 15 16  2  0  0  0  0
 15 17  1  0  0  0  0
 17 18  1  0  0  0  0
 17 19  1  0  0  0  0
 19 20  1  0  0  0  0
 19 21  1  0  0  0  0
 19 22  1  0  0  0  0
M  END
$$$$

  -OEChem-11182114133D

 22 21  0     1  0  0  0  0  0999 V2000
   -2.7869   -3.5370    1.1923 H   0  0  0  0  0  0  0  0  0  0  0  0
   -2.6939   -2.5339    0.7667 C   0  0  0  0  0  0  0  0  0  0  0  0
   -3.3637   -1.8592    1.3053 H   0  0  0  0  0  0  0  0  0  0  0  0
   -2.9906   -2.5687   -0.2842 H   0  0  0  0  0  0  0  0  0  0  0  0
   -1.2621   -2.0461    0.8844 C   0  0  0  0  0  0  0  0  0  0  0  0
   -0.4348   -2.7377    1.4553 O   0  0  0  0  0  0  0  0  0  0  0  0
   -0.9305   -0.7998    0.3931 N   0  0  0  0  0  0  0  0  0  0  0  0
   -1.6959   -0.2262    0.0387 H   0  0  0  0  0  0  0  0  0  0  0  0
    0.3981   -0.1638    0.4063 C   0  0  1  0  0  0  0  0  0  0  0  0
    0.7286   -0.0357    1.4421 H   0  0  0  0  0  0  0  0  0  0  0  0
    1.4253   -1.0333   -0.3485 C   0  0  0  0  0  0  0  0  0  0  0  0
    1.1122   -1.1770   -1.3874 H   0  0  0  0  0  0  0  0  0  0  0  0
    2.4131   -0.5641   -0.3394 H   0  0  0  0  0  0  0  0  0  0  0  0
    1.5338   -2.0158    0.1173 H   0  0  0  0  0  0  0  0  0  0  0  0
    0.3068    1.2395   -0.2485 C   0  0  0  0  0  0  0  0  0  0  0  0
   -0.7631    1.8394   -0.2389 O   0  0  0  0  0  0  0  0  0  0  0  0
    1.3738    1.8122   -0.9200 N   0  0  0  0  0  0  0  0  0  0  0  0
    2.2413    1.2858   -0.9574 H   0  0  0  0  0  0  0  0  0  0  0  0
    1.3026    3.1037   -1.5934 C   0  0  0  0  0  0  0  0  0  0  0  0
    1.0168    3.8898   -0.8865 H   0  0  0  0  0  0  0  0  0  0  0  0
    2.2766    3.3618   -2.0203 H   0  0  0  0  0  0  0  0  0  0  0  0
    0.5665    3.0735   -2.4037 H   0  0  0  0  0  0  0  0  0  0  0  0
  1  2  1  0  0  0  0
  2  3  1  0  0  0  0
  2  4  1  0  0  0  0
  2  5  1  0  0  0  0
  5  6  2  0  0  0  0
  5  7  1  0  0  0  0
  7  8  1  0  0  0  0
  7  9  1  0  0  0  0
  9 10  1  0  0  0  0
  9 11  1  0  0  0  0
  9 15  1  0  0  0  0
 11 12  1  0  0  0  0
 11 13  1  0  0  0  0
 11 14  1  0  0  0  0
 15 16  2  0  0  0  0
 15 17  1  0  0  0  0
 17 18  1  0  0  0  0
 17 19  1  0  0  0  0
 19 20  1  0  0  0  0
 19 21  1  0  0  0  0
 19 22  1  0  0  0  0
M  END
$$$$

  -OEChem-11182114133D

 22 21  0     1  0  0  0  0  0999 V2000
   -2.8036   -3.5155    1.2057 H   0  0  0  0  0  0  0  0  0  0  0  0
   -2.7032   -2.5162    0.7725 C   0  0  0  0  0  0  0  0  0  0  0  0
   -3.3497   -1.8277    1.3220 H   0  0  0  0  0  0  0  0  0  0  0  0
   -3.0225   -2.5517   -0.2717 H   0  0  0  0  0  0  0  0  0  0  0  0
   -1.2616   -2.0515    0.8579 C   0  0  0  0  0  0  0  0  0  0  0  0
   -0.4334   -2.7616    1.4036 O   0  0  0  0  0  0  0  0  0  0  0  0
   -0.9247   -0.8058    0.3675 N   0  0  0  0  0  0  0  0  0  0  0  0
   -1.6967   -0.2132    0.0639 H   0  0  0  0  0  0  0  0  0  0  0  0
    0.4047   -0.1713    0.3939 C   0  0  1  0  0  0  0  0  0  0  0  0
    0.7190   -0.0331    1.4335 H   0  0  0  0  0  0  0  0  0  0  0  0
    1.4512   -1.0442   -0.3298 C   0  0  0  0  0  0  0  0  0  0  0  0
    1.1450   -1.2312   -1.3639 H   0  0  0  0  0  0  0  0  0  0  0  0
    2.4283   -0.5524   -0.3317 H   0  0  0  0  0  0  0  0  0  0  0  0
    1.5791   -2.0072    0.1706 H   0  0  0  0  0  0  0  0  0  0  0  0
    0.3118    1.2290   -0.2658 C   0  0  0  0  0  0  0  0  0  0  0  0
   -0.6815    1.9168   -0.0590 O   0  0  0  0  0  0  0  0  0  0  0  0
    1.2467    1.6881   -1.1787 N   0  0  0  0  0  0  0  0  0  0  0  0
    2.0334    1.0812   -1.3885 H   0  0  0  0  0  0  0  0  0  0  0  0
    1.1341    2.9637   -1.8763 C   0  0  0  0  0  0  0  0  0  0  0  0
    1.0950    3.7907   -1.1594 H   0  0  0  0  0  0  0  0  0  0  0  0
    1.9987    3.1147   -2.5298 H   0  0  0  0  0  0  0  0  0  0  0  0
    0.2280    2.9863   -2.4908 H   0  0  0  0  0  0  0  0  0  0  0  0
  1  2  1  0  0  0  0
  2  3  1  0  0  0  0
  2  4  1  0  0  0  0
  2  5  1  0  0  0  0
  5  6  2  0  0  0  0
  5  7  1  0  0  0  0
  7  8  1  0  0  0  0
  7  9  1  0  0  0  0
  9 10  1  0  0  0  0
  9 11  1  0  0  0  0
  9 15  1  0  0  0  0
 11 12  1  0  0  0  0
 11 13  1  0  0  0  0
 11 14  1  0  0  0  0
 15 16  2  0  0  0  0
 15 17  1  0  0  0  0
 17 18  1  0  0  0  0
 17 19  1  0  0  0  0
 19 20  1  0  0  0  0
 19 21  1  0  0  0  0
 19 22  1  0  0  0  0
M  END
$$$$

  -OEChem-11182114133D

 22 21  0     1  0  0  0  0  0999 V2000
   -2.8070   -3.5062    1.2225 H   0  0  0  0  0  0  0  0  0  0  0  0
   -2.7068   -2.5097    0.7832 C   0  0  0  0  0  0  0  0  0  0  0  0
   -3.3373   -1.8137    1.3418 H   0  0  0  0  0  0  0  0  0  0  0  0
   -3.0463   -2.5467   -0.2546 H   0  0  0  0  0  0  0  0  0  0  0  0
   -1.2602   -2.0561    0.8397 C   0  0  0  0  0  0  0  0  0  0  0  0
   -0.4259   -2.7757    1.3626 O   0  0  0  0  0  0  0  0  0  0  0  0
   -0.9264   -0.8107    0.3458 N   0  0  0  0  0  0  0  0  0  0  0  0
   -1.7047   -0.2126    0.0729 H   0  0  0  0  0  0  0  0  0  0  0  0
    0.4013   -0.1729    0.3805 C   0  0  1  0  0  0  0  0  0  0  0  0
    0.7040   -0.0240    1.4223 H   0  0  0  0  0  0  0  0  0  0  0  0
    1.4645   -1.0429   -0.3210 C   0  0  0  0  0  0  0  0  0  0  0  0
    1.1485   -1.2915   -1.3390 H   0  0  0  0  0  0  0  0  0  0  0  0
    2.4231   -0.5168   -0.3643 H   0  0  0  0  0  0  0  0  0  0  0  0
    1.6334   -1.9749    0.2243 H   0  0  0  0  0  0  0  0  0  0  0  0
    0.3060    1.2223   -0.2857 C   0  0  0  0  0  0  0  0  0  0  0  0
   -0.5616    1.9979    0.0959 O   0  0  0  0  0  0  0  0  0  0  0  0
    1.0509    1.5694   -1.4004 N   0  0  0  0  0  0  0  0  0  0  0  0
    1.7140    0.8846   -1.7508 H   0  0  0  0  0  0  0  0  0  0  0  0
    0.9051    2.8372   -2.1059 C   0  0  0  0  0  0  0  0  0  0  0  0
    1.1141    3.6759   -1.4334 H   0  0  0  0  0  0  0  0  0  0  0  0
    1.6054    2.8851   -2.9452 H   0  0  0  0  0  0  0  0  0  0  0  0
   -0.1119    2.9441   -2.4978 H   0  0  0  0  0  0  0  0  0  0  0  0
  1  2  1  0  0  0  0
  2  3  1  0  0  0  0
  2  4  1  0  0  0  0
  2  5  1  0  0  0  0
  5  6  2  0  0  0  0
  5  7  1  0  0  0  0
  7  8  1  0  0  0  0
  7  9  1  0  0  0  0
  9 10  1  0  0  0  0
  9 11  1  0  0  0  0
  9 15  1  0  0  0  0
 11 12  1  0  0  0  0
 11 13  1  0  0  0  0
 11 14  1  0  0  0  0
 15 16  2  0  0  0  0
 15 17  1  0  0  0  0
 17 18  1  0  0  0  0
 17 19  1  0  0  0  0
 19 20  1  0  0  0  0
 19 21  1  0  0  0  0
 19 22  1  0  0  0  0
M  END
$$$$

  -OEChem-11182114133D

 22 21  0     1  0  0  0  0  0999 V2000
   -2.7908   -3.5180    1.2424 H   0  0  0  0  0  0  0  0  0  0  0  0
   -2.7029   -2.5221    0.7990 C   0  0  0  0  0  0  0  0  0  0  0  0
   -3.3319   -1.8293    1.3635 H   0  0  0  0  0  0  0  0  0  0  0  0
   -3.0548   -2.5646   -0.2344 H   0  0  0  0  0  0  0  0  0  0  0  0
   -1.2586   -2.0588    0.8361 C   0  0  0  0  0  0  0  0  0  0  0  0
   -0.4129   -2.7744    1.3454 O   0  0  0  0  0  0  0  0  0  0  0  0
   -0.9385   -0.8125    0.3342 N   0  0  0  0  0  0  0  0  0  0  0  0
   -1.7252   -0.2219    0.0720 H   0  0  0  0  0  0  0  0  0  0  0  0
    0.3857   -0.1668    0.3684 C   0  0  1  0  0  0  0  0  0  0  0  0
    0.6851   -0.0112    1.4104 H   0  0  0  0  0  0  0  0  0  0  0  0
    1.4580   -1.0300   -0.3260 C   0  0  0  0  0  0  0  0  0  0  0  0
    1.1276   -1.3267   -1.3263 H   0  0  0  0  0  0  0  0  0  0  0  0
    2.3976   -0.4755   -0.4119 H   0  0  0  0  0  0  0  0  0  0  0  0
    1.6665   -1.9352    0.2503 H   0  0  0  0  0  0  0  0  0  0  0  0
    0.2910    1.2237   -0.3030 C   0  0  0  0  0  0  0  0  0  0  0  0
   -0.3895    2.0906    0.2286 O   0  0  0  0  0  0  0  0  0  0  0  0
    0.7950    1.4674   -1.5694 N   0  0  0  0  0  0  0  0  0  0  0  0
    1.2965    0.7109   -2.0254 H   0  0  0  0  0  0  0  0  0  0  0  0
    0.6345    2.7351   -2.2718 C   0  0  0  0  0  0  0  0  0  0  0  0
    1.0840    3.5512   -1.6964 H   0  0  0  0  0  0  0  0  0  0  0  0
    1.1252    2.6907   -3.2488 H   0  0  0  0  0  0  0  0  0  0  0  0
   -0.4266    2.9562   -2.4278 H   0  0  0  0  0  0  0  0  0  0  0  0
  1  2  1  0  0  0  0
  2  3  1  0  0  0  0
  2  4  1  0  0  0  0
  2  5  1  0  0  0  0
  5  6  2  0  0  0  0
  5  7  1  0  0  0  0
  7  8  1  0  0  0  0
  7  9  1  0  0  0  0
  9 10  1  0  0  0  0
  9 11  1  0  0  0  0
  9 15  1  0  0  0  0
 11 12  1  0  0  0  0
 11 13  1  0  0  0  0
 11 14  1  0  0  0  0
 15 16  2  0  0  0  0
 15 17  1  0  0  0  0
 17 18  1  0  0  0  0
 17 19  1  0  0  0  0
 19 20  1  0  0  0  0
 19 21  1  0  0  0  0
 19 22  1  0  0  0  0
M  END
$$$$

  -OEChem-11182114133D

 22 21  0     1  0  0  0  0  0999 V2000
   -2.7681   -3.5396    1.2600 H   0  0  0  0  0  0  0  0  0  0  0  0
   -2.6955   -2.5437    0.8133 C   0  0  0  0  0  0  0  0  0  0  0  0
   -3.3301   -1.8576    1.3797 H   0  0  0  0  0  0  0  0  0  0  0  0
   -3.0525   -2.5940   -0.2181 H   0  0  0  0  0  0  0  0  0  0  0  0
   -1.2570   -2.0617    0.8415 C   0  0  0  0  0  0  0  0  0  0  0  0
   -0.3988   -2.7673    1.3433 O   0  0  0  0  0  0  0  0  0  0  0  0
   -0.9544   -0.8134    0.3328 N   0  0  0  0  0  0  0  0  0  0  0  0
   -1.7493   -0.2366    0.0677 H   0  0  0  0  0  0  0  0  0  0  0  0
    0.3656   -0.1575    0.3619 C   0  0  1  0  0  0  0  0  0  0  0  0
    0.6691   -0.0006    1.4028 H   0  0  0  0  0  0  0  0  0  0  0  0
    1.4413   -1.0093   -0.3398 C   0  0  0  0  0  0  0  0  0  0  0  0
    1.0949   -1.3397   -1.3237 H   0  0  0  0  0  0  0  0  0  0  0  0
    2.3629   -0.4321   -0.4647 H   0  0  0  0  0  0  0  0  0  0  0  0
    1.6864   -1.8943    0.2538 H   0  0  0  0  0  0  0  0  0  0  0  0
    0.2701    1.2300   -0.3109 C   0  0  0  0  0  0  0  0  0  0  0  0
   -0.1605    2.1783    0.3297 O   0  0  0  0  0  0  0  0  0  0  0  0
    0.4911    1.3926   -1.6677 N   0  0  0  0  0  0  0  0  0  0  0  0
    0.7977    0.5775   -2.1904 H   0  0  0  0  0  0  0  0  0  0  0  0
    0.3304    2.6632   -2.3646 C   0  0  0  0  0  0  0  0  0  0  0  0
    0.9972    3.4205   -1.9389 H   0  0  0  0  0  0  0  0  0  0  0  0
    0.5732    2.5461   -3.4251 H   0  0  0  0  0  0  0  0  0  0  0  0
   -0.7026    3.0176   -2.2835 H   0  0  0  0  0  0  0  0  0  0  0  0
  1  2  1  0  0  0  0
  2  3  1  0  0  0  0
  2  4  1  0  0  0  0
  2  5  1  0  0  0  0
  5  6  2  0  0  0  0
  5  7  1  0  0  0  0
  7  8  1  0  0  0  0
  7  9  1  0  0  0  0
  9 10  1  0  0  0  0
  9 11  1  0  0  0  0
  9 15  1  0  0  0  0
 11 12  1  0  0  0  0
 11 13  1  0  0  0  0
 11 14  1  0  0  0  0
 15 16  2  0  0  0  0
 15 17  1  0  0  0  0
 17 18  1  0  0  0  0
 17 19  1  0  0  0  0
 19 20  1  0  0  0  0
 19 21  1  0  0  0  0
 19 22  1  0  0  0  0
M  END
$$$$

  -OEChem-11182114133D

 22 21  0     1  0  0  0  0  0999 V2000
   -2.7456   -3.5644    1.2697 H   0  0  0  0  0  0  0  0  0  0  0  0
   -2.6864   -2.5677    0.8231 C   0  0  0  0  0  0  0  0  0  0  0  0
   -3.3342   -1.8916    1.3864 H   0  0  0  0  0  0  0  0  0  0  0  0
   -3.0386   -2.6242   -0.2096 H   0  0  0  0  0  0  0  0  0  0  0  0
   -1.2554   -2.0636    0.8567 C   0  0  0  0  0  0  0  0  0  0  0  0
   -0.3875   -2.7559    1.3601 O   0  0  0  0  0  0  0  0  0  0  0  0
   -0.9686   -0.8133    0.3436 N   0  0  0  0  0  0  0  0  0  0  0  0
   -1.7698   -0.2514    0.0673 H   0  0  0  0  0  0  0  0  0  0  0  0
    0.3473   -0.1476    0.3637 C   0  0  1  0  0  0  0  0  0  0  0  0
    0.6621    0.0048    1.4020 H   0  0  0  0  0  0  0  0  0  0  0  0
    1.4195   -0.9834   -0.3595 C   0  0  0  0  0  0  0  0  0  0  0  0
    1.0637   -1.3087   -1.3417 H   0  0  0  0  0  0  0  0  0  0  0  0
    2.3330   -0.3952   -0.4933 H   0  0  0  0  0  0  0  0  0  0  0  0
    1.6811   -1.8707    0.2235 H   0  0  0  0  0  0  0  0  0  0  0  0
    0.2463    1.2381   -0.3078 C   0  0  0  0  0  0  0  0  0  0  0  0
    0.1144    2.2414    0.3778 O   0  0  0  0  0  0  0  0  0  0  0  0
    0.1557    1.3509   -1.6841 N   0  0  0  0  0  0  0  0  0  0  0  0
    0.2545    0.4986   -2.2279 H   0  0  0  0  0  0  0  0  0  0  0  0
    0.0062    2.6239   -2.3788 C   0  0  0  0  0  0  0  0  0  0  0  0
    0.8466    3.2873   -2.1484 H   0  0  0  0  0  0  0  0  0  0  0  0
   -0.0203    2.4633   -3.4610 H   0  0  0  0  0  0  0  0  0  0  0  0
   -0.9246    3.1174   -2.0797 H   0  0  0  0  0  0  0  0  0  0  0  0
  1  2  1  0  0  0  0
  2  3  1  0  0  0  0
  2  4  1  0  0  0  0
  2  5  1  0  0  0  0
  5  6  2  0  0  0  0
  5  7  1  0  0  0  0
  7  8  1  0  0  0  0
  7  9  1  0  0  0  0
  9 10  1  0  0  0  0
  9 11  1  0  0  0  0
  9 15  1  0  0  0  0
 11 12  1  0  0  0  0
 11 13  1  0  0  0  0
 11 14  1  0  0  0  0
 15 16  2  0  0  0  0
 15 17  1  0  0  0  0
 17 18  1  0  0  0  0
 17 19  1  0  0  0  0
 19 20  1  0  0  0  0
 19 21  1  0  0  0  0
 19 22  1  0  0  0  0
M  END
$$$$

  -OEChem-11182114133D

 22 21  0     1  0  0  0  0  0999 V2000
   -2.7196   -3.5993    1.2888 H   0  0  0  0  0  0  0  0  0  0  0  0
   -2.6783   -2.6016    0.8422 C   0  0  0  0  0  0  0  0  0  0  0  0
   -3.3297   -1.9347    1.4123 H   0  0  0  0  0  0  0  0  0  0  0  0
   -3.0394   -2.6628   -0.1872 H   0  0  0  0  0  0  0  0  0  0  0  0
   -1.2542   -2.0778    0.8632 C   0  0  0  0  0  0  0  0  0  0  0  0
   -0.3735   -2.7564    1.3620 O   0  0  0  0  0  0  0  0  0  0  0  0
   -0.9892   -0.8221    0.3509 N   0  0  0  0  0  0  0  0  0  0  0  0
   -1.8001   -0.2740    0.0760 H   0  0  0  0  0  0  0  0  0  0  0  0
    0.3191   -0.1390    0.3682 C   0  0  1  0  0  0  0  0  0  0  0  0
    0.6391    0.0059    1.4063 H   0  0  0  0  0  0  0  0  0  0  0  0
    1.3960   -0.9467   -0.3780 C   0  0  0  0  0  0  0  0  0  0  0  0
    1.0488   -1.2294   -1.3763 H   0  0  0  0  0  0  0  0  0  0  0  0
    2.3099   -0.3528   -0.4810 H   0  0  0  0  0  0  0  0  0  0  0  0
    1.6538   -1.8572    0.1696 H   0  0  0  0  0  0  0  0  0  0  0  0
    0.2095    1.2478   -0.2970 C   0  0  0  0  0  0  0  0  0  0  0  0
    0.3982    2.2641    0.3550 O   0  0  0  0  0  0  0  0  0  0  0  0
   -0.1893    1.3552   -1.6177 N   0  0  0  0  0  0  0  0  0  0  0  0
   -0.2840    0.4909   -2.1432 H   0  0  0  0  0  0  0  0  0  0  0  0
   -0.3019    2.6284   -2.3189 C   0  0  0  0  0  0  0  0  0  0  0  0
    0.6627    3.1467   -2.3301 H   0  0  0  0  0  0  0  0  0  0  0  0
   -0.6184    2.4641   -3.3533 H   0  0  0  0  0  0  0  0  0  0  0  0
   -1.0413    3.2711   -1.8296 H   0  0  0  0  0  0  0  0  0  0  0  0
  1  2  1  0  0  0  0
  2  3  1  0  0  0  0
  2  4  1  0  0  0  0
  2  5  1  0  0  0  0
  5  6  2  0  0  0  0
  5  7  1  0  0  0  0
  7  8  1  0  0  0  0
  7  9  1  0  0  0  0
  9 10  1  0  0  0  0
  9 11  1  0  0  0  0
  9 15  1  0  0  0  0
 11 12  1  0  0  0  0
 11 13  1  0  0  0  0
 11 14  1  0  0  0  0
 15 16  2  0  0  0  0
 15 17  1  0  0  0  0
 17 18  1  0  0  0  0
 17 19  1  0  0  0  0
 19 20  1  0  0  0  0
 19 21  1  0  0  0  0
 19 22  1  0  0  0  0
M  END
$$$$

  -OEChem-11182114133D

 22 21  0     1  0  0  0  0  0999 V2000
   -2.6988   -3.6255    1.3008 H   0  0  0  0  0  0  0  0  0  0  0  0
   -2.6701   -2.6277    0.8538 C   0  0  0  0  0  0  0  0  0  0  0  0
   -3.3257   -1.9676    1.4267 H   0  0  0  0  0  0  0  0  0  0  0  0
   -3.0354   -2.6926   -0.1738 H   0  0  0  0  0  0  0  0  0  0  0  0
   -1.2514   -2.0900    0.8683 C   0  0  0  0  0  0  0  0  0  0  0  0
   -0.3620   -2.7598    1.3629 O   0  0  0  0  0  0  0  0  0  0  0  0
   -1.0024   -0.8289    0.3605 N   0  0  0  0  0  0  0  0  0  0  0  0
   -1.8215   -0.2837    0.1058 H   0  0  0  0  0  0  0  0  0  0  0  0
    0.3004   -0.1332    0.3773 C   0  0  1  0  0  0  0  0  0  0  0  0
    0.6280    0.0017    1.4141 H   0  0  0  0  0  0  0  0  0  0  0  0
    1.3728   -0.9226   -0.3928 C   0  0  0  0  0  0  0  0  0  0  0  0
    1.0217   -1.1735   -1.3982 H   0  0  0  0  0  0  0  0  0  0  0  0
    2.2880   -0.3282   -0.4810 H   0  0  0  0  0  0  0  0  0  0  0  0
    1.6294   -1.8495    0.1269 H   0  0  0  0  0  0  0  0  0  0  0  0
    0.1869    1.2575   -0.2785 C   0  0  0  0  0  0  0  0  0  0  0  0
    0.6508    2.2443    0.2731 O   0  0  0  0  0  0  0  0  0  0  0  0
   -0.4963    1.4043   -1.4731 N   0  0  0  0  0  0  0  0  0  0  0  0
   -0.7504    0.5503   -1.9608 H   0  0  0  0  0  0  0  0  0  0  0  0
   -0.5950    2.6755   -2.1800 C   0  0  0  0  0  0  0  0  0  0  0  0
    0.4016    3.0508   -2.4354 H   0  0  0  0  0  0  0  0  0  0  0  0
   -1.1661    2.5507   -3.1050 H   0  0  0  0  0  0  0  0  0  0  0  0
   -1.1032    3.4209   -1.5591 H   0  0  0  0  0  0  0  0  0  0  0  0
  1  2  1  0  0  0  0
  2  3  1  0  0  0  0
  2  4  1  0  0  0  0
  2  5  1  0  0  0  0
  5  6  2  0  0  0  0
  5  7  1  0  0  0  0
  7  8  1  0  0  0  0
  7  9  1  0  0  0  0
  9 10  1  0  0  0  0
  9 11  1  0  0  0  0
  9 15  1  0  0  0  0
 11 12  1  0  0  0  0
 11 13  1  0  0  0  0
 11 14  1  0  0  0  0
 15 16  2  0  0  0  0
 15 17  1  0  0  0  0
 17 18  1  0  0  0  0
 17 19  1  0  0  0  0
 19 20  1  0  0  0  0
 19 21  1  0  0  0  0
 19 22  1  0  0  0  0
M  END
$$$$

  -OEChem-11182114133D

 22 21  0     1  0  0  0  0  0999 V2000
   -2.6770   -3.6587    1.3060 H   0  0  0  0  0  0  0  0  0  0  0  0
   -2.6620   -2.6572    0.8660 C   0  0  0  0  0  0  0  0  0  0  0  0
   -3.3174   -2.0073    1.4510 H   0  0  0  0  0  0  0  0  0  0  0  0
   -3.0376   -2.7183   -0.1582 H   0  0  0  0  0  0  0  0  0  0  0  0
   -1.2478   -2.1073    0.8685 C   0  0  0  0  0  0  0  0  0  0  0  0
   -0.3497   -2.7706    1.3557 O   0  0  0  0  0  0  0  0  0  0  0  0
   -1.0157   -0.8413    0.3639 N   0  0  0  0  0  0  0  0  0  0  0  0
   -1.8461   -0.2944    0.1548 H   0  0  0  0  0  0  0  0  0  0  0  0
    0.2808   -0.1307    0.3834 C   0  0  1  0  0  0  0  0  0  0  0  0
    0.6087   -0.0007    1.4208 H   0  0  0  0  0  0  0  0  0  0  0  0
    1.3566   -0.9069   -0.3959 C   0  0  0  0  0  0  0  0  0  0  0  0
    1.0092   -1.1377   -1.4074 H   0  0  0  0  0  0  0  0  0  0  0  0
    2.2726   -0.3116   -0.4698 H   0  0  0  0  0  0  0  0  0  0  0  0
    1.6125   -1.8433    0.1064 H   0  0  0  0  0  0  0  0  0  0  0  0
    0.1712    1.2652   -0.2651 C   0  0  0  0  0  0  0  0  0  0  0  0
    0.8601    2.1899    0.1403 O   0  0  0  0  0  0  0  0  0  0  0  0
   -0.7447    1.4958   -1.2780 N   0  0  0  0  0  0  0  0  0  0  0  0
   -1.1528    0.6734   -1.7115 H   0  0  0  0  0  0  0  0  0  0  0  0
   -0.8412    2.7725   -1.9763 C   0  0  0  0  0  0  0  0  0  0  0  0
    0.1026    3.0064   -2.4803 H   0  0  0  0  0  0  0  0  0  0  0  0
   -1.6360    2.7340   -2.7274 H   0  0  0  0  0  0  0  0  0  0  0  0
   -1.0729    3.5786   -1.2720 H   0  0  0  0  0  0  0  0  0  0  0  0
  1  2  1  0  0  0  0
  2  3  1  0  0  0  0
  2  4  1  0  0  0  0
  2  5  1  0  0  0  0
  5  6  2  0  0  0  0
  5  7  1  0  0  0  0
  7  8  1  0  0  0  0
  7  9  1  0  0  0  0
  9 10  1  0  0  0  0
  9 11  1  0  0  0  0
  9 15  1  0  0  0  0
 11 12  1  0  0  0  0
 11 13  1  0  0  0  0
 11 14  1  0  0  0  0
 15 16  2  0  0  0  0
 15 17  1  0  0  0  0
 17 18  1  0  0  0  0
 17 19  1  0  0  0  0
 19 20  1  0  0  0  0
 19 21  1  0  0  0  0
 19 22  1  0  0  0  0
M  END
$$$$

  -OEChem-11182114133D

 22 21  0     1  0  0  0  0  0999 V2000
   -2.6637   -3.6751    1.3220 H   0  0  0  0  0  0  0  0  0  0  0  0
   -2.6541   -2.6766    0.8755 C   0  0  0  0  0  0  0  0  0  0  0  0
   -3.3083   -2.0251    1.4598 H   0  0  0  0  0  0  0  0  0  0  0  0
   -3.0353   -2.7461   -0.1460 H   0  0  0  0  0  0  0  0  0  0  0  0
   -1.2414   -2.1224    0.8664 C   0  0  0  0  0  0  0  0  0  0  0  0
   -0.3393   -2.7826    1.3499 O   0  0  0  0  0  0  0  0  0  0  0  0
   -1.0199   -0.8535    0.3632 N   0  0  0  0  0  0  0  0  0  0  0  0
   -1.8574   -0.3064    0.1905 H   0  0  0  0  0  0  0  0  0  0  0  0
    0.2722   -0.1320    0.3843 C   0  0  1  0  0  0  0  0  0  0  0  0
    0.6006   -0.0045    1.4215 H   0  0  0  0  0  0  0  0  0  0  0  0
    1.3478   -0.9070   -0.3987 C   0  0  0  0  0  0  0  0  0  0  0  0
    0.9973   -1.1339   -1.4101 H   0  0  0  0  0  0  0  0  0  0  0  0
    2.2647   -0.3132   -0.4743 H   0  0  0  0  0  0  0  0  0  0  0  0
    1.6057   -1.8446    0.1002 H   0  0  0  0  0  0  0  0  0  0  0  0
    0.1693    1.2691   -0.2602 C   0  0  0  0  0  0  0  0  0  0  0  0
    1.0172    2.1173   -0.0222 O   0  0  0  0  0  0  0  0  0  0  0  0
   -0.9196    1.6112   -1.0459 N   0  0  0  0  0  0  0  0  0  0  0  0
   -1.4745    0.8409   -1.4031 H   0  0  0  0  0  0  0  0  0  0  0  0
   -1.0318    2.9065   -1.7070 C   0  0  0  0  0  0  0  0  0  0  0  0
   -0.1967    3.0585   -2.3990 H   0  0  0  0  0  0  0  0  0  0  0  0
   -1.9664    2.9626   -2.2733 H   0  0  0  0  0  0  0  0  0  0  0  0
   -1.0286    3.7153   -0.9684 H   0  0  0  0  0  0  0  0  0  0  0  0
  1  2  1  0  0  0  0
  2  3  1  0  0  0  0
  2  4  1  0  0  0  0
  2  5  1  0  0  0  0
  5  6  2  0  0  0  0
  5  7  1  0  0  0  0
  7  8  1  0  0  0  0
  7  9  1  0  0  0  0
  9 10  1  0  0  0  0
  9 11  1  0  0  0  0
  9 15  1  0  0  0  0
 11 12  1  0  0  0  0
 11 13  1  0  0  0  0
 11 14  1  0  0  0  0
 15 16  2  0  0  0  0
 15 17  1  0  0  0  0
 17 18  1  0  0  0  0
 17 19  1  0  0  0  0
 19 20  1  0  0  0  0
 19 21  1  0  0  0  0
 19 22  1  0  0  0  0
M  END
$$$$

  -OEChem-11182114133D

 22 21  0     1  0  0  0  0  0999 V2000
   -2.5137   -3.7280    1.3188 H   0  0  0  0  0  0  0  0  0  0  0  0
   -2.5241   -2.7790    0.7748 C   0  0  0  0  0  0  0  0  0  0  0  0
   -3.4011   -2.2062    1.0856 H   0  0  0  0  0  0  0  0  0  0  0  0
   -2.5928   -2.9895   -0.2952 H   0  0  0  0  0  0  0  0  0  0  0  0
   -1.2592   -1.9946    1.0702 C   0  0  0  0  0  0  0  0  0  0  0  0
   -0.4379   -2.4442    1.8506 O   0  0  0  0  0  0  0  0  0  0  0  0
   -1.0723   -0.7546    0.4883 N   0  0  0  0  0  0  0  0  0  0  0  0
   -1.7373   -0.5467   -0.2492 H   0  0  0  0  0  0  0  0  0  0  0  0
    0.2513   -0.1008    0.3834 C   0  0  1  0  0  0  0  0  0  0  0  0
    0.6552    0.0517    1.3903 H   0  0  0  0  0  0  0  0  0  0  0  0
    1.2143   -1.0001   -0.4173 C   0  0  0  0  0  0  0  0  0  0  0  0
    0.8235   -1.1796   -1.4234 H   0  0  0  0  0  0  0  0  0  0  0  0
    2.1961   -0.5241   -0.5072 H   0  0  0  0  0  0  0  0  0  0  0  0
    1.3622   -1.9642    0.0767 H   0  0  0  0  0  0  0  0  0  0  0  0
    0.1852    1.2858   -0.3049 C   0  0  0  0  0  0  0  0  0  0  0  0
    1.2087    1.9127   -0.5423 O   0  0  0  0  0  0  0  0  0  0  0  0
   -1.0214    1.8020   -0.7501 N   0  0  0  0  0  0  0  0  0  0  0  0
   -1.8591    1.3937   -0.3511 H   0  0  0  0  0  0  0  0  0  0  0  0
   -1.1286    3.1135   -1.3803 C   0  0  0  0  0  0  0  0  0  0  0  0
   -0.5143    3.1553   -2.2861 H   0  0  0  0  0  0  0  0  0  0  0  0
   -2.1668    3.3149   -1.6609 H   0  0  0  0  0  0  0  0  0  0  0  0
   -0.7952    3.8985   -0.6933 H   0  0  0  0  0  0  0  0  0  0  0  0
  1  2  1  0  0  0  0
  2  3  1  0  0  0  0
  2  4  1  0  0  0  0
  2  5  1  0  0  0  0
  5  6  2  0  0  0  0
  5  7  1  0  0  0  0
  7  8  1  0  0  0  0
  7  9  1  0  0  0  0
  9 10  1  0  0  0  0
  9 11  1  0  0  0  0
  9 15  1  0  0  0  0
 11 12  1  0  0  0  0
 11 13  1  0  0  0  0
 11 14  1  0  0  0  0
 15 16  2  0  0  0  0
 15 17  1  0  0  0  0
 17 18  1  0  0  0  0
 17 19  1  0  0  0  0
 19 20  1  0  0  0  0
 19 21  1  0  0  0  0
 19 22  1  0  0  0  0
M  END
$$$$

  -OEChem-11182114133D

 22 21  0     1  0  0  0  0  0999 V2000
   -2.5381   -3.7069    1.2835 H   0  0  0  0  0  0  0  0  0  0  0  0
   -2.5374   -2.7507    0.7522 C   0  0  0  0  0  0  0  0  0  0  0  0
   -3.4029   -2.1679    1.0763 H   0  0  0  0  0  0  0  0  0  0  0  0
   -2.6163   -2.9453   -0.3201 H   0  0  0  0  0  0  0  0  0  0  0  0
   -1.2587   -1.9902    1.0492 C   0  0  0  0  0  0  0  0  0  0  0  0
   -0.4443   -2.4549    1.8281 O   0  0  0  0  0  0  0  0  0  0  0  0
   -1.0549   -0.7487    0.4773 N   0  0  0  0  0  0  0  0  0  0  0  0
   -1.7226   -0.5141   -0.2514 H   0  0  0  0  0  0  0  0  0  0  0  0
    0.2723   -0.1030    0.3787 C   0  0  1  0  0  0  0  0  0  0  0  0
    0.6728    0.0494    1.3867 H   0  0  0  0  0  0  0  0  0  0  0  0
    1.2382   -1.0070   -0.4145 C   0  0  0  0  0  0  0  0  0  0  0  0
    0.8598   -1.1761   -1.4273 H   0  0  0  0  0  0  0  0  0  0  0  0
    2.2258   -0.5402   -0.4870 H   0  0  0  0  0  0  0  0  0  0  0  0
    1.3699   -1.9756    0.0751 H   0  0  0  0  0  0  0  0  0  0  0  0
    0.1861    1.2856   -0.3049 C   0  0  0  0  0  0  0  0  0  0  0  0
    1.1768    1.8291   -0.7744 O   0  0  0  0  0  0  0  0  0  0  0  0
   -1.0416    1.9103   -0.4526 N   0  0  0  0  0  0  0  0  0  0  0  0
   -1.7987    1.5478    0.1185 H   0  0  0  0  0  0  0  0  0  0  0  0
   -1.1856    3.2417   -1.0312 C   0  0  0  0  0  0  0  0  0  0  0  0
   -0.7967    3.2593   -2.0550 H   0  0  0  0  0  0  0  0  0  0  0  0
   -2.2409    3.5296   -1.0601 H   0  0  0  0  0  0  0  0  0  0  0  0
   -0.6397    3.9804   -0.4349 H   0  0  0  0  0  0  0  0  0  0  0  0
  1  2  1  0  0  0  0
  2  3  1  0  0  0  0
  2  4  1  0  0  0  0
  2  5  1  0  0  0  0
  5  6  2  0  0  0  0
  5  7  1  0  0  0  0
  7  8  1  0  0  0  0
  7  9  1  0  0  0  0
  9 10  1  0  0  0  0
  9 11  1  0  0  0  0
  9 15  1  0  0  0  0
 11 12  1  0  0  0  0
 11 13  1  0  0  0  0
 11 14  1  0  0  0  0
 15 16  2  0  0  0  0
 15 17  1  0  0  0  0
 17 18  1  0  0  0  0
 17 19  1  0  0  0  0
 19 20  1  0  0  0  0
 19 21  1  0  0  0  0
 19 22  1  0  0  0  0
M  END
$$$$

  -OEChem-11182114133D

 22 21  0     1  0  0  0  0  0999 V2000
   -2.5564   -3.6923    1.2506 H   0  0  0  0  0  0  0  0  0  0  0  0
   -2.5524   -2.7255    0.7390 C   0  0  0  0  0  0  0  0  0  0  0  0
   -3.4056   -2.1392    1.0883 H   0  0  0  0  0  0  0  0  0  0  0  0
   -2.6504   -2.8972   -0.3356 H   0  0  0  0  0  0  0  0  0  0  0  0
   -1.2600   -1.9868    1.0316 C   0  0  0  0  0  0  0  0  0  0  0  0
   -0.4475   -2.4687    1.8021 O   0  0  0  0  0  0  0  0  0  0  0  0
   -1.0420   -0.7431    0.4703 N   0  0  0  0  0  0  0  0  0  0  0  0
   -1.7226   -0.4732   -0.2348 H   0  0  0  0  0  0  0  0  0  0  0  0
    0.2876   -0.1036    0.3768 C   0  0  1  0  0  0  0  0  0  0  0  0
    0.6861    0.0469    1.3857 H   0  0  0  0  0  0  0  0  0  0  0  0
    1.2570   -1.0096   -0.4102 C   0  0  0  0  0  0  0  0  0  0  0  0
    0.8813   -1.1836   -1.4232 H   0  0  0  0  0  0  0  0  0  0  0  0
    2.2438   -0.5411   -0.4817 H   0  0  0  0  0  0  0  0  0  0  0  0
    1.3886   -1.9759    0.0837 H   0  0  0  0  0  0  0  0  0  0  0  0
    0.1864    1.2875   -0.2995 C   0  0  0  0  0  0  0  0  0  0  0  0
    1.0850    1.7413   -0.9953 O   0  0  0  0  0  0  0  0  0  0  0  0
   -0.9754    2.0273   -0.1580 N   0  0  0  0  0  0  0  0  0  0  0  0
   -1.6353    1.7021    0.5427 H   0  0  0  0  0  0  0  0  0  0  0  0
   -1.1343    3.3721   -0.7006 C   0  0  0  0  0  0  0  0  0  0  0  0
   -0.9925    3.3669   -1.7866 H   0  0  0  0  0  0  0  0  0  0  0  0
   -2.1387    3.7505   -0.4876 H   0  0  0  0  0  0  0  0  0  0  0  0
   -0.4040    4.0547   -0.2535 H   0  0  0  0  0  0  0  0  0  0  0  0
  1  2  1  0  0  0  0
  2  3  1  0  0  0  0
  2  4  1  0  0  0  0
  2  5  1  0  0  0  0
  5  6  2  0  0  0  0
  5  7  1  0  0  0  0
  7  8  1  0  0  0  0
  7  9  1  0  0  0  0
  9 10  1  0  0  0  0
  9 11  1  0  0  0  0
  9 15  1  0  0  0  0
 11 12  1  0  0  0  0
 11 13  1  0  0  0  0
 11 14  1  0  0  0  0
 15 16  2  0  0  0  0
 15 17  1  0  0  0  0
 17 18  1  0  0  0  0
 17 19  1  0  0  0  0
 19 20  1  0  0  0  0
 19 21  1  0  0  0  0
 19 22  1  0  0  0  0
M  END
$$$$

  -OEChem-11182114133D

 22 21  0     1  0  0  0  0  0999 V2000
   -2.5893   -3.6637    1.2417 H   0  0  0  0  0  0  0  0  0  0  0  0
   -2.5688   -2.6985    0.7275 C   0  0  0  0  0  0  0  0  0  0  0  0
   -3.4089   -2.0948    1.0790 H   0  0  0  0  0  0  0  0  0  0  0  0
   -2.6752   -2.8710   -0.3462 H   0  0  0  0  0  0  0  0  0  0  0  0
   -1.2611   -1.9840    1.0121 C   0  0  0  0  0  0  0  0  0  0  0  0
   -0.4488   -2.4853    1.7706 O   0  0  0  0  0  0  0  0  0  0  0  0
   -1.0299   -0.7371    0.4642 N   0  0  0  0  0  0  0  0  0  0  0  0
   -1.7181   -0.4379   -0.2218 H   0  0  0  0  0  0  0  0  0  0  0  0
    0.3021   -0.1046    0.3795 C   0  0  1  0  0  0  0  0  0  0  0  0
    0.6980    0.0401    1.3902 H   0  0  0  0  0  0  0  0  0  0  0  0
    1.2749   -1.0080   -0.4055 C   0  0  0  0  0  0  0  0  0  0  0  0
    0.8923   -1.1994   -1.4128 H   0  0  0  0  0  0  0  0  0  0  0  0
    2.2544   -0.5269   -0.4920 H   0  0  0  0  0  0  0  0  0  0  0  0
    1.4223   -1.9662    0.0996 H   0  0  0  0  0  0  0  0  0  0  0  0
    0.1921    1.2903   -0.2854 C   0  0  0  0  0  0  0  0  0  0  0  0
    0.9385    1.6552   -1.1842 O   0  0  0  0  0  0  0  0  0  0  0  0
   -0.8229    2.1404    0.1165 N   0  0  0  0  0  0  0  0  0  0  0  0
   -1.3723    1.8492    0.9203 H   0  0  0  0  0  0  0  0  0  0  0  0
   -0.9914    3.4922   -0.4039 C   0  0  0  0  0  0  0  0  0  0  0  0
   -1.1386    3.4697   -1.4888 H   0  0  0  0  0  0  0  0  0  0  0  0
   -1.8652    3.9672    0.0522 H   0  0  0  0  0  0  0  0  0  0  0  0
   -0.1095    4.1018   -0.1808 H   0  0  0  0  0  0  0  0  0  0  0  0
  1  2  1  0  0  0  0
  2  3  1  0  0  0  0
  2  4  1  0  0  0  0
  2  5  1  0  0  0  0
  5  6  2  0  0  0  0
  5  7  1  0  0  0  0
  7  8  1  0  0  0  0
  7  9  1  0  0  0  0
  9 10  1  0  0  0  0
  9 11  1  0  0  0  0
  9 15  1  0  0  0  0
 11 12  1  0  0  0  0
 11 13  1  0  0  0  0
 11 14  1  0  0  0  0
 15 16  2  0  0  0  0
 15 17  1  0  0  0  0
 17 18  1  0  0  0  0
 17 19  1  0  0  0  0
 19 20  1  0  0  0  0
 19 21  1  0  0  0  0
 19 22  1  0  0  0  0
M  END
$$$$

  -OEChem-11182114133D

 22 21  0     1  0  0  0  0  0999 V2000
   -2.5849   -3.6713    1.1836 H   0  0  0  0  0  0  0  0  0  0  0  0
   -2.5774   -2.6826    0.7156 C   0  0  0  0  0  0  0  0  0  0  0  0
   -3.4105   -2.0983    1.1136 H   0  0  0  0  0  0  0  0  0  0  0  0
   -2.7070   -2.8043   -0.3625 H   0  0  0  0  0  0  0  0  0  0  0  0
   -1.2650   -1.9786    1.0052 C   0  0  0  0  0  0  0  0  0  0  0  0
   -0.4549   -2.4920    1.7583 O   0  0  0  0  0  0  0  0  0  0  0  0
   -1.0250   -0.7291    0.4679 N   0  0  0  0  0  0  0  0  0  0  0  0
   -1.7152   -0.4112   -0.2078 H   0  0  0  0  0  0  0  0  0  0  0  0
    0.3096   -0.1052    0.3902 C   0  0  1  0  0  0  0  0  0  0  0  0
    0.7075    0.0295    1.4013 H   0  0  0  0  0  0  0  0  0  0  0  0
    1.2801   -1.0063   -0.3996 C   0  0  0  0  0  0  0  0  0  0  0  0
    0.8819   -1.2195   -1.3965 H   0  0  0  0  0  0  0  0  0  0  0  0
    2.2500   -0.5113   -0.5122 H   0  0  0  0  0  0  0  0  0  0  0  0
    1.4495   -1.9544    0.1180 H   0  0  0  0  0  0  0  0  0  0  0  0
    0.2009    1.2931   -0.2642 C   0  0  0  0  0  0  0  0  0  0  0  0
    0.7343    1.5669   -1.3315 O   0  0  0  0  0  0  0  0  0  0  0  0
   -0.5918    2.2491    0.3444 N   0  0  0  0  0  0  0  0  0  0  0  0
   -1.0080    2.0041    1.2386 H   0  0  0  0  0  0  0  0  0  0  0  0
   -0.7613    3.6028   -0.1701 C   0  0  0  0  0  0  0  0  0  0  0  0
   -1.1815    3.5800   -1.1812 H   0  0  0  0  0  0  0  0  0  0  0  0
   -1.4416    4.1691    0.4731 H   0  0  0  0  0  0  0  0  0  0  0  0
    0.2012    4.1244   -0.2002 H   0  0  0  0  0  0  0  0  0  0  0  0
  1  2  1  0  0  0  0
  2  3  1  0  0  0  0
  2  4  1  0  0  0  0
  2  5  1  0  0  0  0
  5  6  2  0  0  0  0
  5  7  1  0  0  0  0
  7  8  1  0  0  0  0
  7  9  1  0  0  0  0
  9 10  1  0  0  0  0
  9 11  1  0  0  0  0
  9 15  1  0  0  0  0
 11 12  1  0  0  0  0
 11 13  1  0  0  0  0
 11 14  1  0  0  0  0
 15 16  2  0  0  0  0
 15 17  1  0  0  0  0
 17 18  1  0  0  0  0
 17 19  1  0  0  0  0
 19 20  1  0  0  0  0
 19 21  1  0  0  0  0
 19 22  1  0  0  0  0
M  END
$$$$

  -OEChem-11182114133D

 22 21  0     1  0  0  0  0  0999 V2000
   -2.6002   -3.6620    1.1626 H   0  0  0  0  0  0  0  0  0  0  0  0
   -2.5862   -2.6689    0.7047 C   0  0  0  0  0  0  0  0  0  0  0  0
   -3.4138   -2.0822    1.1103 H   0  0  0  0  0  0  0  0  0  0  0  0
   -2.7181   -2.7780   -0.3745 H   0  0  0  0  0  0  0  0  0  0  0  0
   -1.2682   -1.9782    0.9989 C   0  0  0  0  0  0  0  0  0  0  0  0
   -0.4585   -2.5066    1.7425 O   0  0  0  0  0  0  0  0  0  0  0  0
   -1.0205   -0.7254    0.4741 N   0  0  0  0  0  0  0  0  0  0  0  0
   -1.7066   -0.3960   -0.2005 H   0  0  0  0  0  0  0  0  0  0  0  0
    0.3161   -0.1087    0.4053 C   0  0  1  0  0  0  0  0  0  0  0  0
    0.7154    0.0106    1.4178 H   0  0  0  0  0  0  0  0  0  0  0  0
    1.2832   -1.0008   -0.3976 C   0  0  0  0  0  0  0  0  0  0  0  0
    0.8715   -1.2222   -1.3873 H   0  0  0  0  0  0  0  0  0  0  0  0
    2.2451   -0.4948   -0.5279 H   0  0  0  0  0  0  0  0  0  0  0  0
    1.4699   -1.9455    0.1205 H   0  0  0  0  0  0  0  0  0  0  0  0
    0.2161    1.2951   -0.2359 C   0  0  0  0  0  0  0  0  0  0  0  0
    0.4854    1.4937   -1.4137 O   0  0  0  0  0  0  0  0  0  0  0  0
   -0.2988    2.3383    0.5115 N   0  0  0  0  0  0  0  0  0  0  0  0
   -0.5465    2.1424    1.4774 H   0  0  0  0  0  0  0  0  0  0  0  0
   -0.4723    3.6907   -0.0052 C   0  0  0  0  0  0  0  0  0  0  0  0
   -1.1498    3.6896   -0.8656 H   0  0  0  0  0  0  0  0  0  0  0  0
   -0.8967    4.3389    0.7673 H   0  0  0  0  0  0  0  0  0  0  0  0
    0.4913    4.1080   -0.3161 H   0  0  0  0  0  0  0  0  0  0  0  0
  1  2  1  0  0  0  0
  2  3  1  0  0  0  0
  2  4  1  0  0  0  0
  2  5  1  0  0  0  0
  5  6  2  0  0  0  0
  5  7  1  0  0  0  0
  7  8  1  0  0  0  0
  7  9  1  0  0  0  0
  9 10  1  0  0  0  0
  9 11  1  0  0  0  0
  9 15  1  0  0  0  0
 11 12  1  0  0  0  0
 11 13  1  0  0  0  0
 11 14  1  0  0  0  0
 15 16  2  0  0  0  0
 15 17  1  0  0  0  0
 17 18  1  0  0  0  0
 17 19  1  0  0  0  0
 19 20  1  0  0  0  0
 19 21  1  0  0  0  0
 19 22  1  0  0  0  0
M  END
$$$$

  -OEChem-11182114133D

 22 21  0     1  0  0  0  0  0999 V2000
   -2.6183   -3.6501    1.1560 H   0  0  0  0  0  0  0  0  0  0  0  0
   -2.5935   -2.6585    0.6955 C   0  0  0  0  0  0  0  0  0  0  0  0
   -3.4210   -2.0653    1.0919 H   0  0  0  0  0  0  0  0  0  0  0  0
   -2.7167   -2.7698   -0.3845 H   0  0  0  0  0  0  0  0  0  0  0  0
   -1.2734   -1.9754    0.9986 C   0  0  0  0  0  0  0  0  0  0  0  0
   -0.4647   -2.5148    1.7359 O   0  0  0  0  0  0  0  0  0  0  0  0
   -1.0172   -0.7217    0.4809 N   0  0  0  0  0  0  0  0  0  0  0  0
   -1.6978   -0.3820   -0.1948 H   0  0  0  0  0  0  0  0  0  0  0  0
    0.3219   -0.1128    0.4203 C   0  0  1  0  0  0  0  0  0  0  0  0
    0.7219   -0.0086    1.4341 H   0  0  0  0  0  0  0  0  0  0  0  0
    1.2845   -0.9950   -0.3962 C   0  0  0  0  0  0  0  0  0  0  0  0
    0.8677   -1.2073   -1.3859 H   0  0  0  0  0  0  0  0  0  0  0  0
    2.2446   -0.4862   -0.5270 H   0  0  0  0  0  0  0  0  0  0  0  0
    1.4736   -1.9449    0.1116 H   0  0  0  0  0  0  0  0  0  0  0  0
    0.2358    1.2934   -0.2136 C   0  0  0  0  0  0  0  0  0  0  0  0
    0.2183    1.4429   -1.4290 O   0  0  0  0  0  0  0  0  0  0  0  0
    0.0298    2.3954    0.5957 N   0  0  0  0  0  0  0  0  0  0  0  0
   -0.0224    2.2376    1.5982 H   0  0  0  0  0  0  0  0  0  0  0  0
   -0.1439    3.7488    0.0817 C   0  0  0  0  0  0  0  0  0  0  0  0
   -1.0292    3.8050   -0.5603 H   0  0  0  0  0  0  0  0  0  0  0  0
   -0.2710    4.4541    0.9086 H   0  0  0  0  0  0  0  0  0  0  0  0
    0.7330    4.0533   -0.4995 H   0  0  0  0  0  0  0  0  0  0  0  0
  1  2  1  0  0  0  0
  2  3  1  0  0  0  0
  2  4  1  0  0  0  0
  2  5  1  0  0  0  0
  5  6  2  0  0  0  0
  5  7  1  0  0  0  0
  7  8  1  0  0  0  0
  7  9  1  0  0  0  0
  9 10  1  0  0  0  0
  9 11  1  0  0  0  0
  9 15  1  0  0  0  0
 11 12  1  0  0  0  0
 11 13  1  0  0  0  0
 11 14  1  0  0  0  0
 15 16  2  0  0  0  0
 15 17  1  0  0  0  0
 17 18  1  0  0  0  0
 17 19  1  0  0  0  0
 19 20  1  0  0  0  0
 19 21  1  0  0  0  0
 19 22  1  0  0  0  0
M  END
$$$$

  -OEChem-11182114133D

 22 21  0     1  0  0  0  0  0999 V2000
   -2.6444   -3.6273    1.1649 H   0  0  0  0  0  0  0  0  0  0  0  0
   -2.6043   -2.6409    0.6943 C   0  0  0  0  0  0  0  0  0  0  0  0
   -3.4254   -2.0324    1.0807 H   0  0  0  0  0  0  0  0  0  0  0  0
   -2.7245   -2.7614   -0.3851 H   0  0  0  0  0  0  0  0  0  0  0  0
   -1.2766   -1.9717    0.9962 C   0  0  0  0  0  0  0  0  0  0  0  0
   -0.4701   -2.5217    1.7286 O   0  0  0  0  0  0  0  0  0  0  0  0
   -1.0084   -0.7198    0.4813 N   0  0  0  0  0  0  0  0  0  0  0  0
   -1.6823   -0.3692   -0.1967 H   0  0  0  0  0  0  0  0  0  0  0  0
    0.3332   -0.1186    0.4287 C   0  0  1  0  0  0  0  0  0  0  0  0
    0.7287   -0.0236    1.4449 H   0  0  0  0  0  0  0  0  0  0  0  0
    1.2933   -0.9937   -0.3960 C   0  0  0  0  0  0  0  0  0  0  0  0
    0.8808   -1.1845   -1.3921 H   0  0  0  0  0  0  0  0  0  0  0  0
    2.2586   -0.4912   -0.5115 H   0  0  0  0  0  0  0  0  0  0  0  0
    1.4697   -1.9542    0.0965 H   0  0  0  0  0  0  0  0  0  0  0  0
    0.2581    1.2866   -0.2045 C   0  0  0  0  0  0  0  0  0  0  0  0
   -0.0446    1.4200   -1.3840 O   0  0  0  0  0  0  0  0  0  0  0  0
    0.3663    2.4120    0.5916 N   0  0  0  0  0  0  0  0  0  0  0  0
    0.5281    2.2709    1.5847 H   0  0  0  0  0  0  0  0  0  0  0  0
    0.1926    3.7699    0.0899 C   0  0  0  0  0  0  0  0  0  0  0  0
   -0.8210    3.9077   -0.3009 H   0  0  0  0  0  0  0  0  0  0  0  0
    0.3547    4.4938    0.8944 H   0  0  0  0  0  0  0  0  0  0  0  0
    0.9107    3.9780   -0.7105 H   0  0  0  0  0  0  0  0  0  0  0  0
  1  2  1  0  0  0  0
  2  3  1  0  0  0  0
  2  4  1  0  0  0  0
  2  5  1  0  0  0  0
  5  6  2  0  0  0  0
  5  7  1  0  0  0  0
  7  8  1  0  0  0  0
  7  9  1  0  0  0  0
  9 10  1  0  0  0  0
  9 11  1  0  0  0  0
  9 15  1  0  0  0  0
 11 12  1  0  0  0  0
 11 13  1  0  0  0  0
 11 14  1  0  0  0  0
 15 16  2  0  0  0  0
 15 17  1  0  0  0  0
 17 18  1  0  0  0  0
 17 19  1  0  0  0  0
 19 20  1  0  0  0  0
 19 21  1  0  0  0  0
 19 22  1  0  0  0  0
M  END
$$$$

  -OEChem-11182114133D

 22 21  0     1  0  0  0  0  0999 V2000
   -2.6623   -3.6183    1.1681 H   0  0  0  0  0  0  0  0  0  0  0  0
   -2.6157   -2.6303    0.7015 C   0  0  0  0  0  0  0  0  0  0  0  0
   -3.4265   -2.0143    1.0978 H   0  0  0  0  0  0  0  0  0  0  0  0
   -2.7470   -2.7444   -0.3773 H   0  0  0  0  0  0  0  0  0  0  0  0
   -1.2782   -1.9766    0.9941 C   0  0  0  0  0  0  0  0  0  0  0  0
   -0.4691   -2.5388    1.7147 O   0  0  0  0  0  0  0  0  0  0  0  0
   -1.0016   -0.7264    0.4805 N   0  0  0  0  0  0  0  0  0  0  0  0
   -1.6806   -0.3560   -0.1826 H   0  0  0  0  0  0  0  0  0  0  0  0
    0.3390   -0.1236    0.4329 C   0  0  1  0  0  0  0  0  0  0  0  0
    0.7288   -0.0305    1.4516 H   0  0  0  0  0  0  0  0  0  0  0  0
    1.3019   -0.9888   -0.3968 C   0  0  0  0  0  0  0  0  0  0  0  0
    0.8967   -1.1593   -1.3995 H   0  0  0  0  0  0  0  0  0  0  0  0
    2.2711   -0.4902   -0.4951 H   0  0  0  0  0  0  0  0  0  0  0  0
    1.4683   -1.9589    0.0804 H   0  0  0  0  0  0  0  0  0  0  0  0
    0.2666    1.2801   -0.2025 C   0  0  0  0  0  0  0  0  0  0  0  0
   -0.2736    1.4313   -1.2921 O   0  0  0  0  0  0  0  0  0  0  0  0
    0.6714    2.3938    0.5102 N   0  0  0  0  0  0  0  0  0  0  0  0
    1.0464    2.2458    1.4428 H   0  0  0  0  0  0  0  0  0  0  0  0
    0.5312    3.7572    0.0129 C   0  0  0  0  0  0  0  0  0  0  0  0
   -0.5244    3.9990   -0.1495 H   0  0  0  0  0  0  0  0  0  0  0  0
    0.9418    4.4683    0.7363 H   0  0  0  0  0  0  0  0  0  0  0  0
    1.0703    3.8774   -0.9328 H   0  0  0  0  0  0  0  0  0  0  0  0
  1  2  1  0  0  0  0
  2  3  1  0  0  0  0
  2  4  1  0  0  0  0
  2  5  1  0  0  0  0
  5  6  2  0  0  0  0
  5  7  1  0  0  0  0
  7  8  1  0  0  0  0
  7  9  1  0  0  0  0
  9 10  1  0  0  0  0
  9 11  1  0  0  0  0
  9 15  1  0  0  0  0
 11 12  1  0  0  0  0
 11 13  1  0  0  0  0
 11 14  1  0  0  0  0
 15 16  2  0  0  0  0
 15 17  1  0  0  0  0
 17 18  1  0  0  0  0
 17 19  1  0  0  0  0
 19 20  1  0  0  0  0
 19 21  1  0  0  0  0
 19 22  1  0  0  0  0
M  END
$$$$

  -OEChem-11182114133D

 22 21  0     1  0  0  0  0  0999 V2000
   -2.6641   -3.6303    1.1596 H   0  0  0  0  0  0  0  0  0  0  0  0
   -2.6269   -2.6302    0.7188 C   0  0  0  0  0  0  0  0  0  0  0  0
   -3.4209   -2.0216    1.1581 H   0  0  0  0  0  0  0  0  0  0  0  0
   -2.7941   -2.7141   -0.3576 H   0  0  0  0  0  0  0  0  0  0  0  0
   -1.2771   -1.9911    0.9847 C   0  0  0  0  0  0  0  0  0  0  0  0
   -0.4565   -2.5675    1.6807 O   0  0  0  0  0  0  0  0  0  0  0  0
   -1.0006   -0.7399    0.4739 N   0  0  0  0  0  0  0  0  0  0  0  0
   -1.6946   -0.3440   -0.1590 H   0  0  0  0  0  0  0  0  0  0  0  0
    0.3340   -0.1238    0.4326 C   0  0  1  0  0  0  0  0  0  0  0  0
    0.7154   -0.0283    1.4542 H   0  0  0  0  0  0  0  0  0  0  0  0
    1.3086   -0.9750   -0.3965 C   0  0  0  0  0  0  0  0  0  0  0  0
    0.9130   -1.1356   -1.4047 H   0  0  0  0  0  0  0  0  0  0  0  0
    2.2765   -0.4711   -0.4795 H   0  0  0  0  0  0  0  0  0  0  0  0
    1.4748   -1.9495    0.0712 H   0  0  0  0  0  0  0  0  0  0  0  0
    0.2595    1.2797   -0.2035 C   0  0  0  0  0  0  0  0  0  0  0  0
   -0.4707    1.4768   -1.1686 O   0  0  0  0  0  0  0  0  0  0  0  0
    0.9263    2.3462    0.3709 N   0  0  0  0  0  0  0  0  0  0  0  0
    1.4950    2.1597    1.1918 H   0  0  0  0  0  0  0  0  0  0  0  0
    0.8557    3.7078   -0.1455 C   0  0  0  0  0  0  0  0  0  0  0  0
   -0.1777    4.0700   -0.1344 H   0  0  0  0  0  0  0  0  0  0  0  0
    1.4628    4.3776    0.4711 H   0  0  0  0  0  0  0  0  0  0  0  0
    1.2325    3.7478   -1.1730 H   0  0  0  0  0  0  0  0  0  0  0  0
  1  2  1  0  0  0  0
  2  3  1  0  0  0  0
  2  4  1  0  0  0  0
  2  5  1  0  0  0  0
  5  6  2  0  0  0  0
  5  7  1  0  0  0  0
  7  8  1  0  0  0  0
  7  9  1  0  0  0  0
  9 10  1  0  0  0  0
  9 11  1  0  0  0  0
  9 15  1  0  0  0  0
 11 12  1  0  0  0  0
 11 13  1  0  0  0  0
 11 14  1  0  0  0  0
 15 16  2  0  0  0  0
 15 17  1  0  0  0  0
 17 18  1  0  0  0  0
 17 19  1  0  0  0  0
 19 20  1  0  0  0  0
 19 21  1  0  0  0  0
 19 22  1  0  0  0  0
M  END
$$$$

  -OEChem-11182114133D

 22 21  0     1  0  0  0  0  0999 V2000
   -2.6829   -3.6206    1.1695 H   0  0  0  0  0  0  0  0  0  0  0  0
   -2.6391   -2.6195    0.7314 C   0  0  0  0  0  0  0  0  0  0  0  0
   -3.4137   -1.9997    1.1894 H   0  0  0  0  0  0  0  0  0  0  0  0
   -2.8302   -2.6964   -0.3417 H   0  0  0  0  0  0  0  0  0  0  0  0
   -1.2739   -2.0031    0.9714 C   0  0  0  0  0  0  0  0  0  0  0  0
   -0.4464   -2.5976    1.6436 O   0  0  0  0  0  0  0  0  0  0  0  0
   -0.9907   -0.7521    0.4643 N   0  0  0  0  0  0  0  0  0  0  0  0
   -1.7017   -0.3225   -0.1273 H   0  0  0  0  0  0  0  0  0  0  0  0
    0.3396   -0.1261    0.4308 C   0  0  1  0  0  0  0  0  0  0  0  0
    0.7141   -0.0263    1.4547 H   0  0  0  0  0  0  0  0  0  0  0  0
    1.3217   -0.9715   -0.3957 C   0  0  0  0  0  0  0  0  0  0  0  0
    0.9305   -1.1315   -1.4056 H   0  0  0  0  0  0  0  0  0  0  0  0
    2.2885   -0.4648   -0.4740 H   0  0  0  0  0  0  0  0  0  0  0  0
    1.4902   -1.9464    0.0705 H   0  0  0  0  0  0  0  0  0  0  0  0
    0.2635    1.2773   -0.2072 C   0  0  0  0  0  0  0  0  0  0  0  0
   -0.6227    1.5394   -1.0137 O   0  0  0  0  0  0  0  0  0  0  0  0
    1.1480    2.2691    0.1748 N   0  0  0  0  0  0  0  0  0  0  0  0
    1.8621    2.0277    0.8559 H   0  0  0  0  0  0  0  0  0  0  0  0
    1.1155    3.6219   -0.3669 C   0  0  0  0  0  0  0  0  0  0  0  0
    0.1498    4.0950   -0.1600 H   0  0  0  0  0  0  0  0  0  0  0  0
    1.9026    4.2304    0.0885 H   0  0  0  0  0  0  0  0  0  0  0  0
    1.2747    3.6045   -1.4501 H   0  0  0  0  0  0  0  0  0  0  0  0
  1  2  1  0  0  0  0
  2  3  1  0  0  0  0
  2  4  1  0  0  0  0
  2  5  1  0  0  0  0
  5  6  2  0  0  0  0
  5  7  1  0  0  0  0
  7  8  1  0  0  0  0
  7  9  1  0  0  0  0
  9 10  1  0  0  0  0
  9 11  1  0  0  0  0
  9 15  1  0  0  0  0
 11 12  1  0  0  0  0
 11 13  1  0  0  0  0
 11 14  1  0  0  0  0
 15 16  2  0  0  0  0
 15 17  1  0  0  0  0
 17 18  1  0  0  0  0
 17 19  1  0  0  0  0
 19 20  1  0  0  0  0
 19 21  1  0  0  0  0
 19 22  1  0  0  0  0
M  END
$$$$

  -OEChem-11182114133D

 22 21  0     1  0  0  0  0  0999 V2000
   -2.6965   -3.6142    1.1700 H   0  0  0  0  0  0  0  0  0  0  0  0
   -2.6513   -2.6061    0.7483 C   0  0  0  0  0  0  0  0  0  0  0  0
   -3.3994   -1.9825    1.2436 H   0  0  0  0  0  0  0  0  0  0  0  0
   -2.8802   -2.6608   -0.3186 H   0  0  0  0  0  0  0  0  0  0  0  0
   -1.2689   -2.0157    0.9529 C   0  0  0  0  0  0  0  0  0  0  0  0
   -0.4360   -2.6297    1.6003 O   0  0  0  0  0  0  0  0  0  0  0  0
   -0.9786   -0.7653    0.4478 N   0  0  0  0  0  0  0  0  0  0  0  0
   -1.7073   -0.3013   -0.0947 H   0  0  0  0  0  0  0  0  0  0  0  0
    0.3478   -0.1295    0.4238 C   0  0  1  0  0  0  0  0  0  0  0  0
    0.7150   -0.0231    1.4496 H   0  0  0  0  0  0  0  0  0  0  0  0
    1.3357   -0.9784   -0.3938 C   0  0  0  0  0  0  0  0  0  0  0  0
    0.9497   -1.1423   -1.4051 H   0  0  0  0  0  0  0  0  0  0  0  0
    2.3048   -0.4761   -0.4688 H   0  0  0  0  0  0  0  0  0  0  0  0
    1.5006   -1.9519    0.0764 H   0  0  0  0  0  0  0  0  0  0  0  0
    0.2712    1.2741   -0.2186 C   0  0  0  0  0  0  0  0  0  0  0  0
   -0.7287    1.6148   -0.8426 O   0  0  0  0  0  0  0  0  0  0  0  0
    1.3141    2.1708   -0.0716 N   0  0  0  0  0  0  0  0  0  0  0  0
    2.1284    1.8640    0.4526 H   0  0  0  0  0  0  0  0  0  0  0  0
    1.3037    3.5137   -0.6393 C   0  0  0  0  0  0  0  0  0  0  0  0
    0.4380    4.0779   -0.2765 H   0  0  0  0  0  0  0  0  0  0  0  0
    2.2110    4.0530   -0.3509 H   0  0  0  0  0  0  0  0  0  0  0  0
    1.2616    3.4668   -1.7326 H   0  0  0  0  0  0  0  0  0  0  0  0
  1  2  1  0  0  0  0
  2  3  1  0  0  0  0
  2  4  1  0  0  0  0
  2  5  1  0  0  0  0
  5  6  2  0  0  0  0
  5  7  1  0  0  0  0
  7  8  1  0  0  0  0
  7  9  1  0  0  0  0
  9 10  1  0  0  0  0
  9 11  1  0  0  0  0
  9 15  1  0  0  0  0
 11 12  1  0  0  0  0
 11 13  1  0  0  0  0
 11 14  1  0  0  0  0
 15 16  2  0  0  0  0
 15 17  1  0  0  0  0
 17 18  1  0  0  0  0
 17 19  1  0  0  0  0
 19 20  1  0  0  0  0
 19 21  1  0  0  0  0
 19 22  1  0  0  0  0
M  END
$$$$

  -OEChem-11182114133D

 22 21  0     1  0  0  0  0  0999 V2000
   -2.7010   -3.5881    1.2364 H   0  0  0  0  0  0  0  0  0  0  0  0
   -2.6613   -2.5873    0.7975 C   0  0  0  0  0  0  0  0  0  0  0  0
   -3.3324   -1.9308    1.3563 H   0  0  0  0  0  0  0  0  0  0  0  0
   -2.9980   -2.6442   -0.2403 H   0  0  0  0  0  0  0  0  0  0  0  0
   -1.2445   -2.0480    0.8523 C   0  0  0  0  0  0  0  0  0  0  0  0
   -0.3568   -2.7138    1.3612 O   0  0  0  0  0  0  0  0  0  0  0  0
   -0.9700   -0.7936    0.3497 N   0  0  0  0  0  0  0  0  0  0  0  0
   -1.7550   -0.2327    0.0194 H   0  0  0  0  0  0  0  0  0  0  0  0
    0.3440   -0.1362    0.3761 C   0  0  1  0  0  0  0  0  0  0  0  0
    0.7867   -0.2480    1.3715 H   0  0  0  0  0  0  0  0  0  0  0  0
    1.2555   -0.7997   -0.6680 C   0  0  0  0  0  0  0  0  0  0  0  0
    0.8268   -0.6939   -1.6697 H   0  0  0  0  0  0  0  0  0  0  0  0
    2.2486   -0.3413   -0.6631 H   0  0  0  0  0  0  0  0  0  0  0  0
    1.3765   -1.8659   -0.4544 H   0  0  0  0  0  0  0  0  0  0  0  0
    0.2188    1.3763    0.0791 C   0  0  0  0  0  0  0  0  0  0  0  0
   -0.8796    1.8714   -0.1526 O   0  0  0  0  0  0  0  0  0  0  0  0
    1.3392    2.1873    0.0558 N   0  0  0  0  0  0  0  0  0  0  0  0
    2.2370    1.7548    0.2523 H   0  0  0  0  0  0  0  0  0  0  0  0
    1.2901    3.6166   -0.2280 C   0  0  0  0  0  0  0  0  0  0  0  0
    0.6340    4.1272    0.4848 H   0  0  0  0  0  0  0  0  0  0  0  0
    2.2906    4.0526   -0.1488 H   0  0  0  0  0  0  0  0  0  0  0  0
    0.9146    3.7930   -1.2415 H   0  0  0  0  0  0  0  0  0  0  0  0
  1  2  1  0  0  0  0
  2  3  1  0  0  0  0
  2  4  1  0  0  0  0
  2  5  1  0  0  0  0
  5  6  2  0  0  0  0
  5  7  1  0  0  0  0
  7  8  1  0  0  0  0
  7  9  1  0  0  0  0
  9 10  1  0  0  0  0
  9 11  1  0  0  0  0
  9 15  1  0  0  0  0
 11 12  1  0  0  0  0
 11 13  1  0  0  0  0
 11 14  1  0  0  0  0
 15 16  2  0  0  0  0
 15 17  1  0  0  0  0
 17 18  1  0  0  0  0
 17 19  1  0  0  0  0
 19 20  1  0  0  0  0
 19 21  1  0  0  0  0
 19 22  1  0  0  0  0
M  END
$$$$

  -OEChem-11182114133D

 22 21  0     1  0  0  0  0  0999 V2000
   -2.7149   -3.5683    1.2536 H   0  0  0  0  0  0  0  0  0  0  0  0
   -2.6682   -2.5704    0.8085 C   0  0  0  0  0  0  0  0  0  0  0  0
   -3.3168   -1.9002    1.3779 H   0  0  0  0  0  0  0  0  0  0  0  0
   -3.0281   -2.6270   -0.2216 H   0  0  0  0  0  0  0  0  0  0  0  0
   -1.2419   -2.0537    0.8305 C   0  0  0  0  0  0  0  0  0  0  0  0
   -0.3541   -2.7346    1.3190 O   0  0  0  0  0  0  0  0  0  0  0  0
   -0.9624   -0.7994    0.3295 N   0  0  0  0  0  0  0  0  0  0  0  0
   -1.7539   -0.2145    0.0617 H   0  0  0  0  0  0  0  0  0  0  0  0
    0.3532   -0.1446    0.3677 C   0  0  1  0  0  0  0  0  0  0  0  0
    0.7860   -0.2528    1.3679 H   0  0  0  0  0  0  0  0  0  0  0  0
    1.2763   -0.8182   -0.6622 C   0  0  0  0  0  0  0  0  0  0  0  0
    0.8766   -0.6893   -1.6732 H   0  0  0  0  0  0  0  0  0  0  0  0
    2.2807   -0.3871   -0.6243 H   0  0  0  0  0  0  0  0  0  0  0  0
    1.3667   -1.8897   -0.4610 H   0  0  0  0  0  0  0  0  0  0  0  0
    0.2236    1.3687    0.0686 C   0  0  0  0  0  0  0  0  0  0  0  0
   -0.8824    1.8996    0.0673 O   0  0  0  0  0  0  0  0  0  0  0  0
    1.3300    2.1356   -0.2515 N   0  0  0  0  0  0  0  0  0  0  0  0
    2.2354    1.6756   -0.2568 H   0  0  0  0  0  0  0  0  0  0  0  0
    1.2561    3.5551   -0.5756 C   0  0  0  0  0  0  0  0  0  0  0  0
    0.8194    4.1165    0.2571 H   0  0  0  0  0  0  0  0  0  0  0  0
    2.2574    3.9508   -0.7711 H   0  0  0  0  0  0  0  0  0  0  0  0
    0.6413    3.7125   -1.4680 H   0  0  0  0  0  0  0  0  0  0  0  0
  1  2  1  0  0  0  0
  2  3  1  0  0  0  0
  2  4  1  0  0  0  0
  2  5  1  0  0  0  0
  5  6  2  0  0  0  0
  5  7  1  0  0  0  0
  7  8  1  0  0  0  0
  7  9  1  0  0  0  0
  9 10  1  0  0  0  0
  9 11  1  0  0  0  0
  9 15  1  0  0  0  0
 11 12  1  0  0  0  0
 11 13  1  0  0  0  0
 11 14  1  0  0  0  0
 15 16  2  0  0  0  0
 15 17  1  0  0  0  0
 17 18  1  0  0  0  0
 17 19  1  0  0  0  0
 19 20  1  0  0  0  0
 19 21  1  0  0  0  0
 19 22  1  0  0  0  0
M  END
$$$$

  -OEChem-11182114133D

 22 21  0     1  0  0  0  0  0999 V2000
   -2.7283   -3.5467    1.2722 H   0  0  0  0  0  0  0  0  0  0  0  0
   -2.6758   -2.5521    0.8205 C   0  0  0  0  0  0  0  0  0  0  0  0
   -3.3015   -1.8686    1.3996 H   0  0  0  0  0  0  0  0  0  0  0  0
   -3.0583   -2.6085   -0.2013 H   0  0  0  0  0  0  0  0  0  0  0  0
   -1.2417   -2.0577    0.8096 C   0  0  0  0  0  0  0  0  0  0  0  0
   -0.3549   -2.7555    1.2750 O   0  0  0  0  0  0  0  0  0  0  0  0
   -0.9571   -0.8044    0.3085 N   0  0  0  0  0  0  0  0  0  0  0  0
   -1.7516   -0.2023    0.0945 H   0  0  0  0  0  0  0  0  0  0  0  0
    0.3607   -0.1535    0.3568 C   0  0  1  0  0  0  0  0  0  0  0  0
    0.7808   -0.2556    1.3630 H   0  0  0  0  0  0  0  0  0  0  0  0
    1.3008   -0.8382   -0.6524 C   0  0  0  0  0  0  0  0  0  0  0  0
    0.9249   -0.7095   -1.6725 H   0  0  0  0  0  0  0  0  0  0  0  0
    2.3080   -0.4160   -0.5907 H   0  0  0  0  0  0  0  0  0  0  0  0
    1.3793   -1.9099   -0.4480 H   0  0  0  0  0  0  0  0  0  0  0  0
    0.2269    1.3599    0.0535 C   0  0  0  0  0  0  0  0  0  0  0  0
   -0.8368    1.9277    0.2772 O   0  0  0  0  0  0  0  0  0  0  0  0
    1.2442    2.0784   -0.5507 N   0  0  0  0  0  0  0  0  0  0  0  0
    2.1067    1.5852   -0.7606 H   0  0  0  0  0  0  0  0  0  0  0  0
    1.1331    3.4889   -0.9033 C   0  0  0  0  0  0  0  0  0  0  0  0
    0.9356    4.0927   -0.0113 H   0  0  0  0  0  0  0  0  0  0  0  0
    2.0648    3.8396   -1.3575 H   0  0  0  0  0  0  0  0  0  0  0  0
    0.3197    3.6420   -1.6203 H   0  0  0  0  0  0  0  0  0  0  0  0
  1  2  1  0  0  0  0
  2  3  1  0  0  0  0
  2  4  1  0  0  0  0
  2  5  1  0  0  0  0
  5  6  2  0  0  0  0
  5  7  1  0  0  0  0
  7  8  1  0  0  0  0
  7  9  1  0  0  0  0
  9 10  1  0  0  0  0
  9 11  1  0  0  0  0
  9 15  1  0  0  0  0
 11 12  1  0  0  0  0
 11 13  1  0  0  0  0
 11 14  1  0  0  0  0
 15 16  2  0  0  0  0
 15 17  1  0  0  0  0
 17 18  1  0  0  0  0
 17 19  1  0  0  0  0
 19 20  1  0  0  0  0
 19 21  1  0  0  0  0
 19 22  1  0  0  0  0
M  END
$$$$

  -OEChem-11182114133D

 22 21  0     1  0  0  0  0  0999 V2000
   -2.7311   -3.5366    1.2844 H   0  0  0  0  0  0  0  0  0  0  0  0
   -2.6786   -2.5438    0.8285 C   0  0  0  0  0  0  0  0  0  0  0  0
   -3.2934   -1.8549    1.4130 H   0  0  0  0  0  0  0  0  0  0  0  0
   -3.0740   -2.6016   -0.1885 H   0  0  0  0  0  0  0  0  0  0  0  0
   -1.2417   -2.0579    0.7982 C   0  0  0  0  0  0  0  0  0  0  0  0
   -0.3539   -2.7648    1.2474 O   0  0  0  0  0  0  0  0  0  0  0  0
   -0.9575   -0.8050    0.2939 N   0  0  0  0  0  0  0  0  0  0  0  0
   -1.7550   -0.1959    0.1164 H   0  0  0  0  0  0  0  0  0  0  0  0
    0.3616   -0.1561    0.3467 C   0  0  1  0  0  0  0  0  0  0  0  0
    0.7726   -0.2490    1.3576 H   0  0  0  0  0  0  0  0  0  0  0  0
    1.3147   -0.8511   -0.6433 C   0  0  0  0  0  0  0  0  0  0  0  0
    0.9356   -0.7623   -1.6663 H   0  0  0  0  0  0  0  0  0  0  0  0
    2.3127   -0.4059   -0.5939 H   0  0  0  0  0  0  0  0  0  0  0  0
    1.4162   -1.9140   -0.4065 H   0  0  0  0  0  0  0  0  0  0  0  0
    0.2257    1.3559    0.0386 C   0  0  0  0  0  0  0  0  0  0  0  0
   -0.7436    1.9673    0.4728 O   0  0  0  0  0  0  0  0  0  0  0  0
    1.0879    2.0160   -0.8206 N   0  0  0  0  0  0  0  0  0  0  0  0
    1.8540    1.4808   -1.2180 H   0  0  0  0  0  0  0  0  0  0  0  0
    0.9400    3.4189   -1.1898 C   0  0  0  0  0  0  0  0  0  0  0  0
    0.9909    4.0563   -0.3007 H   0  0  0  0  0  0  0  0  0  0  0  0
    1.7405    3.7165   -1.8739 H   0  0  0  0  0  0  0  0  0  0  0  0
   -0.0204    3.5855   -1.6888 H   0  0  0  0  0  0  0  0  0  0  0  0
  1  2  1  0  0  0  0
  2  3  1  0  0  0  0
  2  4  1  0  0  0  0
  2  5  1  0  0  0  0
  5  6  2  0  0  0  0
  5  7  1  0  0  0  0
  7  8  1  0  0  0  0
  7  9  1  0  0  0  0
  9 10  1  0  0  0  0
  9 11  1  0  0  0  0
  9 15  1  0  0  0  0
 11 12  1  0  0  0  0
 11 13  1  0  0  0  0
 11 14  1  0  0  0  0
 15 16  2  0  0  0  0
 15 17  1  0  0  0  0
 17 18  1  0  0  0  0
 17 19  1  0  0  0  0
 19 20  1  0  0  0  0
 19 21  1  0  0  0  0
 19 22  1  0  0  0  0
M  END
$$$$

  -OEChem-11182114133D

 22 21  0     1  0  0  0  0  0999 V2000
   -2.7268   -3.5352    1.2969 H   0  0  0  0  0  0  0  0  0  0  0  0
   -2.6783   -2.5439    0.8374 C   0  0  0  0  0  0  0  0  0  0  0  0
   -3.2870   -1.8536    1.4264 H   0  0  0  0  0  0  0  0  0  0  0  0
   -3.0839   -2.6049   -0.1752 H   0  0  0  0  0  0  0  0  0  0  0  0
   -1.2416   -2.0587    0.7912 C   0  0  0  0  0  0  0  0  0  0  0  0
   -0.3502   -2.7674    1.2295 O   0  0  0  0  0  0  0  0  0  0  0  0
   -0.9626   -0.8061    0.2824 N   0  0  0  0  0  0  0  0  0  0  0  0
   -1.7641   -0.1989    0.1214 H   0  0  0  0  0  0  0  0  0  0  0  0
    0.3558   -0.1550    0.3377 C   0  0  1  0  0  0  0  0  0  0  0  0
    0.7614   -0.2396    1.3518 H   0  0  0  0  0  0  0  0  0  0  0  0
    1.3209   -0.8531   -0.6386 C   0  0  0  0  0  0  0  0  0  0  0  0
    0.9264   -0.8214   -1.6590 H   0  0  0  0  0  0  0  0  0  0  0  0
    2.3016   -0.3681   -0.6205 H   0  0  0  0  0  0  0  0  0  0  0  0
    1.4654   -1.9008   -0.3602 H   0  0  0  0  0  0  0  0  0  0  0  0
    0.2174    1.3547    0.0247 C   0  0  0  0  0  0  0  0  0  0  0  0
   -0.6054    2.0150    0.6461 O   0  0  0  0  0  0  0  0  0  0  0  0
    0.8664    1.9517   -1.0428 N   0  0  0  0  0  0  0  0  0  0  0  0
    1.4956    1.3723   -1.5903 H   0  0  0  0  0  0  0  0  0  0  0  0
    0.6870    3.3497   -1.4166 C   0  0  0  0  0  0  0  0  0  0  0  0
    0.9835    4.0076   -0.5928 H   0  0  0  0  0  0  0  0  0  0  0  0
    1.3025    3.5900   -2.2889 H   0  0  0  0  0  0  0  0  0  0  0  0
   -0.3602    3.5488   -1.6674 H   0  0  0  0  0  0  0  0  0  0  0  0
  1  2  1  0  0  0  0
  2  3  1  0  0  0  0
  2  4  1  0  0  0  0
  2  5  1  0  0  0  0
  5  6  2  0  0  0  0
  5  7  1  0  0  0  0
  7  8  1  0  0  0  0
  7  9  1  0  0  0  0
  9 10  1  0  0  0  0
  9 11  1  0  0  0  0
  9 15  1  0  0  0  0
 11 12  1  0  0  0  0
 11 13  1  0  0  0  0
 11 14  1  0  0  0  0
 15 16  2  0  0  0  0
 15 17  1  0  0  0  0
 17 18  1  0  0  0  0
 17 19  1  0  0  0  0
 19 20  1  0  0  0  0
 19 21  1  0  0  0  0
 19 22  1  0  0  0  0
M  END
$$$$

  -OEChem-11182114133D

 22 21  0     1  0  0  0  0  0999 V2000
   -2.7149   -3.5455    1.3066 H   0  0  0  0  0  0  0  0  0  0  0  0
   -2.6741   -2.5544    0.8459 C   0  0  0  0  0  0  0  0  0  0  0  0
   -3.2835   -1.8667    1.4373 H   0  0  0  0  0  0  0  0  0  0  0  0
   -3.0844   -2.6190   -0.1647 H   0  0  0  0  0  0  0  0  0  0  0  0
   -1.2403   -2.0613    0.7920 C   0  0  0  0  0  0  0  0  0  0  0  0
   -0.3422   -2.7657    1.2230 O   0  0  0  0  0  0  0  0  0  0  0  0
   -0.9718   -0.8079    0.2788 N   0  0  0  0  0  0  0  0  0  0  0  0
   -1.7796   -0.2108    0.1159 H   0  0  0  0  0  0  0  0  0  0  0  0
    0.3436   -0.1500    0.3326 C   0  0  1  0  0  0  0  0  0  0  0  0
    0.7486   -0.2293    1.3477 H   0  0  0  0  0  0  0  0  0  0  0  0
    1.3170   -0.8424   -0.6385 C   0  0  0  0  0  0  0  0  0  0  0  0
    0.9051   -0.8615   -1.6521 H   0  0  0  0  0  0  0  0  0  0  0  0
    2.2772   -0.3177   -0.6544 H   0  0  0  0  0  0  0  0  0  0  0  0
    1.5065   -1.8737   -0.3271 H   0  0  0  0  0  0  0  0  0  0  0  0
    0.2024    1.3570    0.0166 C   0  0  0  0  0  0  0  0  0  0  0  0
   -0.4163    2.0715    0.7935 O   0  0  0  0  0  0  0  0  0  0  0  0
    0.5905    1.8898   -1.2010 N   0  0  0  0  0  0  0  0  0  0  0  0
    1.0476    1.2657   -1.8592 H   0  0  0  0  0  0  0  0  0  0  0  0
    0.3910    3.2859   -1.5713 C   0  0  0  0  0  0  0  0  0  0  0  0
    0.9164    3.9461   -0.8732 H   0  0  0  0  0  0  0  0  0  0  0  0
    0.7788    3.4692   -2.5780 H   0  0  0  0  0  0  0  0  0  0  0  0
   -0.6747    3.5376   -1.5607 H   0  0  0  0  0  0  0  0  0  0  0  0
  1  2  1  0  0  0  0
  2  3  1  0  0  0  0
  2  4  1  0  0  0  0
  2  5  1  0  0  0  0
  5  6  2  0  0  0  0
  5  7  1  0  0  0  0
  7  8  1  0  0  0  0
  7  9  1  0  0  0  0
  9 10  1  0  0  0  0
  9 11  1  0  0  0  0
  9 15  1  0  0  0  0
 11 12  1  0  0  0  0
 11 13  1  0  0  0  0
 11 14  1  0  0  0  0
 15 16  2  0  0  0  0
 15 17  1  0  0  0  0
 17 18  1  0  0  0  0
 17 19  1  0  0  0  0
 19 20  1  0  0  0  0
 19 21  1  0  0  0  0
 19 22  1  0  0  0  0
M  END
$$$$

  -OEChem-11182114133D

 22 21  0     1  0  0  0  0  0999 V2000
   -2.6973   -3.5651    1.3137 H   0  0  0  0  0  0  0  0  0  0  0  0
   -2.6669   -2.5740    0.8523 C   0  0  0  0  0  0  0  0  0  0  0  0
   -3.2855   -1.8931    1.4419 H   0  0  0  0  0  0  0  0  0  0  0  0
   -3.0741   -2.6440   -0.1591 H   0  0  0  0  0  0  0  0  0  0  0  0
   -1.2387   -2.0649    0.8012 C   0  0  0  0  0  0  0  0  0  0  0  0
   -0.3333   -2.7594    1.2321 O   0  0  0  0  0  0  0  0  0  0  0  0
   -0.9830   -0.8101    0.2846 N   0  0  0  0  0  0  0  0  0  0  0  0
   -1.7969   -0.2280    0.1031 H   0  0  0  0  0  0  0  0  0  0  0  0
    0.3282   -0.1427    0.3337 C   0  0  1  0  0  0  0  0  0  0  0  0
    0.7390   -0.2212    1.3468 H   0  0  0  0  0  0  0  0  0  0  0  0
    1.3034   -0.8215   -0.6439 C   0  0  0  0  0  0  0  0  0  0  0  0
    0.8763   -0.8702   -1.6500 H   0  0  0  0  0  0  0  0  0  0  0  0
    2.2463   -0.2675   -0.6861 H   0  0  0  0  0  0  0  0  0  0  0  0
    1.5282   -1.8414   -0.3181 H   0  0  0  0  0  0  0  0  0  0  0  0
    0.1824    1.3619    0.0168 C   0  0  0  0  0  0  0  0  0  0  0  0
   -0.1753    2.1311    0.8974 O   0  0  0  0  0  0  0  0  0  0  0  0
    0.2738    1.8360   -1.2803 N   0  0  0  0  0  0  0  0  0  0  0  0
    0.5347    1.1708   -2.0021 H   0  0  0  0  0  0  0  0  0  0  0  0
    0.0696    3.2333   -1.6438 C   0  0  0  0  0  0  0  0  0  0  0  0
    0.7929    3.8734   -1.1277 H   0  0  0  0  0  0  0  0  0  0  0  0
    0.1987    3.3659   -2.7221 H   0  0  0  0  0  0  0  0  0  0  0  0
   -0.9414    3.5564   -1.3746 H   0  0  0  0  0  0  0  0  0  0  0  0
  1  2  1  0  0  0  0
  2  3  1  0  0  0  0
  2  4  1  0  0  0  0
  2  5  1  0  0  0  0
  5  6  2  0  0  0  0
  5  7  1  0  0  0  0
  7  8  1  0  0  0  0
  7  9  1  0  0  0  0
  9 10  1  0  0  0  0
  9 11  1  0  0  0  0
  9 15  1  0  0  0  0
 11 12  1  0  0  0  0
 11 13  1  0  0  0  0
 11 14  1  0  0  0  0
 15 16  2  0  0  0  0
 15 17  1  0  0  0  0
 17 18  1  0  0  0  0
 17 19  1  0  0  0  0
 19 20  1  0  0  0  0
 19 21  1  0  0  0  0
 19 22  1  0  0  0  0
M  END
$$$$

  -OEChem-11182114133D

 22 21  0     1  0  0  0  0  0999 V2000
   -2.6772   -3.5903    1.3192 H   0  0  0  0  0  0  0  0  0  0  0  0
   -2.6586   -2.5985    0.8588 C   0  0  0  0  0  0  0  0  0  0  0  0
   -3.2844   -1.9253    1.4495 H   0  0  0  0  0  0  0  0  0  0  0  0
   -3.0660   -2.6724   -0.1521 H   0  0  0  0  0  0  0  0  0  0  0  0
   -1.2365   -2.0725    0.8084 C   0  0  0  0  0  0  0  0  0  0  0  0
   -0.3231   -2.7559    1.2392 O   0  0  0  0  0  0  0  0  0  0  0  0
   -0.9952   -0.8146    0.2923 N   0  0  0  0  0  0  0  0  0  0  0  0
   -1.8151   -0.2477    0.0929 H   0  0  0  0  0  0  0  0  0  0  0  0
    0.3107   -0.1354    0.3395 C   0  0  1  0  0  0  0  0  0  0  0  0
    0.7272   -0.2175    1.3502 H   0  0  0  0  0  0  0  0  0  0  0  0
    1.2870   -0.7930   -0.6493 C   0  0  0  0  0  0  0  0  0  0  0  0
    0.8581   -0.8313   -1.6550 H   0  0  0  0  0  0  0  0  0  0  0  0
    2.2245   -0.2294   -0.6874 H   0  0  0  0  0  0  0  0  0  0  0  0
    1.5211   -1.8150   -0.3370 H   0  0  0  0  0  0  0  0  0  0  0  0
    0.1581    1.3675    0.0260 C   0  0  0  0  0  0  0  0  0  0  0  0
    0.1051    2.1818    0.9360 O   0  0  0  0  0  0  0  0  0  0  0  0
   -0.0617    1.7973   -1.2709 N   0  0  0  0  0  0  0  0  0  0  0  0
   -0.0115    1.0994   -2.0072 H   0  0  0  0  0  0  0  0  0  0  0  0
   -0.2586    3.1963   -1.6310 C   0  0  0  0  0  0  0  0  0  0  0  0
    0.6145    3.7922   -1.3445 H   0  0  0  0  0  0  0  0  0  0  0  0
   -0.4033    3.2923   -2.7114 H   0  0  0  0  0  0  0  0  0  0  0  0
   -1.1425    3.6012   -1.1269 H   0  0  0  0  0  0  0  0  0  0  0  0
  1  2  1  0  0  0  0
  2  3  1  0  0  0  0
  2  4  1  0  0  0  0
  2  5  1  0  0  0  0
  5  6  2  0  0  0  0
  5  7  1  0  0  0  0
  7  8  1  0  0  0  0
  7  9  1  0  0  0  0
  9 10  1  0  0  0  0
  9 11  1  0  0  0  0
  9 15  1  0  0  0  0
 11 12  1  0  0  0  0
 11 13  1  0  0  0  0
 11 14  1  0  0  0  0
 15 16  2  0  0  0  0
 15 17  1  0  0  0  0
 17 18  1  0  0  0  0
 17 19  1  0  0  0  0
 19 20  1  0  0  0  0
 19 21  1  0  0  0  0
 19 22  1  0  0  0  0
M  END
$$$$

  -OEChem-11182114133D

 22 21  0     1  0  0  0  0  0999 V2000
   -2.6554   -3.6207    1.3262 H   0  0  0  0  0  0  0  0  0  0  0  0
   -2.6503   -2.6280    0.8667 C   0  0  0  0  0  0  0  0  0  0  0  0
   -3.2822   -1.9632    1.4606 H   0  0  0  0  0  0  0  0  0  0  0  0
   -3.0606   -2.7058   -0.1430 H   0  0  0  0  0  0  0  0  0  0  0  0
   -1.2343   -2.0856    0.8118 C   0  0  0  0  0  0  0  0  0  0  0  0
   -0.3118   -2.7594    1.2380 O   0  0  0  0  0  0  0  0  0  0  0  0
   -1.0090   -0.8225    0.3004 N   0  0  0  0  0  0  0  0  0  0  0  0
   -1.8364   -0.2656    0.1046 H   0  0  0  0  0  0  0  0  0  0  0  0
    0.2909   -0.1297    0.3493 C   0  0  1  0  0  0  0  0  0  0  0  0
    0.7128   -0.2193    1.3571 H   0  0  0  0  0  0  0  0  0  0  0  0
    1.2682   -0.7605   -0.6546 C   0  0  0  0  0  0  0  0  0  0  0  0
    0.8444   -0.7623   -1.6631 H   0  0  0  0  0  0  0  0  0  0  0  0
    2.2083   -0.1999   -0.6706 H   0  0  0  0  0  0  0  0  0  0  0  0
    1.4965   -1.7930   -0.3745 H   0  0  0  0  0  0  0  0  0  0  0  0
    0.1307    1.3727    0.0441 C   0  0  0  0  0  0  0  0  0  0  0  0
    0.3852    2.2103    0.8968 O   0  0  0  0  0  0  0  0  0  0  0  0
   -0.3922    1.7811   -1.1703 N   0  0  0  0  0  0  0  0  0  0  0  0
   -0.5315    1.0656   -1.8776 H   0  0  0  0  0  0  0  0  0  0  0  0
   -0.5690    3.1819   -1.5346 C   0  0  0  0  0  0  0  0  0  0  0  0
    0.3911    3.7082   -1.5128 H   0  0  0  0  0  0  0  0  0  0  0  0
   -0.9842    3.2612   -2.5440 H   0  0  0  0  0  0  0  0  0  0  0  0
   -1.2567    3.6749   -0.8393 H   0  0  0  0  0  0  0  0  0  0  0  0
  1  2  1  0  0  0  0
  2  3  1  0  0  0  0
  2  4  1  0  0  0  0
  2  5  1  0  0  0  0
  5  6  2  0  0  0  0
  5  7  1  0  0  0  0
  7  8  1  0  0  0  0
  7  9  1  0  0  0  0
  9 10  1  0  0  0  0
  9 11  1  0  0  0  0
  9 15  1  0  0  0  0
 11 12  1  0  0  0  0
 11 13  1  0  0  0  0
 11 14  1  0  0  0  0
 15 16  2  0  0  0  0
 15 17  1  0  0  0  0
 17 18  1  0  0  0  0
 17 19  1  0  0  0  0
 19 20  1  0  0  0  0
 19 21  1  0  0  0  0
 19 22  1  0  0  0  0
M  END
$$$$

  -OEChem-11182114133D

 22 21  0     1  0  0  0  0  0999 V2000
   -2.6236   -3.6715    1.3068 H   0  0  0  0  0  0  0  0  0  0  0  0
   -2.6374   -2.6692    0.8691 C   0  0  0  0  0  0  0  0  0  0  0  0
   -3.2800   -2.0292    1.4785 H   0  0  0  0  0  0  0  0  0  0  0  0
   -3.0486   -2.7328   -0.1411 H   0  0  0  0  0  0  0  0  0  0  0  0
   -1.2313   -2.1008    0.8231 C   0  0  0  0  0  0  0  0  0  0  0  0
   -0.2999   -2.7590    1.2538 O   0  0  0  0  0  0  0  0  0  0  0  0
   -1.0254   -0.8319    0.3164 N   0  0  0  0  0  0  0  0  0  0  0  0
   -1.8614   -0.2841    0.1332 H   0  0  0  0  0  0  0  0  0  0  0  0
    0.2675   -0.1235    0.3664 C   0  0  1  0  0  0  0  0  0  0  0  0
    0.6978   -0.2217    1.3699 H   0  0  0  0  0  0  0  0  0  0  0  0
    1.2397   -0.7277   -0.6570 C   0  0  0  0  0  0  0  0  0  0  0  0
    0.8189   -0.6818   -1.6659 H   0  0  0  0  0  0  0  0  0  0  0  0
    2.1860   -0.1773   -0.6478 H   0  0  0  0  0  0  0  0  0  0  0  0
    1.4547   -1.7735   -0.4184 H   0  0  0  0  0  0  0  0  0  0  0  0
    0.1046    1.3804    0.0709 C   0  0  0  0  0  0  0  0  0  0  0  0
    0.6380    2.2161    0.7854 O   0  0  0  0  0  0  0  0  0  0  0  0
   -0.6895    1.7949   -0.9845 N   0  0  0  0  0  0  0  0  0  0  0  0
   -0.9924    1.0778   -1.6366 H   0  0  0  0  0  0  0  0  0  0  0  0
   -0.8351    3.1955   -1.3630 C   0  0  0  0  0  0  0  0  0  0  0  0
    0.1351    3.6209   -1.6406 H   0  0  0  0  0  0  0  0  0  0  0  0
   -1.5118    3.2879   -2.2178 H   0  0  0  0  0  0  0  0  0  0  0  0
   -1.2492    3.7762   -0.5319 H   0  0  0  0  0  0  0  0  0  0  0  0
  1  2  1  0  0  0  0
  2  3  1  0  0  0  0
  2  4  1  0  0  0  0
  2  5  1  0  0  0  0
  5  6  2  0  0  0  0
  5  7  1  0  0  0  0
  7  8  1  0  0  0  0
  7  9  1  0  0  0  0
  9 10  1  0  0  0  0
  9 11  1  0  0  0  0
  9 15  1  0  0  0  0
 11 12  1  0  0  0  0
 11 13  1  0  0  0  0
 11 14  1  0  0  0  0
 15 16  2  0  0  0  0
 15 17  1  0  0  0  0
 17 18  1  0  0  0  0
 17 19  1  0  0  0  0
 19 20  1  0  0  0  0
 19 21  1  0  0  0  0
 19 22  1  0  0  0  0
M  END
$$$$

  -OEChem-11182114133D

 22 21  0     1  0  0  0  0  0999 V2000
   -2.5994   -3.7065    1.3014 H   0  0  0  0  0  0  0  0  0  0  0  0
   -2.6268   -2.7001    0.8735 C   0  0  0  0  0  0  0  0  0  0  0  0
   -3.2701   -2.0723    1.4947 H   0  0  0  0  0  0  0  0  0  0  0  0
   -3.0458   -2.7587   -0.1338 H   0  0  0  0  0  0  0  0  0  0  0  0
   -1.2263   -2.1182    0.8200 C   0  0  0  0  0  0  0  0  0  0  0  0
   -0.2872   -2.7693    1.2439 O   0  0  0  0  0  0  0  0  0  0  0  0
   -1.0361   -0.8449    0.3175 N   0  0  0  0  0  0  0  0  0  0  0  0
   -1.8804   -0.3000    0.1709 H   0  0  0  0  0  0  0  0  0  0  0  0
    0.2506   -0.1229    0.3751 C   0  0  1  0  0  0  0  0  0  0  0  0
    0.6797   -0.2251    1.3785 H   0  0  0  0  0  0  0  0  0  0  0  0
    1.2249   -0.7161   -0.6526 C   0  0  0  0  0  0  0  0  0  0  0  0
    0.8075   -0.6522   -1.6620 H   0  0  0  0  0  0  0  0  0  0  0  0
    2.1735   -0.1701   -0.6321 H   0  0  0  0  0  0  0  0  0  0  0  0
    1.4360   -1.7659   -0.4297 H   0  0  0  0  0  0  0  0  0  0  0  0
    0.0949    1.3846    0.0869 C   0  0  0  0  0  0  0  0  0  0  0  0
    0.8350    2.1955    0.6241 O   0  0  0  0  0  0  0  0  0  0  0  0
   -0.9105    1.8367   -0.7516 N   0  0  0  0  0  0  0  0  0  0  0  0
   -1.3631    1.1377   -1.3318 H   0  0  0  0  0  0  0  0  0  0  0  0
   -1.0591    3.2420   -1.1126 C   0  0  0  0  0  0  0  0  0  0  0  0
   -0.1723    3.5965   -1.6486 H   0  0  0  0  0  0  0  0  0  0  0  0
   -1.9324    3.3770   -1.7579 H   0  0  0  0  0  0  0  0  0  0  0  0
   -1.1968    3.8558   -0.2160 H   0  0  0  0  0  0  0  0  0  0  0  0
  1  2  1  0  0  0  0
  2  3  1  0  0  0  0
  2  4  1  0  0  0  0
  2  5  1  0  0  0  0
  5  6  2  0  0  0  0
  5  7  1  0  0  0  0
  7  8  1  0  0  0  0
  7  9  1  0  0  0  0
  9 10  1  0  0  0  0
  9 11  1  0  0  0  0
  9 15  1  0  0  0  0
 11 12  1  0  0  0  0
 11 13  1  0  0  0  0
 11 14  1  0  0  0  0
 15 16  2  0  0  0  0
 15 17  1  0  0  0  0
 17 18  1  0  0  0  0
 17 19  1  0  0  0  0
 19 20  1  0  0  0  0
 19 21  1  0  0  0  0
 19 22  1  0  0  0  0
M  END
$$$$

  -OEChem-11182114133D

 22 21  0     1  0  0  0  0  0999 V2000
   -2.5759   -3.7312    1.3222 H   0  0  0  0  0  0  0  0  0  0  0  0
   -2.6102   -2.7349    0.8721 C   0  0  0  0  0  0  0  0  0  0  0  0
   -3.2692   -2.1022    1.4713 H   0  0  0  0  0  0  0  0  0  0  0  0
   -3.0153   -2.8204   -0.1390 H   0  0  0  0  0  0  0  0  0  0  0  0
   -1.2170   -2.1362    0.8228 C   0  0  0  0  0  0  0  0  0  0  0  0
   -0.2721   -2.7734    1.2548 O   0  0  0  0  0  0  0  0  0  0  0  0
   -1.0432   -0.8596    0.3220 N   0  0  0  0  0  0  0  0  0  0  0  0
   -1.8951   -0.3285    0.1785 H   0  0  0  0  0  0  0  0  0  0  0  0
    0.2371   -0.1238    0.3787 C   0  0  1  0  0  0  0  0  0  0  0  0
    0.6697   -0.2286    1.3803 H   0  0  0  0  0  0  0  0  0  0  0  0
    1.2086   -0.7145   -0.6548 C   0  0  0  0  0  0  0  0  0  0  0  0
    0.7888   -0.6418   -1.6627 H   0  0  0  0  0  0  0  0  0  0  0  0
    2.1595   -0.1720   -0.6332 H   0  0  0  0  0  0  0  0  0  0  0  0
    1.4173   -1.7665   -0.4399 H   0  0  0  0  0  0  0  0  0  0  0  0
    0.0909    1.3885    0.0970 C   0  0  0  0  0  0  0  0  0  0  0  0
    0.9816    2.1592    0.4249 O   0  0  0  0  0  0  0  0  0  0  0  0
   -1.0620    1.9036   -0.4742 N   0  0  0  0  0  0  0  0  0  0  0  0
   -1.6730    1.2413   -0.9383 H   0  0  0  0  0  0  0  0  0  0  0  0
   -1.2085    3.3184   -0.7982 C   0  0  0  0  0  0  0  0  0  0  0  0
   -0.4487    3.6268   -1.5242 H   0  0  0  0  0  0  0  0  0  0  0  0
   -2.1969    3.5083   -1.2274 H   0  0  0  0  0  0  0  0  0  0  0  0
   -1.1024    3.9312    0.1034 H   0  0  0  0  0  0  0  0  0  0  0  0
  1  2  1  0  0  0  0
  2  3  1  0  0  0  0
  2  4  1  0  0  0  0
  2  5  1  0  0  0  0
  5  6  2  0  0  0  0
  5  7  1  0  0  0  0
  7  8  1  0  0  0  0
  7  9  1  0  0  0  0
  9 10  1  0  0  0  0
  9 11  1  0  0  0  0
  9 15  1  0  0  0  0
 11 12  1  0  0  0  0
 11 13  1  0  0  0  0
 11 14  1  0  0  0  0
 15 16  2  0  0  0  0
 15 17  1  0  0  0  0
 17 18  1  0  0  0  0
 17 19  1  0  0  0  0
 19 20  1  0  0  0  0
 19 21  1  0  0  0  0
 19 22  1  0  0  0  0
M  END
$$$$

  -OEChem-11182114133D

 22 21  0     1  0  0  0  0  0999 V2000
   -2.4933   -3.7580    1.2667 H   0  0  0  0  0  0  0  0  0  0  0  0
   -2.5258   -2.7946    0.7499 C   0  0  0  0  0  0  0  0  0  0  0  0
   -3.3826   -2.2265    1.1200 H   0  0  0  0  0  0  0  0  0  0  0  0
   -2.6496   -2.9748   -0.3207 H   0  0  0  0  0  0  0  0  0  0  0  0
   -1.2435   -2.0241    1.0031 C   0  0  0  0  0  0  0  0  0  0  0  0
   -0.3748   -2.5071    1.7087 O   0  0  0  0  0  0  0  0  0  0  0  0
   -1.0758   -0.7725    0.4416 N   0  0  0  0  0  0  0  0  0  0  0  0
   -1.7558   -0.5321   -0.2728 H   0  0  0  0  0  0  0  0  0  0  0  0
    0.2342   -0.0923    0.3794 C   0  0  1  0  0  0  0  0  0  0  0  0
    0.7257   -0.1684    1.3559 H   0  0  0  0  0  0  0  0  0  0  0  0
    1.1069   -0.7969   -0.6713 C   0  0  0  0  0  0  0  0  0  0  0  0
    0.6507   -0.7227   -1.6631 H   0  0  0  0  0  0  0  0  0  0  0  0
    2.1001   -0.3381   -0.7111 H   0  0  0  0  0  0  0  0  0  0  0  0
    1.2354   -1.8547   -0.4227 H   0  0  0  0  0  0  0  0  0  0  0  0
    0.1223    1.4172    0.0577 C   0  0  0  0  0  0  0  0  0  0  0  0
    1.1270    2.0912   -0.1224 O   0  0  0  0  0  0  0  0  0  0  0  0
   -1.1158    2.0061   -0.1381 N   0  0  0  0  0  0  0  0  0  0  0  0
   -1.9173    1.4870    0.2039 H   0  0  0  0  0  0  0  0  0  0  0  0
   -1.2774    3.4290   -0.4153 C   0  0  0  0  0  0  0  0  0  0  0  0
   -0.7487    3.7029   -1.3346 H   0  0  0  0  0  0  0  0  0  0  0  0
   -2.3366    3.6717   -0.5435 H   0  0  0  0  0  0  0  0  0  0  0  0
   -0.8807    4.0285    0.4108 H   0  0  0  0  0  0  0  0  0  0  0  0
  1  2  1  0  0  0  0
  2  3  1  0  0  0  0
  2  4  1  0  0  0  0
  2  5  1  0  0  0  0
  5  6  2  0  0  0  0
  5  7  1  0  0  0  0
  7  8  1  0  0  0  0
  7  9  1  0  0  0  0
  9 10  1  0  0  0  0
  9 11  1  0  0  0  0
  9 15  1  0  0  0  0
 11 12  1  0  0  0  0
 11 13  1  0  0  0  0
 11 14  1  0  0  0  0
 15 16  2  0  0  0  0
 15 17  1  0  0  0  0
 17 18  1  0  0  0  0
 17 19  1  0  0  0  0
 19 20  1  0  0  0  0
 19 21  1  0  0  0  0
 19 22  1  0  0  0  0
M  END
$$$$

  -OEChem-11182114133D

 22 21  0     1  0  0  0  0  0999 V2000
   -2.5041   -3.7474    1.2331 H   0  0  0  0  0  0  0  0  0  0  0  0
   -2.5363   -2.7724    0.7381 C   0  0  0  0  0  0  0  0  0  0  0  0
   -3.3835   -2.2060    1.1324 H   0  0  0  0  0  0  0  0  0  0  0  0
   -2.6761   -2.9280   -0.3344 H   0  0  0  0  0  0  0  0  0  0  0  0
   -1.2446   -2.0175    0.9898 C   0  0  0  0  0  0  0  0  0  0  0  0
   -0.3804   -2.5102    1.6945 O   0  0  0  0  0  0  0  0  0  0  0  0
   -1.0641   -0.7651    0.4349 N   0  0  0  0  0  0  0  0  0  0  0  0
   -1.7532   -0.4975   -0.2623 H   0  0  0  0  0  0  0  0  0  0  0  0
    0.2493   -0.0923    0.3739 C   0  0  1  0  0  0  0  0  0  0  0  0
    0.7397   -0.1699    1.3505 H   0  0  0  0  0  0  0  0  0  0  0  0
    1.1200   -0.8041   -0.6751 C   0  0  0  0  0  0  0  0  0  0  0  0
    0.6706   -0.7189   -1.6691 H   0  0  0  0  0  0  0  0  0  0  0  0
    2.1196   -0.3590   -0.7071 H   0  0  0  0  0  0  0  0  0  0  0  0
    1.2332   -1.8647   -0.4315 H   0  0  0  0  0  0  0  0  0  0  0  0
    0.1258    1.4179    0.0576 C   0  0  0  0  0  0  0  0  0  0  0  0
    1.0807    2.0606   -0.3569 O   0  0  0  0  0  0  0  0  0  0  0  0
   -1.1000    2.0505    0.1756 N   0  0  0  0  0  0  0  0  0  0  0  0
   -1.8191    1.5413    0.6801 H   0  0  0  0  0  0  0  0  0  0  0  0
   -1.2800    3.4806   -0.0462 C   0  0  0  0  0  0  0  0  0  0  0  0
   -0.9738    3.7530   -1.0619 H   0  0  0  0  0  0  0  0  0  0  0  0
   -2.3322    3.7534    0.0797 H   0  0  0  0  0  0  0  0  0  0  0  0
   -0.6832    4.0578    0.6680 H   0  0  0  0  0  0  0  0  0  0  0  0
  1  2  1  0  0  0  0
  2  3  1  0  0  0  0
  2  4  1  0  0  0  0
  2  5  1  0  0  0  0
  5  6  2  0  0  0  0
  5  7  1  0  0  0  0
  7  8  1  0  0  0  0
  7  9  1  0  0  0  0
  9 10  1  0  0  0  0
  9 11  1  0  0  0  0
  9 15  1  0  0  0  0
 11 12  1  0  0  0  0
 11 13  1  0  0  0  0
 11 14  1  0  0  0  0
 15 16  2  0  0  0  0
 15 17  1  0  0  0  0
 17 18  1  0  0  0  0
 17 19  1  0  0  0  0
 19 20  1  0  0  0  0
 19 21  1  0  0  0  0
 19 22  1  0  0  0  0
M  END
$$$$

  -OEChem-11182114133D

 22 21  0     1  0  0  0  0  0999 V2000
   -2.5052   -3.7490    1.1725 H   0  0  0  0  0  0  0  0  0  0  0  0
   -2.5504   -2.7493    0.7310 C   0  0  0  0  0  0  0  0  0  0  0  0
   -3.3799   -2.2014    1.1842 H   0  0  0  0  0  0  0  0  0  0  0  0
   -2.7291   -2.8480   -0.3424 H   0  0  0  0  0  0  0  0  0  0  0  0
   -1.2471   -2.0122    0.9751 C   0  0  0  0  0  0  0  0  0  0  0  0
   -0.3833   -2.5185    1.6707 O   0  0  0  0  0  0  0  0  0  0  0  0
   -1.0550   -0.7582    0.4283 N   0  0  0  0  0  0  0  0  0  0  0  0
   -1.7570   -0.4594   -0.2434 H   0  0  0  0  0  0  0  0  0  0  0  0
    0.2609   -0.0919    0.3717 C   0  0  1  0  0  0  0  0  0  0  0  0
    0.7484   -0.1712    1.3495 H   0  0  0  0  0  0  0  0  0  0  0  0
    1.1359   -0.8083   -0.6712 C   0  0  0  0  0  0  0  0  0  0  0  0
    0.6870   -0.7340   -1.6664 H   0  0  0  0  0  0  0  0  0  0  0  0
    2.1329   -0.3576   -0.7059 H   0  0  0  0  0  0  0  0  0  0  0  0
    1.2542   -1.8662   -0.4184 H   0  0  0  0  0  0  0  0  0  0  0  0
    0.1273    1.4189    0.0625 C   0  0  0  0  0  0  0  0  0  0  0  0
    0.9762    2.0257   -0.5769 O   0  0  0  0  0  0  0  0  0  0  0  0
   -1.0035    2.0998    0.4775 N   0  0  0  0  0  0  0  0  0  0  0  0
   -1.6234    1.6033    1.1112 H   0  0  0  0  0  0  0  0  0  0  0  0
   -1.1830    3.5353    0.2948 C   0  0  0  0  0  0  0  0  0  0  0  0
   -1.1243    3.7973   -0.7670 H   0  0  0  0  0  0  0  0  0  0  0  0
   -2.1622    3.8455    0.6715 H   0  0  0  0  0  0  0  0  0  0  0  0
   -0.4104    4.0901    0.8374 H   0  0  0  0  0  0  0  0  0  0  0  0
  1  2  1  0  0  0  0
  2  3  1  0  0  0  0
  2  4  1  0  0  0  0
  2  5  1  0  0  0  0
  5  6  2  0  0  0  0
  5  7  1  0  0  0  0
  7  8  1  0  0  0  0
  7  9  1  0  0  0  0
  9 10  1  0  0  0  0
  9 11  1  0  0  0  0
  9 15  1  0  0  0  0
 11 12  1  0  0  0  0
 11 13  1  0  0  0  0
 11 14  1  0  0  0  0
 15 16  2  0  0  0  0
 15 17  1  0  0  0  0
 17 18  1  0  0  0  0
 17 19  1  0  0  0  0
 19 20  1  0  0  0  0
 19 21  1  0  0  0  0
 19 22  1  0  0  0  0
M  END
$$$$

  -OEChem-11182114133D

 22 21  0     1  0  0  0  0  0999 V2000
   -2.5413   -3.7170    1.1645 H   0  0  0  0  0  0  0  0  0  0  0  0
   -2.5696   -2.7157    0.7254 C   0  0  0  0  0  0  0  0  0  0  0  0
   -3.3818   -2.1508    1.1891 H   0  0  0  0  0  0  0  0  0  0  0  0
   -2.7628   -2.8082   -0.3460 H   0  0  0  0  0  0  0  0  0  0  0  0
   -1.2480   -2.0075    0.9569 C   0  0  0  0  0  0  0  0  0  0  0  0
   -0.3862   -2.5347    1.6398 O   0  0  0  0  0  0  0  0  0  0  0  0
   -1.0398   -0.7508    0.4237 N   0  0  0  0  0  0  0  0  0  0  0  0
   -1.7501   -0.4201   -0.2242 H   0  0  0  0  0  0  0  0  0  0  0  0
    0.2799   -0.0946    0.3741 C   0  0  1  0  0  0  0  0  0  0  0  0
    0.7663   -0.1829    1.3516 H   0  0  0  0  0  0  0  0  0  0  0  0
    1.1562   -0.8072   -0.6703 C   0  0  0  0  0  0  0  0  0  0  0  0
    0.7047   -0.7363   -1.6646 H   0  0  0  0  0  0  0  0  0  0  0  0
    2.1503   -0.3502   -0.7072 H   0  0  0  0  0  0  0  0  0  0  0  0
    1.2802   -1.8643   -0.4168 H   0  0  0  0  0  0  0  0  0  0  0  0
    0.1389    1.4176    0.0785 C   0  0  0  0  0  0  0  0  0  0  0  0
    0.8158    1.9844   -0.7692 O   0  0  0  0  0  0  0  0  0  0  0  0
   -0.8207    2.1457    0.7585 N   0  0  0  0  0  0  0  0  0  0  0  0
   -1.3185    1.6652    1.5030 H   0  0  0  0  0  0  0  0  0  0  0  0
   -1.0086    3.5819    0.5906 C   0  0  0  0  0  0  0  0  0  0  0  0
   -1.2333    3.8200   -0.4546 H   0  0  0  0  0  0  0  0  0  0  0  0
   -1.8413    3.9298    1.2095 H   0  0  0  0  0  0  0  0  0  0  0  0
   -0.1047    4.1235    0.8889 H   0  0  0  0  0  0  0  0  0  0  0  0
  1  2  1  0  0  0  0
  2  3  1  0  0  0  0
  2  4  1  0  0  0  0
  2  5  1  0  0  0  0
  5  6  2  0  0  0  0
  5  7  1  0  0  0  0
  7  8  1  0  0  0  0
  7  9  1  0  0  0  0
  9 10  1  0  0  0  0
  9 11  1  0  0  0  0
  9 15  1  0  0  0  0
 11 12  1  0  0  0  0
 11 13  1  0  0  0  0
 11 14  1  0  0  0  0
 15 16  2  0  0  0  0
 15 17  1  0  0  0  0
 17 18  1  0  0  0  0
 17 19  1  0  0  0  0
 19 20  1  0  0  0  0
 19 21  1  0  0  0  0
 19 22  1  0  0  0  0
M  END
$$$$

  -OEChem-11182114133D

 22 21  0     1  0  0  0  0  0999 V2000
   -2.5583   -3.7004    1.1535 H   0  0  0  0  0  0  0  0  0  0  0  0
   -2.5769   -2.6985    0.7152 C   0  0  0  0  0  0  0  0  0  0  0  0
   -3.3864   -2.1273    1.1758 H   0  0  0  0  0  0  0  0  0  0  0  0
   -2.7663   -2.7885   -0.3572 H   0  0  0  0  0  0  0  0  0  0  0  0
   -1.2508   -2.0008    0.9521 C   0  0  0  0  0  0  0  0  0  0  0  0
   -0.3914   -2.5395    1.6295 O   0  0  0  0  0  0  0  0  0  0  0  0
   -1.0341   -0.7418    0.4286 N   0  0  0  0  0  0  0  0  0  0  0  0
   -1.7461   -0.3942   -0.2088 H   0  0  0  0  0  0  0  0  0  0  0  0
    0.2889   -0.0962    0.3829 C   0  0  1  0  0  0  0  0  0  0  0  0
    0.7785   -0.1965    1.3575 H   0  0  0  0  0  0  0  0  0  0  0  0
    1.1573   -0.8063   -0.6694 C   0  0  0  0  0  0  0  0  0  0  0  0
    0.6906   -0.7468   -1.6576 H   0  0  0  0  0  0  0  0  0  0  0  0
    2.1453   -0.3384   -0.7235 H   0  0  0  0  0  0  0  0  0  0  0  0
    1.2951   -1.8606   -0.4114 H   0  0  0  0  0  0  0  0  0  0  0  0
    0.1528    1.4175    0.0991 C   0  0  0  0  0  0  0  0  0  0  0  0
    0.6119    1.9378   -0.9094 O   0  0  0  0  0  0  0  0  0  0  0  0
   -0.5641    2.2009    0.9844 N   0  0  0  0  0  0  0  0  0  0  0  0
   -0.9282    1.7451    1.8167 H   0  0  0  0  0  0  0  0  0  0  0  0
   -0.7507    3.6374    0.8200 C   0  0  0  0  0  0  0  0  0  0  0  0
   -1.2564    3.8528   -0.1271 H   0  0  0  0  0  0  0  0  0  0  0  0
   -1.3619    4.0355    1.6355 H   0  0  0  0  0  0  0  0  0  0  0  0
    0.2158    4.1520    0.8284 H   0  0  0  0  0  0  0  0  0  0  0  0
  1  2  1  0  0  0  0
  2  3  1  0  0  0  0
  2  4  1  0  0  0  0
  2  5  1  0  0  0  0
  5  6  2  0  0  0  0
  5  7  1  0  0  0  0
  7  8  1  0  0  0  0
  7  9  1  0  0  0  0
  9 10  1  0  0  0  0
  9 11  1  0  0  0  0
  9 15  1  0  0  0  0
 11 12  1  0  0  0  0
 11 13  1  0  0  0  0
 11 14  1  0  0  0  0
 15 16  2  0  0  0  0
 15 17  1  0  0  0  0
 17 18  1  0  0  0  0
 17 19  1  0  0  0  0
 19 20  1  0  0  0  0
 19 21  1  0  0  0  0
 19 22  1  0  0  0  0
M  END
$$$$

  -OEChem-11182114133D

 22 21  0     1  0  0  0  0  0999 V2000
   -2.5835   -3.6792    1.1502 H   0  0  0  0  0  0  0  0  0  0  0  0
   -2.5907   -2.6773    0.7116 C   0  0  0  0  0  0  0  0  0  0  0  0
   -3.3924   -2.0964    1.1741 H   0  0  0  0  0  0  0  0  0  0  0  0
   -2.7837   -2.7649   -0.3603 H   0  0  0  0  0  0  0  0  0  0  0  0
   -1.2551   -1.9962    0.9452 C   0  0  0  0  0  0  0  0  0  0  0  0
   -0.3982   -2.5487    1.6151 O   0  0  0  0  0  0  0  0  0  0  0  0
   -1.0260   -0.7362    0.4300 N   0  0  0  0  0  0  0  0  0  0  0  0
   -1.7356   -0.3734   -0.2020 H   0  0  0  0  0  0  0  0  0  0  0  0
    0.3009   -0.1011    0.3904 C   0  0  1  0  0  0  0  0  0  0  0  0
    0.7911   -0.2136    1.3633 H   0  0  0  0  0  0  0  0  0  0  0  0
    1.1665   -0.8032   -0.6688 C   0  0  0  0  0  0  0  0  0  0  0  0
    0.6905   -0.7513   -1.6531 H   0  0  0  0  0  0  0  0  0  0  0  0
    2.1486   -0.3245   -0.7328 H   0  0  0  0  0  0  0  0  0  0  0  0
    1.3165   -1.8556   -0.4098 H   0  0  0  0  0  0  0  0  0  0  0  0
    0.1729    1.4138    0.1153 C   0  0  0  0  0  0  0  0  0  0  0  0
    0.3644    1.8883   -0.9970 O   0  0  0  0  0  0  0  0  0  0  0  0
   -0.2566    2.2469    1.1315 N   0  0  0  0  0  0  0  0  0  0  0  0
   -0.4440    1.8206    2.0349 H   0  0  0  0  0  0  0  0  0  0  0  0
   -0.4473    3.6831    0.9700 C   0  0  0  0  0  0  0  0  0  0  0  0
   -1.1928    3.8869    0.1943 H   0  0  0  0  0  0  0  0  0  0  0  0
   -0.7951    4.1261    1.9082 H   0  0  0  0  0  0  0  0  0  0  0  0
    0.4949    4.1651    0.6886 H   0  0  0  0  0  0  0  0  0  0  0  0
  1  2  1  0  0  0  0
  2  3  1  0  0  0  0
  2  4  1  0  0  0  0
  2  5  1  0  0  0  0
  5  6  2  0  0  0  0
  5  7  1  0  0  0  0
  7  8  1  0  0  0  0
  7  9  1  0  0  0  0
  9 10  1  0  0  0  0
  9 11  1  0  0  0  0
  9 15  1  0  0  0  0
 11 12  1  0  0  0  0
 11 13  1  0  0  0  0
 11 14  1  0  0  0  0
 15 16  2  0  0  0  0
 15 17  1  0  0  0  0
 17 18  1  0  0  0  0
 17 19  1  0  0  0  0
 19 20  1  0  0  0  0
 19 21  1  0  0  0  0
 19 22  1  0  0  0  0
M  END
$$$$

  -OEChem-11182114133D

 22 21  0     1  0  0  0  0  0999 V2000
   -2.6047   -3.6637    1.1416 H   0  0  0  0  0  0  0  0  0  0  0  0
   -2.6008   -2.6601    0.7070 C   0  0  0  0  0  0  0  0  0  0  0  0
   -3.3986   -2.0732    1.1683 H   0  0  0  0  0  0  0  0  0  0  0  0
   -2.7906   -2.7414   -0.3659 H   0  0  0  0  0  0  0  0  0  0  0  0
   -1.2602   -1.9920    0.9477 C   0  0  0  0  0  0  0  0  0  0  0  0
   -0.4075   -2.5559    1.6140 O   0  0  0  0  0  0  0  0  0  0  0  0
   -1.0185   -0.7331    0.4368 N   0  0  0  0  0  0  0  0  0  0  0  0
   -1.7252   -0.3562   -0.1907 H   0  0  0  0  0  0  0  0  0  0  0  0
    0.3118   -0.1079    0.4000 C   0  0  1  0  0  0  0  0  0  0  0  0
    0.8035   -0.2331    1.3706 H   0  0  0  0  0  0  0  0  0  0  0  0
    1.1707   -0.8008   -0.6695 C   0  0  0  0  0  0  0  0  0  0  0  0
    0.6865   -0.7459   -1.6498 H   0  0  0  0  0  0  0  0  0  0  0  0
    2.1504   -0.3181   -0.7395 H   0  0  0  0  0  0  0  0  0  0  0  0
    1.3254   -1.8542   -0.4168 H   0  0  0  0  0  0  0  0  0  0  0  0
    0.1962    1.4076    0.1288 C   0  0  0  0  0  0  0  0  0  0  0  0
    0.0945    1.8411   -1.0119 O   0  0  0  0  0  0  0  0  0  0  0  0
    0.0816    2.2849    1.1912 N   0  0  0  0  0  0  0  0  0  0  0  0
    0.0984    1.8902    2.1275 H   0  0  0  0  0  0  0  0  0  0  0  0
   -0.1133    3.7208    1.0304 C   0  0  0  0  0  0  0  0  0  0  0  0
   -1.0378    3.9234    0.4797 H   0  0  0  0  0  0  0  0  0  0  0  0
   -0.1809    4.2052    2.0092 H   0  0  0  0  0  0  0  0  0  0  0  0
    0.7265    4.1627    0.4838 H   0  0  0  0  0  0  0  0  0  0  0  0
  1  2  1  0  0  0  0
  2  3  1  0  0  0  0
  2  4  1  0  0  0  0
  2  5  1  0  0  0  0
  5  6  2  0  0  0  0
  5  7  1  0  0  0  0
  7  8  1  0  0  0  0
  7  9  1  0  0  0  0
  9 10  1  0  0  0  0
  9 11  1  0  0  0  0
  9 15  1  0  0  0  0
 11 12  1  0  0  0  0
 11 13  1  0  0  0  0
 11 14  1  0  0  0  0
 15 16  2  0  0  0  0
 15 17  1  0  0  0  0
 17 18  1  0  0  0  0
 17 19  1  0  0  0  0
 19 20  1  0  0  0  0
 19 21  1  0  0  0  0
 19 22  1  0  0  0  0
M  END
$$$$

  -OEChem-11182114133D

 22 21  0     1  0  0  0  0  0999 V2000
   -2.6252   -3.6493    1.1510 H   0  0  0  0  0  0  0  0  0  0  0  0
   -2.6121   -2.6477    0.7118 C   0  0  0  0  0  0  0  0  0  0  0  0
   -3.4019   -2.0502    1.1734 H   0  0  0  0  0  0  0  0  0  0  0  0
   -2.8065   -2.7315   -0.3601 H   0  0  0  0  0  0  0  0  0  0  0  0
   -1.2632   -1.9933    0.9440 C   0  0  0  0  0  0  0  0  0  0  0  0
   -0.4078   -2.5713    1.5949 O   0  0  0  0  0  0  0  0  0  0  0  0
   -1.0119   -0.7361    0.4345 N   0  0  0  0  0  0  0  0  0  0  0  0
   -1.7222   -0.3385   -0.1766 H   0  0  0  0  0  0  0  0  0  0  0  0
    0.3187   -0.1137    0.4042 C   0  0  1  0  0  0  0  0  0  0  0  0
    0.8051   -0.2450    1.3764 H   0  0  0  0  0  0  0  0  0  0  0  0
    1.1802   -0.7953   -0.6682 C   0  0  0  0  0  0  0  0  0  0  0  0
    0.7014   -0.7243   -1.6501 H   0  0  0  0  0  0  0  0  0  0  0  0
    2.1626   -0.3167   -0.7259 H   0  0  0  0  0  0  0  0  0  0  0  0
    1.3278   -1.8527   -0.4289 H   0  0  0  0  0  0  0  0  0  0  0  0
    0.2088    1.4005    0.1309 C   0  0  0  0  0  0  0  0  0  0  0  0
   -0.1649    1.8079   -0.9621 O   0  0  0  0  0  0  0  0  0  0  0  0
    0.4016    2.3063    1.1575 N   0  0  0  0  0  0  0  0  0  0  0  0
    0.6361    1.9342    2.0735 H   0  0  0  0  0  0  0  0  0  0  0  0
    0.2301    3.7457    1.0010 C   0  0  0  0  0  0  0  0  0  0  0  0
   -0.8006    3.9808    0.7153 H   0  0  0  0  0  0  0  0  0  0  0  0
    0.4534    4.2570    1.9424 H   0  0  0  0  0  0  0  0  0  0  0  0
    0.9063    4.1305    0.2302 H   0  0  0  0  0  0  0  0  0  0  0  0
  1  2  1  0  0  0  0
  2  3  1  0  0  0  0
  2  4  1  0  0  0  0
  2  5  1  0  0  0  0
  5  6  2  0  0  0  0
  5  7  1  0  0  0  0
  7  8  1  0  0  0  0
  7  9  1  0  0  0  0
  9 10  1  0  0  0  0
  9 11  1  0  0  0  0
  9 15  1  0  0  0  0
 11 12  1  0  0  0  0
 11 13  1  0  0  0  0
 11 14  1  0  0  0  0
 15 16  2  0  0  0  0
 15 17  1  0  0  0  0
 17 18  1  0  0  0  0
 17 19  1  0  0  0  0
 19 20  1  0  0  0  0
 19 21  1  0  0  0  0
 19 22  1  0  0  0  0
M  END
$$$$

  -OEChem-11182114133D

 22 21  0     1  0  0  0  0  0999 V2000
   -2.6504   -3.6321    1.1674 H   0  0  0  0  0  0  0  0  0  0  0  0
   -2.6275   -2.6307    0.7284 C   0  0  0  0  0  0  0  0  0  0  0  0
   -3.3945   -2.0181    1.2084 H   0  0  0  0  0  0  0  0  0  0  0  0
   -2.8480   -2.7093   -0.3390 H   0  0  0  0  0  0  0  0  0  0  0  0
   -1.2613   -2.0026    0.9309 C   0  0  0  0  0  0  0  0  0  0  0  0
   -0.4003   -2.5996    1.5572 O   0  0  0  0  0  0  0  0  0  0  0  0
   -1.0006   -0.7469    0.4236 N   0  0  0  0  0  0  0  0  0  0  0  0
   -1.7224   -0.3184   -0.1532 H   0  0  0  0  0  0  0  0  0  0  0  0
    0.3278   -0.1212    0.4025 C   0  0  1  0  0  0  0  0  0  0  0  0
    0.8049   -0.2540    1.3789 H   0  0  0  0  0  0  0  0  0  0  0  0
    1.1986   -0.7893   -0.6693 C   0  0  0  0  0  0  0  0  0  0  0  0
    0.7293   -0.7024   -1.6545 H   0  0  0  0  0  0  0  0  0  0  0  0
    2.1830   -0.3132   -0.7100 H   0  0  0  0  0  0  0  0  0  0  0  0
    1.3404   -1.8506   -0.4435 H   0  0  0  0  0  0  0  0  0  0  0  0
    0.2168    1.3914    0.1257 C   0  0  0  0  0  0  0  0  0  0  0  0
   -0.3907    1.7904   -0.8609 O   0  0  0  0  0  0  0  0  0  0  0  0
    0.6922    2.3086    1.0446 N   0  0  0  0  0  0  0  0  0  0  0  0
    1.1360    1.9472    1.8840 H   0  0  0  0  0  0  0  0  0  0  0  0
    0.5517    3.7507    0.8838 C   0  0  0  0  0  0  0  0  0  0  0  0
   -0.5060    4.0303    0.8355 H   0  0  0  0  0  0  0  0  0  0  0  0
    1.0084    4.2718    1.7308 H   0  0  0  0  0  0  0  0  0  0  0  0
    1.0467    4.0838   -0.0345 H   0  0  0  0  0  0  0  0  0  0  0  0
  1  2  1  0  0  0  0
  2  3  1  0  0  0  0
  2  4  1  0  0  0  0
  2  5  1  0  0  0  0
  5  6  2  0  0  0  0
  5  7  1  0  0  0  0
  7  8  1  0  0  0  0
  7  9  1  0  0  0  0
  9 10  1  0  0  0  0
  9 11  1  0  0  0  0
  9 15  1  0  0  0  0
 11 12  1  0  0  0  0
 11 13  1  0  0  0  0
 11 14  1  0  0  0  0
 15 16  2  0  0  0  0
 15 17  1  0  0  0  0
 17 18  1  0  0  0  0
 17 19  1  0  0  0  0
 19 20  1  0  0  0  0
 19 21  1  0  0  0  0
 19 22  1  0  0  0  0
M  END
$$$$

  -OEChem-11182114133D

 22 21  0     1  0  0  0  0  0999 V2000
   -2.6644   -3.6233    1.1809 H   0  0  0  0  0  0  0  0  0  0  0  0
   -2.6376   -2.6210    0.7443 C   0  0  0  0  0  0  0  0  0  0  0  0
   -3.3866   -1.9999    1.2413 H   0  0  0  0  0  0  0  0  0  0  0  0
   -2.8808   -2.6935   -0.3184 H   0  0  0  0  0  0  0  0  0  0  0  0
   -1.2594   -2.0119    0.9195 C   0  0  0  0  0  0  0  0  0  0  0  0
   -0.3921   -2.6235    1.5230 O   0  0  0  0  0  0  0  0  0  0  0  0
   -0.9934   -0.7578    0.4119 N   0  0  0  0  0  0  0  0  0  0  0  0
   -1.7296   -0.2981   -0.1220 H   0  0  0  0  0  0  0  0  0  0  0  0
    0.3315   -0.1249    0.3990 C   0  0  1  0  0  0  0  0  0  0  0  0
    0.8009   -0.2543    1.3798 H   0  0  0  0  0  0  0  0  0  0  0  0
    1.2108   -0.7858   -0.6693 C   0  0  0  0  0  0  0  0  0  0  0  0
    0.7481   -0.6918   -1.6571 H   0  0  0  0  0  0  0  0  0  0  0  0
    2.1957   -0.3095   -0.6995 H   0  0  0  0  0  0  0  0  0  0  0  0
    1.3505   -1.8488   -0.4496 H   0  0  0  0  0  0  0  0  0  0  0  0
    0.2193    1.3868    0.1159 C   0  0  0  0  0  0  0  0  0  0  0  0
   -0.5771    1.7944   -0.7225 O   0  0  0  0  0  0  0  0  0  0  0  0
    0.9437    2.2968    0.8636 N   0  0  0  0  0  0  0  0  0  0  0  0
    1.5640    1.9309    1.5801 H   0  0  0  0  0  0  0  0  0  0  0  0
    0.8407    3.7403    0.6876 C   0  0  0  0  0  0  0  0  0  0  0  0
   -0.1853    4.0772    0.8699 H   0  0  0  0  0  0  0  0  0  0  0  0
    1.5030    4.2546    1.3906 H   0  0  0  0  0  0  0  0  0  0  0  0
    1.1298    4.0235   -0.3301 H   0  0  0  0  0  0  0  0  0  0  0  0
  1  2  1  0  0  0  0
  2  3  1  0  0  0  0
  2  4  1  0  0  0  0
  2  5  1  0  0  0  0
  5  6  2  0  0  0  0
  5  7  1  0  0  0  0
  7  8  1  0  0  0  0
  7  9  1  0  0  0  0
  9 10  1  0  0  0  0
  9 11  1  0  0  0  0
  9 15  1  0  0  0  0
 11 12  1  0  0  0  0
 11 13  1  0  0  0  0
 11 14  1  0  0  0  0
 15 16  2  0  0  0  0
 15 17  1  0  0  0  0
 17 18  1  0  0  0  0
 17 19  1  0  0  0  0
 19 20  1  0  0  0  0
 19 21  1  0  0  0  0
 19 22  1  0  0  0  0
M  END
$$$$

  -OEChem-11182114133D

 22 21  0     1  0  0  0  0  0999 V2000
   -2.6750   -3.6157    1.1993 H   0  0  0  0  0  0  0  0  0  0  0  0
   -2.6468   -2.6125    0.7648 C   0  0  0  0  0  0  0  0  0  0  0  0
   -3.3701   -1.9816    1.2870 H   0  0  0  0  0  0  0  0  0  0  0  0
   -2.9243   -2.6779   -0.2901 H   0  0  0  0  0  0  0  0  0  0  0  0
   -1.2549   -2.0243    0.8987 C   0  0  0  0  0  0  0  0  0  0  0  0
   -0.3787   -2.6511    1.4733 O   0  0  0  0  0  0  0  0  0  0  0  0
   -0.9870   -0.7705    0.3914 N   0  0  0  0  0  0  0  0  0  0  0  0
   -1.7414   -0.2774   -0.0850 H   0  0  0  0  0  0  0  0  0  0  0  0
    0.3330   -0.1266    0.3906 C   0  0  1  0  0  0  0  0  0  0  0  0
    0.7924   -0.2490    1.3771 H   0  0  0  0  0  0  0  0  0  0  0  0
    1.2249   -0.7843   -0.6698 C   0  0  0  0  0  0  0  0  0  0  0  0
    0.7709   -0.6923   -1.6617 H   0  0  0  0  0  0  0  0  0  0  0  0
    2.2087   -0.3058   -0.6915 H   0  0  0  0  0  0  0  0  0  0  0  0
    1.3664   -1.8468   -0.4491 H   0  0  0  0  0  0  0  0  0  0  0  0
    0.2188    1.3846    0.1013 C   0  0  0  0  0  0  0  0  0  0  0  0
   -0.7211    1.8157   -0.5583 O   0  0  0  0  0  0  0  0  0  0  0  0
    1.1413    2.2699    0.6280 N   0  0  0  0  0  0  0  0  0  0  0  0
    1.8920    1.8866    1.1954 H   0  0  0  0  0  0  0  0  0  0  0  0
    1.0728    3.7121    0.4259 C   0  0  0  0  0  0  0  0  0  0  0  0
    0.1272    4.1090    0.8104 H   0  0  0  0  0  0  0  0  0  0  0  0
    1.8944    4.2076    0.9523 H   0  0  0  0  0  0  0  0  0  0  0  0
    1.1492    3.9532   -0.6397 H   0  0  0  0  0  0  0  0  0  0  0  0
  1  2  1  0  0  0  0
  2  3  1  0  0  0  0
  2  4  1  0  0  0  0
  2  5  1  0  0  0  0
  5  6  2  0  0  0  0
  5  7  1  0  0  0  0
  7  8  1  0  0  0  0
  7  9  1  0  0  0  0
  9 10  1  0  0  0  0
  9 11  1  0  0  0  0
  9 15  1  0  0  0  0
 11 12  1  0  0  0  0
 11 13  1  0  0  0  0
 11 14  1  0  0  0  0
 15 16  2  0  0  0  0
 15 17  1  0  0  0  0
 17 18  1  0  0  0  0
 17 19  1  0  0  0  0
 19 20  1  0  0  0  0
 19 21  1  0  0  0  0
 19 22  1  0  0  0  0
M  END
$$$$

  -OEChem-11182114133D

 22 21  0     1  0  0  0  0  0999 V2000
   -2.6907   -3.6024    1.2141 H   0  0  0  0  0  0  0  0  0  0  0  0
   -2.6552   -2.5982    0.7825 C   0  0  0  0  0  0  0  0  0  0  0  0
   -3.3503   -1.9551    1.3275 H   0  0  0  0  0  0  0  0  0  0  0  0
   -2.9645   -2.6535   -0.2639 H   0  0  0  0  0  0  0  0  0  0  0  0
   -1.2489   -2.0372    0.8771 C   0  0  0  0  0  0  0  0  0  0  0  0
   -0.3664   -2.6842    1.4185 O   0  0  0  0  0  0  0  0  0  0  0  0
   -0.9766   -0.7839    0.3717 N   0  0  0  0  0  0  0  0  0  0  0  0
   -1.7491   -0.2529   -0.0299 H   0  0  0  0  0  0  0  0  0  0  0  0
    0.3396   -0.1319    0.3834 C   0  0  1  0  0  0  0  0  0  0  0  0
    0.7915   -0.2482    1.3741 H   0  0  0  0  0  0  0  0  0  0  0  0
    1.2413   -0.7895   -0.6699 C   0  0  0  0  0  0  0  0  0  0  0  0
    0.7980   -0.6918   -1.6660 H   0  0  0  0  0  0  0  0  0  0  0  0
    2.2280   -0.3171   -0.6799 H   0  0  0  0  0  0  0  0  0  0  0  0
    1.3764   -1.8534   -0.4523 H   0  0  0  0  0  0  0  0  0  0  0  0
    0.2190    1.3792    0.0889 C   0  0  0  0  0  0  0  0  0  0  0  0
   -0.8247    1.8394   -0.3626 O   0  0  0  0  0  0  0  0  0  0  0  0
    1.2756    2.2317    0.3521 N   0  0  0  0  0  0  0  0  0  0  0  0
    2.1242    1.8260    0.7358 H   0  0  0  0  0  0  0  0  0  0  0  0
    1.2230    3.6690    0.1138 C   0  0  0  0  0  0  0  0  0  0  0  0
    0.3954    4.1203    0.6714 H   0  0  0  0  0  0  0  0  0  0  0  0
    2.1554    4.1406    0.4387 H   0  0  0  0  0  0  0  0  0  0  0  0
    1.0834    3.8753   -0.9526 H   0  0  0  0  0  0  0  0  0  0  0  0
  1  2  1  0  0  0  0
  2  3  1  0  0  0  0
  2  4  1  0  0  0  0
  2  5  1  0  0  0  0
  5  6  2  0  0  0  0
  5  7  1  0  0  0  0
  7  8  1  0  0  0  0
  7  9  1  0  0  0  0
  9 10  1  0  0  0  0
  9 11  1  0  0  0  0
  9 15  1  0  0  0  0
 11 12  1  0  0  0  0
 11 13  1  0  0  0  0
 11 14  1  0  0  0  0
 15 16  2  0  0  0  0
 15 17  1  0  0  0  0
 17 18  1  0  0  0  0
 17 19  1  0  0  0  0
 19 20  1  0  0  0  0
 19 21  1  0  0  0  0
 19 22  1  0  0  0  0
M  END
$$$$

  -OEChem-11182114133D

 22 21  0     1  0  0  0  0  0999 V2000
   -2.6868   -3.5615    1.2840 H   0  0  0  0  0  0  0  0  0  0  0  0
   -2.6592   -2.5676    0.8288 C   0  0  0  0  0  0  0  0  0  0  0  0
   -3.2761   -1.8904    1.4244 H   0  0  0  0  0  0  0  0  0  0  0  0
   -3.0698   -2.6309   -0.1817 H   0  0  0  0  0  0  0  0  0  0  0  0
   -1.2320   -2.0564    0.7757 C   0  0  0  0  0  0  0  0  0  0  0  0
   -0.3162   -2.7548    1.1814 O   0  0  0  0  0  0  0  0  0  0  0  0
   -0.9732   -0.7983    0.2745 N   0  0  0  0  0  0  0  0  0  0  0  0
   -1.7759   -0.1965    0.0922 H   0  0  0  0  0  0  0  0  0  0  0  0
    0.3363   -0.1361    0.3414 C   0  0  1  0  0  0  0  0  0  0  0  0
    0.8659   -0.4559    1.2454 H   0  0  0  0  0  0  0  0  0  0  0  0
    1.1452   -0.5532   -0.8926 C   0  0  0  0  0  0  0  0  0  0  0  0
    0.6451   -0.2201   -1.8076 H   0  0  0  0  0  0  0  0  0  0  0  0
    2.1484   -0.1184   -0.8641 H   0  0  0  0  0  0  0  0  0  0  0  0
    1.2471   -1.6424   -0.9292 H   0  0  0  0  0  0  0  0  0  0  0  0
    0.1925    1.4010    0.4148 C   0  0  0  0  0  0  0  0  0  0  0  0
   -0.9198    1.9183    0.3929 O   0  0  0  0  0  0  0  0  0  0  0  0
    1.3110    2.2119    0.4852 N   0  0  0  0  0  0  0  0  0  0  0  0
    2.2198    1.7587    0.5041 H   0  0  0  0  0  0  0  0  0  0  0  0
    1.2455    3.6674    0.5408 C   0  0  0  0  0  0  0  0  0  0  0  0
    0.6845    3.9932    1.4231 H   0  0  0  0  0  0  0  0  0  0  0  0
    2.2537    4.0894    0.5977 H   0  0  0  0  0  0  0  0  0  0  0  0
    0.7553    4.0634   -0.3549 H   0  0  0  0  0  0  0  0  0  0  0  0
  1  2  1  0  0  0  0
  2  3  1  0  0  0  0
  2  4  1  0  0  0  0
  2  5  1  0  0  0  0
  5  6  2  0  0  0  0
  5  7  1  0  0  0  0
  7  8  1  0  0  0  0
  7  9  1  0  0  0  0
  9 10  1  0  0  0  0
  9 11  1  0  0  0  0
  9 15  1  0  0  0  0
 11 12  1  0  0  0  0
 11 13  1  0  0  0  0
 11 14  1  0  0  0  0
 15 16  2  0  0  0  0
 15 17  1  0  0  0  0
 17 18  1  0  0  0  0
 17 19  1  0  0  0  0
 19 20  1  0  0  0  0
 19 21  1  0  0  0  0
 19 22  1  0  0  0  0
M  END
$$$$

  -OEChem-11182114133D

 22 21  0     1  0  0  0  0  0999 V2000
   -2.6880   -3.5471    1.3044 H   0  0  0  0  0  0  0  0  0  0  0  0
   -2.6607   -2.5555    0.8440 C   0  0  0  0  0  0  0  0  0  0  0  0
   -3.2566   -1.8693    1.4505 H   0  0  0  0  0  0  0  0  0  0  0  0
   -3.0957   -2.6191   -0.1563 H   0  0  0  0  0  0  0  0  0  0  0  0
   -1.2299   -2.0594    0.7549 C   0  0  0  0  0  0  0  0  0  0  0  0
   -0.3121   -2.7697    1.1345 O   0  0  0  0  0  0  0  0  0  0  0  0
   -0.9723   -0.8009    0.2532 N   0  0  0  0  0  0  0  0  0  0  0  0
   -1.7768   -0.1875    0.1261 H   0  0  0  0  0  0  0  0  0  0  0  0
    0.3383   -0.1410    0.3312 C   0  0  1  0  0  0  0  0  0  0  0  0
    0.8583   -0.4570    1.2420 H   0  0  0  0  0  0  0  0  0  0  0  0
    1.1604   -0.5719   -0.8913 C   0  0  0  0  0  0  0  0  0  0  0  0
    0.6850   -0.2229   -1.8134 H   0  0  0  0  0  0  0  0  0  0  0  0
    2.1740   -0.1641   -0.8422 H   0  0  0  0  0  0  0  0  0  0  0  0
    1.2371   -1.6632   -0.9322 H   0  0  0  0  0  0  0  0  0  0  0  0
    0.1892    1.3973    0.4031 C   0  0  0  0  0  0  0  0  0  0  0  0
   -0.9120    1.8959    0.6111 O   0  0  0  0  0  0  0  0  0  0  0  0
    1.2684    2.2331    0.1768 N   0  0  0  0  0  0  0  0  0  0  0  0
    2.1671    1.7993   -0.0118 H   0  0  0  0  0  0  0  0  0  0  0  0
    1.1762    3.6881    0.1962 C   0  0  0  0  0  0  0  0  0  0  0  0
    0.8389    4.0383    1.1774 H   0  0  0  0  0  0  0  0  0  0  0  0
    2.1548    4.1318   -0.0108 H   0  0  0  0  0  0  0  0  0  0  0  0
    0.4707    4.0379   -0.5648 H   0  0  0  0  0  0  0  0  0  0  0  0
  1  2  1  0  0  0  0
  2  3  1  0  0  0  0
  2  4  1  0  0  0  0
  2  5  1  0  0  0  0
  5  6  2  0  0  0  0
  5  7  1  0  0  0  0
  7  8  1  0  0  0  0
  7  9  1  0  0  0  0
  9 10  1  0  0  0  0
  9 11  1  0  0  0  0
  9 15  1  0  0  0  0
 11 12  1  0  0  0  0
 11 13  1  0  0  0  0
 11 14  1  0  0  0  0
 15 16  2  0  0  0  0
 15 17  1  0  0  0  0
 17 18  1  0  0  0  0
 17 19  1  0  0  0  0
 19 20  1  0  0  0  0
 19 21  1  0  0  0  0
 19 22  1  0  0  0  0
M  END
$$$$

  -OEChem-11182114133D

 22 21  0     1  0  0  0  0  0999 V2000
   -2.6871   -3.5329    1.3248 H   0  0  0  0  0  0  0  0  0  0  0  0
   -2.6620   -2.5438    0.8590 C   0  0  0  0  0  0  0  0  0  0  0  0
   -3.2389   -1.8499    1.4751 H   0  0  0  0  0  0  0  0  0  0  0  0
   -3.1193   -2.6083   -0.1312 H   0  0  0  0  0  0  0  0  0  0  0  0
   -1.2293   -2.0601    0.7364 C   0  0  0  0  0  0  0  0  0  0  0  0
   -0.3094   -2.7814    1.0890 O   0  0  0  0  0  0  0  0  0  0  0  0
   -0.9737   -0.8015    0.2331 N   0  0  0  0  0  0  0  0  0  0  0  0
   -1.7785   -0.1815    0.1500 H   0  0  0  0  0  0  0  0  0  0  0  0
    0.3385   -0.1449    0.3195 C   0  0  1  0  0  0  0  0  0  0  0  0
    0.8480   -0.4556    1.2382 H   0  0  0  0  0  0  0  0  0  0  0  0
    1.1772   -0.5913   -0.8873 C   0  0  0  0  0  0  0  0  0  0  0  0
    0.7231   -0.2423   -1.8202 H   0  0  0  0  0  0  0  0  0  0  0  0
    2.1950   -0.1968   -0.8193 H   0  0  0  0  0  0  0  0  0  0  0  0
    1.2419   -1.6836   -0.9216 H   0  0  0  0  0  0  0  0  0  0  0  0
    0.1846    1.3938    0.3895 C   0  0  0  0  0  0  0  0  0  0  0  0
   -0.8562    1.8779    0.8204 O   0  0  0  0  0  0  0  0  0  0  0  0
    1.1515    2.2451   -0.1169 N   0  0  0  0  0  0  0  0  0  0  0  0
    1.9923    1.8252   -0.5016 H   0  0  0  0  0  0  0  0  0  0  0  0
    1.0208    3.6973   -0.1228 C   0  0  0  0  0  0  0  0  0  0  0  0
    0.9242    4.0769    0.8999 H   0  0  0  0  0  0  0  0  0  0  0  0
    1.9040    4.1547   -0.5791 H   0  0  0  0  0  0  0  0  0  0  0  0
    0.1391    4.0012   -0.6969 H   0  0  0  0  0  0  0  0  0  0  0  0
  1  2  1  0  0  0  0
  2  3  1  0  0  0  0
  2  4  1  0  0  0  0
  2  5  1  0  0  0  0
  5  6  2  0  0  0  0
  5  7  1  0  0  0  0
  7  8  1  0  0  0  0
  7  9  1  0  0  0  0
  9 10  1  0  0  0  0
  9 11  1  0  0  0  0
  9 15  1  0  0  0  0
 11 12  1  0  0  0  0
 11 13  1  0  0  0  0
 11 14  1  0  0  0  0
 15 16  2  0  0  0  0
 15 17  1  0  0  0  0
 17 18  1  0  0  0  0
 17 19  1  0  0  0  0
 19 20  1  0  0  0  0
 19 21  1  0  0  0  0
 19 22  1  0  0  0  0
M  END
$$$$

  -OEChem-11182114133D

 22 21  0     1  0  0  0  0  0999 V2000
   -2.6844   -3.5275    1.3338 H   0  0  0  0  0  0  0  0  0  0  0  0
   -2.6619   -2.5386    0.8675 C   0  0  0  0  0  0  0  0  0  0  0  0
   -3.2304   -1.8433    1.4898 H   0  0  0  0  0  0  0  0  0  0  0  0
   -3.1299   -2.6025   -0.1178 H   0  0  0  0  0  0  0  0  0  0  0  0
   -1.2294   -2.0587    0.7299 C   0  0  0  0  0  0  0  0  0  0  0  0
   -0.3085   -2.7839    1.0713 O   0  0  0  0  0  0  0  0  0  0  0  0
   -0.9768   -0.8005    0.2234 N   0  0  0  0  0  0  0  0  0  0  0  0
   -1.7830   -0.1811    0.1607 H   0  0  0  0  0  0  0  0  0  0  0  0
    0.3365   -0.1457    0.3115 C   0  0  1  0  0  0  0  0  0  0  0  0
    0.8396   -0.4505    1.2359 H   0  0  0  0  0  0  0  0  0  0  0  0
    1.1881   -0.6040   -0.8826 C   0  0  0  0  0  0  0  0  0  0  0  0
    0.7330   -0.2851   -1.8256 H   0  0  0  0  0  0  0  0  0  0  0  0
    2.1986   -0.1900   -0.8172 H   0  0  0  0  0  0  0  0  0  0  0  0
    1.2726   -1.6953   -0.8923 H   0  0  0  0  0  0  0  0  0  0  0  0
    0.1783    1.3924    0.3790 C   0  0  0  0  0  0  0  0  0  0  0  0
   -0.7497    1.8699    1.0207 O   0  0  0  0  0  0  0  0  0  0  0  0
    0.9654    2.2446   -0.3762 N   0  0  0  0  0  0  0  0  0  0  0  0
    1.6974    1.8272   -0.9428 H   0  0  0  0  0  0  0  0  0  0  0  0
    0.7957    3.6927   -0.3950 C   0  0  0  0  0  0  0  0  0  0  0  0
    0.9431    4.1083    0.6074 H   0  0  0  0  0  0  0  0  0  0  0  0
    1.5259    4.1500   -1.0696 H   0  0  0  0  0  0  0  0  0  0  0  0
   -0.2084    3.9578   -0.7423 H   0  0  0  0  0  0  0  0  0  0  0  0
  1  2  1  0  0  0  0
  2  3  1  0  0  0  0
  2  4  1  0  0  0  0
  2  5  1  0  0  0  0
  5  6  2  0  0  0  0
  5  7  1  0  0  0  0
  7  8  1  0  0  0  0
  7  9  1  0  0  0  0
  9 10  1  0  0  0  0
  9 11  1  0  0  0  0
  9 15  1  0  0  0  0
 11 12  1  0  0  0  0
 11 13  1  0  0  0  0
 11 14  1  0  0  0  0
 15 16  2  0  0  0  0
 15 17  1  0  0  0  0
 17 18  1  0  0  0  0
 17 19  1  0  0  0  0
 19 20  1  0  0  0  0
 19 21  1  0  0  0  0
 19 22  1  0  0  0  0
M  END
$$$$

  -OEChem-11182114133D

 22 21  0     1  0  0  0  0  0999 V2000
   -2.6827   -3.5323    1.3195 H   0  0  0  0  0  0  0  0  0  0  0  0
   -2.6614   -2.5327    0.8766 C   0  0  0  0  0  0  0  0  0  0  0  0
   -3.2133   -1.8487    1.5259 H   0  0  0  0  0  0  0  0  0  0  0  0
   -3.1476   -2.5696   -0.1011 H   0  0  0  0  0  0  0  0  0  0  0  0
   -1.2285   -2.0589    0.7242 C   0  0  0  0  0  0  0  0  0  0  0  0
   -0.3075   -2.7894    1.0531 O   0  0  0  0  0  0  0  0  0  0  0  0
   -0.9776   -0.8000    0.2181 N   0  0  0  0  0  0  0  0  0  0  0  0
   -1.7857   -0.1840    0.1579 H   0  0  0  0  0  0  0  0  0  0  0  0
    0.3361   -0.1465    0.3099 C   0  0  1  0  0  0  0  0  0  0  0  0
    0.8358   -0.4493    1.2370 H   0  0  0  0  0  0  0  0  0  0  0  0
    1.1946   -0.6058   -0.8786 C   0  0  0  0  0  0  0  0  0  0  0  0
    0.7217   -0.3294   -1.8262 H   0  0  0  0  0  0  0  0  0  0  0  0
    2.1897   -0.1531   -0.8312 H   0  0  0  0  0  0  0  0  0  0  0  0
    1.3176   -1.6933   -0.8600 H   0  0  0  0  0  0  0  0  0  0  0  0
    0.1762    1.3904    0.3780 C   0  0  0  0  0  0  0  0  0  0  0  0
   -0.5953    1.8720    1.1975 O   0  0  0  0  0  0  0  0  0  0  0  0
    0.7316    2.2287   -0.5735 N   0  0  0  0  0  0  0  0  0  0  0  0
    1.3189    1.8048   -1.2854 H   0  0  0  0  0  0  0  0  0  0  0  0
    0.5072    3.6692   -0.6067 C   0  0  0  0  0  0  0  0  0  0  0  0
    0.8610    4.1333    0.3200 H   0  0  0  0  0  0  0  0  0  0  0  0
    1.0481    4.1173   -1.4459 H   0  0  0  0  0  0  0  0  0  0  0  0
   -0.5590    3.8889   -0.7263 H   0  0  0  0  0  0  0  0  0  0  0  0
  1  2  1  0  0  0  0
  2  3  1  0  0  0  0
  2  4  1  0  0  0  0
  2  5  1  0  0  0  0
  5  6  2  0  0  0  0
  5  7  1  0  0  0  0
  7  8  1  0  0  0  0
  7  9  1  0  0  0  0
  9 10  1  0  0  0  0
  9 11  1  0  0  0  0
  9 15  1  0  0  0  0
 11 12  1  0  0  0  0
 11 13  1  0  0  0  0
 11 14  1  0  0  0  0
 15 16  2  0  0  0  0
 15 17  1  0  0  0  0
 17 18  1  0  0  0  0
 17 19  1  0  0  0  0
 19 20  1  0  0  0  0
 19 21  1  0  0  0  0
 19 22  1  0  0  0  0
M  END
$$$$

  -OEChem-11182114133D

 22 21  0     1  0  0  0  0  0999 V2000
   -2.6690   -3.5529    1.3133 H   0  0  0  0  0  0  0  0  0  0  0  0
   -2.6562   -2.5504    0.8763 C   0  0  0  0  0  0  0  0  0  0  0  0
   -3.2212   -1.8768    1.5253 H   0  0  0  0  0  0  0  0  0  0  0  0
   -3.1344   -2.5877   -0.1054 H   0  0  0  0  0  0  0  0  0  0  0  0
   -1.2275   -2.0592    0.7380 C   0  0  0  0  0  0  0  0  0  0  0  0
   -0.3015   -2.7796    1.0745 O   0  0  0  0  0  0  0  0  0  0  0  0
   -0.9857   -0.8001    0.2265 N   0  0  0  0  0  0  0  0  0  0  0  0
   -1.8007   -0.1970    0.1444 H   0  0  0  0  0  0  0  0  0  0  0  0
    0.3249   -0.1382    0.3123 C   0  0  1  0  0  0  0  0  0  0  0  0
    0.8294   -0.4351    1.2391 H   0  0  0  0  0  0  0  0  0  0  0  0
    1.1846   -0.5957   -0.8757 C   0  0  0  0  0  0  0  0  0  0  0  0
    0.6917   -0.3631   -1.8247 H   0  0  0  0  0  0  0  0  0  0  0  0
    2.1620   -0.1041   -0.8523 H   0  0  0  0  0  0  0  0  0  0  0  0
    1.3475   -1.6773   -0.8301 H   0  0  0  0  0  0  0  0  0  0  0  0
    0.1634    1.3974    0.3757 C   0  0  0  0  0  0  0  0  0  0  0  0
   -0.3861    1.9006    1.3458 O   0  0  0  0  0  0  0  0  0  0  0  0
    0.4401    2.2030   -0.7154 N   0  0  0  0  0  0  0  0  0  0  0  0
    0.8462    1.7586   -1.5334 H   0  0  0  0  0  0  0  0  0  0  0  0
    0.1956    3.6403   -0.7377 C   0  0  0  0  0  0  0  0  0  0  0  0
    0.7711    4.1389    0.0493 H   0  0  0  0  0  0  0  0  0  0  0  0
    0.4940    4.0604   -1.7029 H   0  0  0  0  0  0  0  0  0  0  0  0
   -0.8680    3.8505   -0.5836 H   0  0  0  0  0  0  0  0  0  0  0  0
  1  2  1  0  0  0  0
  2  3  1  0  0  0  0
  2  4  1  0  0  0  0
  2  5  1  0  0  0  0
  5  6  2  0  0  0  0
  5  7  1  0  0  0  0
  7  8  1  0  0  0  0
  7  9  1  0  0  0  0
  9 10  1  0  0  0  0
  9 11  1  0  0  0  0
  9 15  1  0  0  0  0
 11 12  1  0  0  0  0
 11 13  1  0  0  0  0
 11 14  1  0  0  0  0
 15 16  2  0  0  0  0
 15 17  1  0  0  0  0
 17 18  1  0  0  0  0
 17 19  1  0  0  0  0
 19 20  1  0  0  0  0
 19 21  1  0  0  0  0
 19 22  1  0  0  0  0
M  END
$$$$

  -OEChem-11182114133D

 22 21  0     1  0  0  0  0  0999 V2000
   -2.6476   -3.5753    1.3428 H   0  0  0  0  0  0  0  0  0  0  0  0
   -2.6466   -2.5869    0.8743 C   0  0  0  0  0  0  0  0  0  0  0  0
   -3.2412   -1.9068    1.4891 H   0  0  0  0  0  0  0  0  0  0  0  0
   -3.1013   -2.6659   -0.1162 H   0  0  0  0  0  0  0  0  0  0  0  0
   -1.2259   -2.0685    0.7520 C   0  0  0  0  0  0  0  0  0  0  0  0
   -0.2908   -2.7713    1.0992 O   0  0  0  0  0  0  0  0  0  0  0  0
   -1.0013   -0.8072    0.2368 N   0  0  0  0  0  0  0  0  0  0  0  0
   -1.8264   -0.2250    0.1193 H   0  0  0  0  0  0  0  0  0  0  0  0
    0.3012   -0.1276    0.3177 C   0  0  1  0  0  0  0  0  0  0  0  0
    0.8119   -0.4189    1.2430 H   0  0  0  0  0  0  0  0  0  0  0  0
    1.1654   -0.5705   -0.8712 C   0  0  0  0  0  0  0  0  0  0  0  0
    0.6598   -0.3658   -1.8196 H   0  0  0  0  0  0  0  0  0  0  0  0
    2.1255   -0.0451   -0.8606 H   0  0  0  0  0  0  0  0  0  0  0  0
    1.3638   -1.6456   -0.8132 H   0  0  0  0  0  0  0  0  0  0  0  0
    0.1314    1.4058    0.3780 C   0  0  0  0  0  0  0  0  0  0  0  0
   -0.1307    1.9447    1.4435 O   0  0  0  0  0  0  0  0  0  0  0  0
    0.1001    2.1689   -0.7765 N   0  0  0  0  0  0  0  0  0  0  0  0
    0.2985    1.6968   -1.6535 H   0  0  0  0  0  0  0  0  0  0  0  0
   -0.1182    3.6107   -0.7814 C   0  0  0  0  0  0  0  0  0  0  0  0
    0.6703    4.1193   -0.2166 H   0  0  0  0  0  0  0  0  0  0  0  0
   -0.1095    3.9913   -1.8072 H   0  0  0  0  0  0  0  0  0  0  0  0
   -1.0867    3.8539   -0.3316 H   0  0  0  0  0  0  0  0  0  0  0  0
  1  2  1  0  0  0  0
  2  3  1  0  0  0  0
  2  4  1  0  0  0  0
  2  5  1  0  0  0  0
  5  6  2  0  0  0  0
  5  7  1  0  0  0  0
  7  8  1  0  0  0  0
  7  9  1  0  0  0  0
  9 10  1  0  0  0  0
  9 11  1  0  0  0  0
  9 15  1  0  0  0  0
 11 12  1  0  0  0  0
 11 13  1  0  0  0  0
 11 14  1  0  0  0  0
 15 16  2  0  0  0  0
 15 17  1  0  0  0  0
 17 18  1  0  0  0  0
 17 19  1  0  0  0  0
 19 20  1  0  0  0  0
 19 21  1  0  0  0  0
 19 22  1  0  0  0  0
M  END
$$$$

  -OEChem-11182114133D

 22 21  0     1  0  0  0  0  0999 V2000
   -2.6343   -3.5991    1.3412 H   0  0  0  0  0  0  0  0  0  0  0  0
   -2.6407   -2.6112    0.8720 C   0  0  0  0  0  0  0  0  0  0  0  0
   -3.2469   -1.9373    1.4823 H   0  0  0  0  0  0  0  0  0  0  0  0
   -3.0873   -2.6965   -0.1216 H   0  0  0  0  0  0  0  0  0  0  0  0
   -1.2248   -2.0775    0.7603 C   0  0  0  0  0  0  0  0  0  0  0  0
   -0.2853   -2.7702    1.1146 O   0  0  0  0  0  0  0  0  0  0  0  0
   -1.0090   -0.8126    0.2499 N   0  0  0  0  0  0  0  0  0  0  0  0
   -1.8388   -0.2425    0.1112 H   0  0  0  0  0  0  0  0  0  0  0  0
    0.2893   -0.1232    0.3294 C   0  0  1  0  0  0  0  0  0  0  0  0
    0.8085   -0.4191    1.2490 H   0  0  0  0  0  0  0  0  0  0  0  0
    1.1512   -0.5396   -0.8696 C   0  0  0  0  0  0  0  0  0  0  0  0
    0.6413   -0.3244   -1.8132 H   0  0  0  0  0  0  0  0  0  0  0  0
    2.1058   -0.0045   -0.8550 H   0  0  0  0  0  0  0  0  0  0  0  0
    1.3608   -1.6133   -0.8284 H   0  0  0  0  0  0  0  0  0  0  0  0
    0.1103    1.4074    0.3961 C   0  0  0  0  0  0  0  0  0  0  0  0
    0.1534    1.9870    1.4713 O   0  0  0  0  0  0  0  0  0  0  0  0
   -0.2360    2.1228   -0.7367 N   0  0  0  0  0  0  0  0  0  0  0  0
   -0.2438    1.6205   -1.6194 H   0  0  0  0  0  0  0  0  0  0  0  0
   -0.4464    3.5657   -0.7400 C   0  0  0  0  0  0  0  0  0  0  0  0
    0.4646    4.0864   -0.4264 H   0  0  0  0  0  0  0  0  0  0  0  0
   -0.7121    3.9071   -1.7451 H   0  0  0  0  0  0  0  0  0  0  0  0
   -1.2591    3.8365   -0.0577 H   0  0  0  0  0  0  0  0  0  0  0  0
  1  2  1  0  0  0  0
  2  3  1  0  0  0  0
  2  4  1  0  0  0  0
  2  5  1  0  0  0  0
  5  6  2  0  0  0  0
  5  7  1  0  0  0  0
  7  8  1  0  0  0  0
  7  9  1  0  0  0  0
  9 10  1  0  0  0  0
  9 11  1  0  0  0  0
  9 15  1  0  0  0  0
 11 12  1  0  0  0  0
 11 13  1  0  0  0  0
 11 14  1  0  0  0  0
 15 16  2  0  0  0  0
 15 17  1  0  0  0  0
 17 18  1  0  0  0  0
 17 19  1  0  0  0  0
 19 20  1  0  0  0  0
 19 21  1  0  0  0  0
 19 22  1  0  0  0  0
M  END
$$$$

  -OEChem-11182114133D

 22 21  0     1  0  0  0  0  0999 V2000
   -2.6185   -3.6275    1.3358 H   0  0  0  0  0  0  0  0  0  0  0  0
   -2.6337   -2.6379    0.8702 C   0  0  0  0  0  0  0  0  0  0  0  0
   -3.2469   -1.9721    1.4821 H   0  0  0  0  0  0  0  0  0  0  0  0
   -3.0789   -2.7235   -0.1239 H   0  0  0  0  0  0  0  0  0  0  0  0
   -1.2227   -2.0905    0.7621 C   0  0  0  0  0  0  0  0  0  0  0  0
   -0.2779   -2.7758    1.1154 O   0  0  0  0  0  0  0  0  0  0  0  0
   -1.0180   -0.8204    0.2598 N   0  0  0  0  0  0  0  0  0  0  0  0
   -1.8530   -0.2581    0.1214 H   0  0  0  0  0  0  0  0  0  0  0  0
    0.2757   -0.1210    0.3438 C   0  0  1  0  0  0  0  0  0  0  0  0
    0.8004   -0.4249    1.2575 H   0  0  0  0  0  0  0  0  0  0  0  0
    1.1359   -0.5081   -0.8646 C   0  0  0  0  0  0  0  0  0  0  0  0
    0.6296   -0.2583   -1.8015 H   0  0  0  0  0  0  0  0  0  0  0  0
    2.0940    0.0200   -0.8317 H   0  0  0  0  0  0  0  0  0  0  0  0
    1.3374   -1.5839   -0.8562 H   0  0  0  0  0  0  0  0  0  0  0  0
    0.0907    1.4072    0.4209 C   0  0  0  0  0  0  0  0  0  0  0  0
    0.4368    2.0281    1.4149 O   0  0  0  0  0  0  0  0  0  0  0  0
   -0.5507    2.0779   -0.6058 N   0  0  0  0  0  0  0  0  0  0  0  0
   -0.7512    1.5488   -1.4491 H   0  0  0  0  0  0  0  0  0  0  0  0
   -0.7493    3.5224   -0.6135 C   0  0  0  0  0  0  0  0  0  0  0  0
    0.2139    4.0424   -0.5792 H   0  0  0  0  0  0  0  0  0  0  0  0
   -1.2751    3.8273   -1.5233 H   0  0  0  0  0  0  0  0  0  0  0  0
   -1.3473    3.8317    0.2502 H   0  0  0  0  0  0  0  0  0  0  0  0
  1  2  1  0  0  0  0
  2  3  1  0  0  0  0
  2  4  1  0  0  0  0
  2  5  1  0  0  0  0
  5  6  2  0  0  0  0
  5  7  1  0  0  0  0
  7  8  1  0  0  0  0
  7  9  1  0  0  0  0
  9 10  1  0  0  0  0
  9 11  1  0  0  0  0
  9 15  1  0  0  0  0
 11 12  1  0  0  0  0
 11 13  1  0  0  0  0
 11 14  1  0  0  0  0
 15 16  2  0  0  0  0
 15 17  1  0  0  0  0
 17 18  1  0  0  0  0
 17 19  1  0  0  0  0
 19 20  1  0  0  0  0
 19 21  1  0  0  0  0
 19 22  1  0  0  0  0
M  END
$$$$

  -OEChem-11182114133D

 22 21  0     1  0  0  0  0  0999 V2000
   -2.5939   -3.6866    1.2827 H   0  0  0  0  0  0  0  0  0  0  0  0
   -2.6232   -2.6776    0.8616 C   0  0  0  0  0  0  0  0  0  0  0  0
   -3.2414   -2.0470    1.5050 H   0  0  0  0  0  0  0  0  0  0  0  0
   -3.0723   -2.7248   -0.1333 H   0  0  0  0  0  0  0  0  0  0  0  0
   -1.2193   -2.1091    0.7706 C   0  0  0  0  0  0  0  0  0  0  0  0
   -0.2679   -2.7822    1.1289 O   0  0  0  0  0  0  0  0  0  0  0  0
   -1.0295   -0.8333    0.2762 N   0  0  0  0  0  0  0  0  0  0  0  0
   -1.8721   -0.2815    0.1458 H   0  0  0  0  0  0  0  0  0  0  0  0
    0.2568   -0.1182    0.3658 C   0  0  1  0  0  0  0  0  0  0  0  0
    0.7878   -0.4276    1.2742 H   0  0  0  0  0  0  0  0  0  0  0  0
    1.1126   -0.4779   -0.8527 C   0  0  0  0  0  0  0  0  0  0  0  0
    0.6092   -0.1890   -1.7802 H   0  0  0  0  0  0  0  0  0  0  0  0
    2.0768    0.0379   -0.8021 H   0  0  0  0  0  0  0  0  0  0  0  0
    1.3009   -1.5559   -0.8794 H   0  0  0  0  0  0  0  0  0  0  0  0
    0.0696    1.4092    0.4527 C   0  0  0  0  0  0  0  0  0  0  0  0
    0.6843    2.0668    1.2792 O   0  0  0  0  0  0  0  0  0  0  0  0
   -0.8255    2.0444   -0.3913 N   0  0  0  0  0  0  0  0  0  0  0  0
   -1.1879    1.4982   -1.1664 H   0  0  0  0  0  0  0  0  0  0  0  0
   -0.9964    3.4924   -0.4151 C   0  0  0  0  0  0  0  0  0  0  0  0
   -0.0597    3.9845   -0.6975 H   0  0  0  0  0  0  0  0  0  0  0  0
   -1.7675    3.7708   -1.1398 H   0  0  0  0  0  0  0  0  0  0  0  0
   -1.3029    3.8588    0.5704 H   0  0  0  0  0  0  0  0  0  0  0  0
  1  2  1  0  0  0  0
  2  3  1  0  0  0  0
  2  4  1  0  0  0  0
  2  5  1  0  0  0  0
  5  6  2  0  0  0  0
  5  7  1  0  0  0  0
  7  8  1  0  0  0  0
  7  9  1  0  0  0  0
  9 10  1  0  0  0  0
  9 11  1  0  0  0  0
  9 15  1  0  0  0  0
 11 12  1  0  0  0  0
 11 13  1  0  0  0  0
 11 14  1  0  0  0  0
 15 16  2  0  0  0  0
 15 17  1  0  0  0  0
 17 18  1  0  0  0  0
 17 19  1  0  0  0  0
 19 20  1  0  0  0  0
 19 21  1  0  0  0  0
 19 22  1  0  0  0  0
M  END
$$$$

  -OEChem-11182114133D

 22 21  0     1  0  0  0  0  0999 V2000
   -2.5733   -3.7076    1.3117 H   0  0  0  0  0  0  0  0  0  0  0  0
   -2.6109   -2.7120    0.8603 C   0  0  0  0  0  0  0  0  0  0  0  0
   -3.2422   -2.0705    1.4797 H   0  0  0  0  0  0  0  0  0  0  0  0
   -3.0506   -2.7946   -0.1364 H   0  0  0  0  0  0  0  0  0  0  0  0
   -1.2133   -2.1291    0.7640 C   0  0  0  0  0  0  0  0  0  0  0  0
   -0.2547   -2.7926    1.1208 O   0  0  0  0  0  0  0  0  0  0  0  0
   -1.0391   -0.8484    0.2755 N   0  0  0  0  0  0  0  0  0  0  0  0
   -1.8891   -0.3073    0.1567 H   0  0  0  0  0  0  0  0  0  0  0  0
    0.2411   -0.1202    0.3729 C   0  0  1  0  0  0  0  0  0  0  0  0
    0.7732   -0.4335    1.2789 H   0  0  0  0  0  0  0  0  0  0  0  0
    1.0965   -0.4681   -0.8493 C   0  0  0  0  0  0  0  0  0  0  0  0
    0.5917   -0.1685   -1.7726 H   0  0  0  0  0  0  0  0  0  0  0  0
    2.0610    0.0470   -0.7953 H   0  0  0  0  0  0  0  0  0  0  0  0
    1.2856   -1.5454   -0.8881 H   0  0  0  0  0  0  0  0  0  0  0  0
    0.0649    1.4095    0.4687 C   0  0  0  0  0  0  0  0  0  0  0  0
    0.8684    2.0843    1.0956 O   0  0  0  0  0  0  0  0  0  0  0  0
   -1.0176    2.0324   -0.1305 N   0  0  0  0  0  0  0  0  0  0  0  0
   -1.5352    1.4879   -0.8121 H   0  0  0  0  0  0  0  0  0  0  0  0
   -1.1869    3.4812   -0.1283 C   0  0  0  0  0  0  0  0  0  0  0  0
   -0.3466    3.9666   -0.6358 H   0  0  0  0  0  0  0  0  0  0  0  0
   -2.1110    3.7558   -0.6459 H   0  0  0  0  0  0  0  0  0  0  0  0
   -1.2432    3.8587    0.8983 H   0  0  0  0  0  0  0  0  0  0  0  0
  1  2  1  0  0  0  0
  2  3  1  0  0  0  0
  2  4  1  0  0  0  0
  2  5  1  0  0  0  0
  5  6  2  0  0  0  0
  5  7  1  0  0  0  0
  7  8  1  0  0  0  0
  7  9  1  0  0  0  0
  9 10  1  0  0  0  0
  9 11  1  0  0  0  0
  9 15  1  0  0  0  0
 11 12  1  0  0  0  0
 11 13  1  0  0  0  0
 11 14  1  0  0  0  0
 15 16  2  0  0  0  0
 15 17  1  0  0  0  0
 17 18  1  0  0  0  0
 17 19  1  0  0  0  0
 19 20  1  0  0  0  0
 19 21  1  0  0  0  0
 19 22  1  0  0  0  0
M  END
$$$$

  -OEChem-11182114133D

 22 21  0     1  0  0  0  0  0999 V2000
   -2.4909   -3.7880    1.2107 H   0  0  0  0  0  0  0  0  0  0  0  0
   -2.5366   -2.8076    0.7278 C   0  0  0  0  0  0  0  0  0  0  0  0
   -3.3784   -2.2500    1.1452 H   0  0  0  0  0  0  0  0  0  0  0  0
   -2.6963   -2.9515   -0.3434 H   0  0  0  0  0  0  0  0  0  0  0  0
   -1.2435   -2.0497    0.9644 C   0  0  0  0  0  0  0  0  0  0  0  0
   -0.3574   -2.5605    1.6271 O   0  0  0  0  0  0  0  0  0  0  0  0
   -1.0784   -0.7914    0.4170 N   0  0  0  0  0  0  0  0  0  0  0  0
   -1.7726   -0.5242   -0.2730 H   0  0  0  0  0  0  0  0  0  0  0  0
    0.2199   -0.0876    0.3922 C   0  0  1  0  0  0  0  0  0  0  0  0
    0.8081   -0.3736    1.2717 H   0  0  0  0  0  0  0  0  0  0  0  0
    0.9769   -0.5267   -0.8660 C   0  0  0  0  0  0  0  0  0  0  0  0
    0.4280   -0.2379   -1.7674 H   0  0  0  0  0  0  0  0  0  0  0  0
    1.9659   -0.0579   -0.8962 H   0  0  0  0  0  0  0  0  0  0  0  0
    1.1139   -1.6126   -0.8694 H   0  0  0  0  0  0  0  0  0  0  0  0
    0.1025    1.4525    0.4451 C   0  0  0  0  0  0  0  0  0  0  0  0
    1.1071    2.1377    0.5767 O   0  0  0  0  0  0  0  0  0  0  0  0
   -1.1057    2.0843    0.2034 N   0  0  0  0  0  0  0  0  0  0  0  0
   -1.9375    1.5072    0.2512 H   0  0  0  0  0  0  0  0  0  0  0  0
   -1.2595    3.5344    0.2342 C   0  0  0  0  0  0  0  0  0  0  0  0
   -0.5962    4.0060   -0.4988 H   0  0  0  0  0  0  0  0  0  0  0  0
   -2.2899    3.8114   -0.0076 H   0  0  0  0  0  0  0  0  0  0  0  0
   -1.0187    3.9245    1.2286 H   0  0  0  0  0  0  0  0  0  0  0  0
  1  2  1  0  0  0  0
  2  3  1  0  0  0  0
  2  4  1  0  0  0  0
  2  5  1  0  0  0  0
  5  6  2  0  0  0  0
  5  7  1  0  0  0  0
  7  8  1  0  0  0  0
  7  9  1  0  0  0  0
  9 10  1  0  0  0  0
  9 11  1  0  0  0  0
  9 15  1  0  0  0  0
 11 12  1  0  0  0  0
 11 13  1  0  0  0  0
 11 14  1  0  0  0  0
 15 16  2  0  0  0  0
 15 17  1  0  0  0  0
 17 18  1  0  0  0  0
 17 19  1  0  0  0  0
 19 20  1  0  0  0  0
 19 21  1  0  0  0  0
 19 22  1  0  0  0  0
M  END
$$$$

  -OEChem-11182114133D

 22 21  0     1  0  0  0  0  0999 V2000
   -2.4946   -3.7821    1.1757 H   0  0  0  0  0  0  0  0  0  0  0  0
   -2.5384   -2.7938    0.7090 C   0  0  0  0  0  0  0  0  0  0  0  0
   -3.3811   -2.2425    1.1330 H   0  0  0  0  0  0  0  0  0  0  0  0
   -2.6956   -2.9202   -0.3648 H   0  0  0  0  0  0  0  0  0  0  0  0
   -1.2451   -2.0410    0.9601 C   0  0  0  0  0  0  0  0  0  0  0  0
   -0.3676   -2.5526    1.6336 O   0  0  0  0  0  0  0  0  0  0  0  0
   -1.0704   -0.7828    0.4160 N   0  0  0  0  0  0  0  0  0  0  0  0
   -1.7641   -0.5034   -0.2712 H   0  0  0  0  0  0  0  0  0  0  0  0
    0.2322   -0.0875    0.3885 C   0  0  1  0  0  0  0  0  0  0  0  0
    0.8232   -0.3757    1.2652 H   0  0  0  0  0  0  0  0  0  0  0  0
    0.9791   -0.5351   -0.8741 C   0  0  0  0  0  0  0  0  0  0  0  0
    0.4328   -0.2331   -1.7729 H   0  0  0  0  0  0  0  0  0  0  0  0
    1.9763   -0.0845   -0.9064 H   0  0  0  0  0  0  0  0  0  0  0  0
    1.0970   -1.6232   -0.8826 H   0  0  0  0  0  0  0  0  0  0  0  0
    0.1087    1.4528    0.4459 C   0  0  0  0  0  0  0  0  0  0  0  0
    1.1005    2.1598    0.3325 O   0  0  0  0  0  0  0  0  0  0  0  0
   -1.1351    2.0562    0.5173 N   0  0  0  0  0  0  0  0  0  0  0  0
   -1.9101    1.4545    0.7757 H   0  0  0  0  0  0  0  0  0  0  0  0
   -1.3099    3.5012    0.6081 C   0  0  0  0  0  0  0  0  0  0  0  0
   -0.8532    3.9982   -0.2544 H   0  0  0  0  0  0  0  0  0  0  0  0
   -2.3745    3.7532    0.6249 H   0  0  0  0  0  0  0  0  0  0  0  0
   -0.8463    3.8865    1.5222 H   0  0  0  0  0  0  0  0  0  0  0  0
  1  2  1  0  0  0  0
  2  3  1  0  0  0  0
  2  4  1  0  0  0  0
  2  5  1  0  0  0  0
  5  6  2  0  0  0  0
  5  7  1  0  0  0  0
  7  8  1  0  0  0  0
  7  9  1  0  0  0  0
  9 10  1  0  0  0  0
  9 11  1  0  0  0  0
  9 15  1  0  0  0  0
 11 12  1  0  0  0  0
 11 13  1  0  0  0  0
 11 14  1  0  0  0  0
 15 16  2  0  0  0  0
 15 17  1  0  0  0  0
 17 18  1  0  0  0  0
 17 19  1  0  0  0  0
 19 20  1  0  0  0  0
 19 21  1  0  0  0  0
 19 22  1  0  0  0  0
M  END
$$$$

  -OEChem-11182114133D

 22 21  0     1  0  0  0  0  0999 V2000
   -2.5088   -3.7673    1.1454 H   0  0  0  0  0  0  0  0  0  0  0  0
   -2.5529   -2.7669    0.7054 C   0  0  0  0  0  0  0  0  0  0  0  0
   -3.3772   -2.2167    1.1654 H   0  0  0  0  0  0  0  0  0  0  0  0
   -2.7401   -2.8637   -0.3667 H   0  0  0  0  0  0  0  0  0  0  0  0
   -1.2444   -2.0357    0.9417 C   0  0  0  0  0  0  0  0  0  0  0  0
   -0.3680   -2.5602    1.6068 O   0  0  0  0  0  0  0  0  0  0  0  0
   -1.0576   -0.7760    0.4063 N   0  0  0  0  0  0  0  0  0  0  0  0
   -1.7653   -0.4639   -0.2528 H   0  0  0  0  0  0  0  0  0  0  0  0
    0.2480   -0.0871    0.3811 C   0  0  1  0  0  0  0  0  0  0  0  0
    0.8356   -0.3780    1.2589 H   0  0  0  0  0  0  0  0  0  0  0  0
    0.9978   -0.5415   -0.8783 C   0  0  0  0  0  0  0  0  0  0  0  0
    0.4599   -0.2328   -1.7798 H   0  0  0  0  0  0  0  0  0  0  0  0
    2.0002   -0.1021   -0.9045 H   0  0  0  0  0  0  0  0  0  0  0  0
    1.1040   -1.6307   -0.8870 H   0  0  0  0  0  0  0  0  0  0  0  0
    0.1145    1.4527    0.4480 C   0  0  0  0  0  0  0  0  0  0  0  0
    1.0329    2.1832    0.1017 O   0  0  0  0  0  0  0  0  0  0  0  0
   -1.0850    2.0264    0.8316 N   0  0  0  0  0  0  0  0  0  0  0  0
   -1.7693    1.4005    1.2452 H   0  0  0  0  0  0  0  0  0  0  0  0
   -1.2702    3.4657    0.9738 C   0  0  0  0  0  0  0  0  0  0  0  0
   -1.0502    3.9764    0.0304 H   0  0  0  0  0  0  0  0  0  0  0  0
   -2.3048    3.6885    1.2512 H   0  0  0  0  0  0  0  0  0  0  0  0
   -0.6084    3.8620    1.7510 H   0  0  0  0  0  0  0  0  0  0  0  0
  1  2  1  0  0  0  0
  2  3  1  0  0  0  0
  2  4  1  0  0  0  0
  2  5  1  0  0  0  0
  5  6  2  0  0  0  0
  5  7  1  0  0  0  0
  7  8  1  0  0  0  0
  7  9  1  0  0  0  0
  9 10  1  0  0  0  0
  9 11  1  0  0  0  0
  9 15  1  0  0  0  0
 11 12  1  0  0  0  0
 11 13  1  0  0  0  0
 11 14  1  0  0  0  0
 15 16  2  0  0  0  0
 15 17  1  0  0  0  0
 17 18  1  0  0  0  0
 17 19  1  0  0  0  0
 19 20  1  0  0  0  0
 19 21  1  0  0  0  0
 19 22  1  0  0  0  0
M  END
$$$$

  -OEChem-11182114133D

 22 21  0     1  0  0  0  0  0999 V2000
   -2.5319   -3.7427    1.1294 H   0  0  0  0  0  0  0  0  0  0  0  0
   -2.5672   -2.7359    0.7036 C   0  0  0  0  0  0  0  0  0  0  0  0
   -3.3751   -2.1787    1.1839 H   0  0  0  0  0  0  0  0  0  0  0  0
   -2.7731   -2.8152   -0.3667 H   0  0  0  0  0  0  0  0  0  0  0  0
   -1.2443   -2.0279    0.9282 C   0  0  0  0  0  0  0  0  0  0  0  0
   -0.3685   -2.5678    1.5819 O   0  0  0  0  0  0  0  0  0  0  0  0
   -1.0446   -0.7672    0.4013 N   0  0  0  0  0  0  0  0  0  0  0  0
   -1.7658   -0.4226   -0.2265 H   0  0  0  0  0  0  0  0  0  0  0  0
    0.2643   -0.0874    0.3778 C   0  0  1  0  0  0  0  0  0  0  0  0
    0.8505   -0.3826    1.2549 H   0  0  0  0  0  0  0  0  0  0  0  0
    1.0137   -0.5458   -0.8810 C   0  0  0  0  0  0  0  0  0  0  0  0
    0.4771   -0.2361   -1.7832 H   0  0  0  0  0  0  0  0  0  0  0  0
    2.0177   -0.1101   -0.9073 H   0  0  0  0  0  0  0  0  0  0  0  0
    1.1155   -1.6354   -0.8890 H   0  0  0  0  0  0  0  0  0  0  0  0
    0.1222    1.4510    0.4544 C   0  0  0  0  0  0  0  0  0  0  0  0
    0.9110    2.1988   -0.1080 O   0  0  0  0  0  0  0  0  0  0  0  0
   -0.9528    2.0014    1.1290 N   0  0  0  0  0  0  0  0  0  0  0  0
   -1.5256    1.3591    1.6691 H   0  0  0  0  0  0  0  0  0  0  0  0
   -1.1380    3.4366    1.3064 C   0  0  0  0  0  0  0  0  0  0  0  0
   -1.1894    3.9400    0.3351 H   0  0  0  0  0  0  0  0  0  0  0  0
   -2.0693    3.6345    1.8458 H   0  0  0  0  0  0  0  0  0  0  0  0
   -0.3075    3.8615    1.8800 H   0  0  0  0  0  0  0  0  0  0  0  0
  1  2  1  0  0  0  0
  2  3  1  0  0  0  0
  2  4  1  0  0  0  0
  2  5  1  0  0  0  0
  5  6  2  0  0  0  0
  5  7  1  0  0  0  0
  7  8  1  0  0  0  0
  7  9  1  0  0  0  0
  9 10  1  0  0  0  0
  9 11  1  0  0  0  0
  9 15  1  0  0  0  0
 11 12  1  0  0  0  0
 11 13  1  0  0  0  0
 11 14  1  0  0  0  0
 15 16  2  0  0  0  0
 15 17  1  0  0  0  0
 17 18  1  0  0  0  0
 17 19  1  0  0  0  0
 19 20  1  0  0  0  0
 19 21  1  0  0  0  0
 19 22  1  0  0  0  0
M  END
$$$$

  -OEChem-11182114133D

 22 21  0     1  0  0  0  0  0999 V2000
   -2.5578   -3.7156    1.1297 H   0  0  0  0  0  0  0  0  0  0  0  0
   -2.5804   -2.7092    0.7020 C   0  0  0  0  0  0  0  0  0  0  0  0
   -3.3780   -2.1395    1.1847 H   0  0  0  0  0  0  0  0  0  0  0  0
   -2.7922   -2.7874   -0.3671 H   0  0  0  0  0  0  0  0  0  0  0  0
   -1.2463   -2.0197    0.9184 C   0  0  0  0  0  0  0  0  0  0  0  0
   -0.3715   -2.5734    1.5623 O   0  0  0  0  0  0  0  0  0  0  0  0
   -1.0352   -0.7575    0.4007 N   0  0  0  0  0  0  0  0  0  0  0  0
   -1.7631   -0.3895   -0.2060 H   0  0  0  0  0  0  0  0  0  0  0  0
    0.2779   -0.0888    0.3777 C   0  0  1  0  0  0  0  0  0  0  0  0
    0.8645   -0.3918    1.2518 H   0  0  0  0  0  0  0  0  0  0  0  0
    1.0245   -0.5464   -0.8831 C   0  0  0  0  0  0  0  0  0  0  0  0
    0.4824   -0.2424   -1.7840 H   0  0  0  0  0  0  0  0  0  0  0  0
    2.0253   -0.1037   -0.9140 H   0  0  0  0  0  0  0  0  0  0  0  0
    1.1324   -1.6354   -0.8885 H   0  0  0  0  0  0  0  0  0  0  0  0
    0.1342    1.4482    0.4662 C   0  0  0  0  0  0  0  0  0  0  0  0
    0.7381    2.2017   -0.2858 O   0  0  0  0  0  0  0  0  0  0  0  0
   -0.7400    1.9885    1.3913 N   0  0  0  0  0  0  0  0  0  0  0  0
   -1.1830    1.3399    2.0362 H   0  0  0  0  0  0  0  0  0  0  0  0
   -0.9225    3.4218    1.5848 C   0  0  0  0  0  0  0  0  0  0  0  0
   -1.2571    3.8948    0.6556 H   0  0  0  0  0  0  0  0  0  0  0  0
   -1.6763    3.6067    2.3561 H   0  0  0  0  0  0  0  0  0  0  0  0
    0.0171    3.8881    1.8990 H   0  0  0  0  0  0  0  0  0  0  0  0
  1  2  1  0  0  0  0
  2  3  1  0  0  0  0
  2  4  1  0  0  0  0
  2  5  1  0  0  0  0
  5  6  2  0  0  0  0
  5  7  1  0  0  0  0
  7  8  1  0  0  0  0
  7  9  1  0  0  0  0
  9 10  1  0  0  0  0
  9 11  1  0  0  0  0
  9 15  1  0  0  0  0
 11 12  1  0  0  0  0
 11 13  1  0  0  0  0
 11 14  1  0  0  0  0
 15 16  2  0  0  0  0
 15 17  1  0  0  0  0
 17 18  1  0  0  0  0
 17 19  1  0  0  0  0
 19 20  1  0  0  0  0
 19 21  1  0  0  0  0
 19 22  1  0  0  0  0
M  END
$$$$

  -OEChem-11182114133D

 22 21  0     1  0  0  0  0  0999 V2000
   -2.5826   -3.6884    1.1332 H   0  0  0  0  0  0  0  0  0  0  0  0
   -2.5935   -2.6826    0.7035 C   0  0  0  0  0  0  0  0  0  0  0  0
   -3.3798   -2.1003    1.1901 H   0  0  0  0  0  0  0  0  0  0  0  0
   -2.8127   -2.7596   -0.3642 H   0  0  0  0  0  0  0  0  0  0  0  0
   -1.2485   -2.0120    0.9108 C   0  0  0  0  0  0  0  0  0  0  0  0
   -0.3755   -2.5800    1.5452 O   0  0  0  0  0  0  0  0  0  0  0  0
   -1.0255   -0.7488    0.4014 N   0  0  0  0  0  0  0  0  0  0  0  0
   -1.7545   -0.3624   -0.1927 H   0  0  0  0  0  0  0  0  0  0  0  0
    0.2924   -0.0932    0.3808 C   0  0  1  0  0  0  0  0  0  0  0  0
    0.8806   -0.4072    1.2498 H   0  0  0  0  0  0  0  0  0  0  0  0
    1.0336   -0.5456   -0.8853 C   0  0  0  0  0  0  0  0  0  0  0  0
    0.4794   -0.2529   -1.7827 H   0  0  0  0  0  0  0  0  0  0  0  0
    2.0274   -0.0885   -0.9267 H   0  0  0  0  0  0  0  0  0  0  0  0
    1.1557   -1.6332   -0.8879 H   0  0  0  0  0  0  0  0  0  0  0  0
    0.1529    1.4426    0.4803 C   0  0  0  0  0  0  0  0  0  0  0  0
    0.5235    2.1884   -0.4169 O   0  0  0  0  0  0  0  0  0  0  0  0
   -0.4612    1.9883    1.5921 N   0  0  0  0  0  0  0  0  0  0  0  0
   -0.7574    1.3435    2.3198 H   0  0  0  0  0  0  0  0  0  0  0  0
   -0.6454    3.4206    1.7905 C   0  0  0  0  0  0  0  0  0  0  0  0
   -1.2450    3.8461    0.9790 H   0  0  0  0  0  0  0  0  0  0  0  0
   -1.1621    3.6083    2.7365 H   0  0  0  0  0  0  0  0  0  0  0  0
    0.3231    3.9308    1.8180 H   0  0  0  0  0  0  0  0  0  0  0  0
  1  2  1  0  0  0  0
  2  3  1  0  0  0  0
  2  4  1  0  0  0  0
  2  5  1  0  0  0  0
  5  6  2  0  0  0  0
  5  7  1  0  0  0  0
  7  8  1  0  0  0  0
  7  9  1  0  0  0  0
  9 10  1  0  0  0  0
  9 11  1  0  0  0  0
  9 15  1  0  0  0  0
 11 12  1  0  0  0  0
 11 13  1  0  0  0  0
 11 14  1  0  0  0  0
 15 16  2  0  0  0  0
 15 17  1  0  0  0  0
 17 18  1  0  0  0  0
 17 19  1  0  0  0  0
 19 20  1  0  0  0  0
 19 21  1  0  0  0  0
 19 22  1  0  0  0  0
M  END
$$$$

  -OEChem-11182114133D

 22 21  0     1  0  0  0  0  0999 V2000
   -2.6042   -3.6681    1.1353 H   0  0  0  0  0  0  0  0  0  0  0  0
   -2.6042   -2.6626    0.7048 C   0  0  0  0  0  0  0  0  0  0  0  0
   -3.3830   -2.0711    1.1921 H   0  0  0  0  0  0  0  0  0  0  0  0
   -2.8261   -2.7379   -0.3625 H   0  0  0  0  0  0  0  0  0  0  0  0
   -1.2512   -2.0070    0.9083 C   0  0  0  0  0  0  0  0  0  0  0  0
   -0.3789   -2.5885    1.5320 O   0  0  0  0  0  0  0  0  0  0  0  0
   -1.0176   -0.7441    0.4038 N   0  0  0  0  0  0  0  0  0  0  0  0
   -1.7492   -0.3390   -0.1748 H   0  0  0  0  0  0  0  0  0  0  0  0
    0.3039   -0.0986    0.3851 C   0  0  1  0  0  0  0  0  0  0  0  0
    0.8934   -0.4230    1.2494 H   0  0  0  0  0  0  0  0  0  0  0  0
    1.0397   -0.5435   -0.8859 C   0  0  0  0  0  0  0  0  0  0  0  0
    0.4760   -0.2578   -1.7798 H   0  0  0  0  0  0  0  0  0  0  0  0
    2.0280   -0.0757   -0.9347 H   0  0  0  0  0  0  0  0  0  0  0  0
    1.1723   -1.6299   -0.8888 H   0  0  0  0  0  0  0  0  0  0  0  0
    0.1728    1.4365    0.4900 C   0  0  0  0  0  0  0  0  0  0  0  0
    0.2762    2.1606   -0.4919 O   0  0  0  0  0  0  0  0  0  0  0  0
   -0.1421    2.0034    1.7107 N   0  0  0  0  0  0  0  0  0  0  0  0
   -0.2668    1.3726    2.4980 H   0  0  0  0  0  0  0  0  0  0  0  0
   -0.3231    3.4358    1.9108 C   0  0  0  0  0  0  0  0  0  0  0  0
   -1.1443    3.8090    1.2901 H   0  0  0  0  0  0  0  0  0  0  0  0
   -0.5589    3.6447    2.9586 H   0  0  0  0  0  0  0  0  0  0  0  0
    0.5917    3.9773    1.6478 H   0  0  0  0  0  0  0  0  0  0  0  0
  1  2  1  0  0  0  0
  2  3  1  0  0  0  0
  2  4  1  0  0  0  0
  2  5  1  0  0  0  0
  5  6  2  0  0  0  0
  5  7  1  0  0  0  0
  7  8  1  0  0  0  0
  7  9  1  0  0  0  0
  9 10  1  0  0  0  0
  9 11  1  0  0  0  0
  9 15  1  0  0  0  0
 11 12  1  0  0  0  0
 11 13  1  0  0  0  0
 11 14  1  0  0  0  0
 15 16  2  0  0  0  0
 15 17  1  0  0  0  0
 17 18  1  0  0  0  0
 17 19  1  0  0  0  0
 19 20  1  0  0  0  0
 19 21  1  0  0  0  0
 19 22  1  0  0  0  0
M  END
$$$$

  -OEChem-11182114133D

 22 21  0     1  0  0  0  0  0999 V2000
   -2.6308   -3.6431    1.1486 H   0  0  0  0  0  0  0  0  0  0  0  0
   -2.6193   -2.6387    0.7158 C   0  0  0  0  0  0  0  0  0  0  0  0
   -3.3816   -2.0330    1.2117 H   0  0  0  0  0  0  0  0  0  0  0  0
   -2.8562   -2.7121   -0.3484 H   0  0  0  0  0  0  0  0  0  0  0  0
   -1.2526   -2.0063    0.9006 C   0  0  0  0  0  0  0  0  0  0  0  0
   -0.3780   -2.6071    1.5031 O   0  0  0  0  0  0  0  0  0  0  0  0
   -1.0059   -0.7447    0.3996 N   0  0  0  0  0  0  0  0  0  0  0  0
   -1.7415   -0.3149   -0.1563 H   0  0  0  0  0  0  0  0  0  0  0  0
    0.3183   -0.1077    0.3860 C   0  0  1  0  0  0  0  0  0  0  0  0
    0.9048   -0.4423    1.2483 H   0  0  0  0  0  0  0  0  0  0  0  0
    1.0541   -0.5409   -0.8883 C   0  0  0  0  0  0  0  0  0  0  0  0
    0.4880   -0.2528   -1.7798 H   0  0  0  0  0  0  0  0  0  0  0  0
    2.0401   -0.0686   -0.9357 H   0  0  0  0  0  0  0  0  0  0  0  0
    1.1907   -1.6267   -0.8978 H   0  0  0  0  0  0  0  0  0  0  0  0
    0.1945    1.4268    0.4923 C   0  0  0  0  0  0  0  0  0  0  0  0
    0.0112    2.1172   -0.5024 O   0  0  0  0  0  0  0  0  0  0  0  0
    0.1907    2.0271    1.7377 N   0  0  0  0  0  0  0  0  0  0  0  0
    0.2769    1.4203    2.5486 H   0  0  0  0  0  0  0  0  0  0  0  0
    0.0098    3.4594    1.9399 C   0  0  0  0  0  0  0  0  0  0  0  0
   -0.9633    3.7817    1.5545 H   0  0  0  0  0  0  0  0  0  0  0  0
    0.0562    3.6997    3.0065 H   0  0  0  0  0  0  0  0  0  0  0  0
    0.7966    4.0208    1.4249 H   0  0  0  0  0  0  0  0  0  0  0  0
  1  2  1  0  0  0  0
  2  3  1  0  0  0  0
  2  4  1  0  0  0  0
  2  5  1  0  0  0  0
  5  6  2  0  0  0  0
  5  7  1  0  0  0  0
  7  8  1  0  0  0  0
  7  9  1  0  0  0  0
  9 10  1  0  0  0  0
  9 11  1  0  0  0  0
  9 15  1  0  0  0  0
 11 12  1  0  0  0  0
 11 13  1  0  0  0  0
 11 14  1  0  0  0  0
 15 16  2  0  0  0  0
 15 17  1  0  0  0  0
 17 18  1  0  0  0  0
 17 19  1  0  0  0  0
 19 20  1  0  0  0  0
 19 21  1  0  0  0  0
 19 22  1  0  0  0  0
M  END
$$$$

  -OEChem-11182114133D

 22 21  0     1  0  0  0  0  0999 V2000
   -2.6590   -3.6191    1.1709 H   0  0  0  0  0  0  0  0  0  0  0  0
   -2.6345   -2.6171    0.7335 C   0  0  0  0  0  0  0  0  0  0  0  0
   -3.3723   -1.9927    1.2429 H   0  0  0  0  0  0  0  0  0  0  0  0
   -2.8959   -2.6892   -0.3250 H   0  0  0  0  0  0  0  0  0  0  0  0
   -1.2510   -2.0136    0.8862 C   0  0  0  0  0  0  0  0  0  0  0  0
   -0.3722   -2.6364    1.4599 O   0  0  0  0  0  0  0  0  0  0  0  0
   -0.9929   -0.7535    0.3880 N   0  0  0  0  0  0  0  0  0  0  0  0
   -1.7388   -0.2908   -0.1271 H   0  0  0  0  0  0  0  0  0  0  0  0
    0.3314   -0.1180    0.3828 C   0  0  1  0  0  0  0  0  0  0  0  0
    0.9114   -0.4593    1.2467 H   0  0  0  0  0  0  0  0  0  0  0  0
    1.0742   -0.5369   -0.8910 C   0  0  0  0  0  0  0  0  0  0  0  0
    0.5141   -0.2359   -1.7821 H   0  0  0  0  0  0  0  0  0  0  0  0
    2.0616   -0.0667   -0.9264 H   0  0  0  0  0  0  0  0  0  0  0  0
    1.2075   -1.6230   -0.9130 H   0  0  0  0  0  0  0  0  0  0  0  0
    0.2106    1.4162    0.4870 C   0  0  0  0  0  0  0  0  0  0  0  0
   -0.2429    2.0668   -0.4466 O   0  0  0  0  0  0  0  0  0  0  0  0
    0.5063    2.0577    1.6757 N   0  0  0  0  0  0  0  0  0  0  0  0
    0.8042    1.4814    2.4579 H   0  0  0  0  0  0  0  0  0  0  0  0
    0.3377    3.4918    1.8771 C   0  0  0  0  0  0  0  0  0  0  0  0
   -0.7121    3.7764    1.7501 H   0  0  0  0  0  0  0  0  0  0  0  0
    0.6524    3.7712    2.8872 H   0  0  0  0  0  0  0  0  0  0  0  0
    0.9445    4.0535    1.1589 H   0  0  0  0  0  0  0  0  0  0  0  0
  1  2  1  0  0  0  0
  2  3  1  0  0  0  0
  2  4  1  0  0  0  0
  2  5  1  0  0  0  0
  5  6  2  0  0  0  0
  5  7  1  0  0  0  0
  7  8  1  0  0  0  0
  7  9  1  0  0  0  0
  9 10  1  0  0  0  0
  9 11  1  0  0  0  0
  9 15  1  0  0  0  0
 11 12  1  0  0  0  0
 11 13  1  0  0  0  0
 11 14  1  0  0  0  0
 15 16  2  0  0  0  0
 15 17  1  0  0  0  0
 17 18  1  0  0  0  0
 17 19  1  0  0  0  0
 19 20  1  0  0  0  0
 19 21  1  0  0  0  0
 19 22  1  0  0  0  0
M  END
$$$$

  -OEChem-11182114133D

 22 21  0     1  0  0  0  0  0999 V2000
   -2.6730   -3.6039    1.1870 H   0  0  0  0  0  0  0  0  0  0  0  0
   -2.6448   -2.6006    0.7526 C   0  0  0  0  0  0  0  0  0  0  0  0
   -3.3612   -1.9672    1.2811 H   0  0  0  0  0  0  0  0  0  0  0  0
   -2.9322   -2.6648   -0.2996 H   0  0  0  0  0  0  0  0  0  0  0  0
   -1.2492   -2.0183    0.8743 C   0  0  0  0  0  0  0  0  0  0  0  0
   -0.3652   -2.6577    1.4217 O   0  0  0  0  0  0  0  0  0  0  0  0
   -0.9824   -0.7612    0.3744 N   0  0  0  0  0  0  0  0  0  0  0  0
   -1.7395   -0.2653   -0.0923 H   0  0  0  0  0  0  0  0  0  0  0  0
    0.3411   -0.1259    0.3774 C   0  0  1  0  0  0  0  0  0  0  0  0
    0.9136   -0.4680    1.2459 H   0  0  0  0  0  0  0  0  0  0  0  0
    1.0901   -0.5360   -0.8939 C   0  0  0  0  0  0  0  0  0  0  0  0
    0.5369   -0.2215   -1.7847 H   0  0  0  0  0  0  0  0  0  0  0  0
    2.0810   -0.0724   -0.9182 H   0  0  0  0  0  0  0  0  0  0  0  0
    1.2160   -1.6228   -0.9264 H   0  0  0  0  0  0  0  0  0  0  0  0
    0.2184    1.4077    0.4739 C   0  0  0  0  0  0  0  0  0  0  0  0
   -0.4625    2.0197   -0.3407 O   0  0  0  0  0  0  0  0  0  0  0  0
    0.7855    2.0912    1.5335 N   0  0  0  0  0  0  0  0  0  0  0  0
    1.2857    1.5468    2.2306 H   0  0  0  0  0  0  0  0  0  0  0  0
    0.6408    3.5284    1.7291 C   0  0  0  0  0  0  0  0  0  0  0  0
   -0.4145    3.7954    1.8486 H   0  0  0  0  0  0  0  0  0  0  0  0
    1.1810    3.8444    2.6267 H   0  0  0  0  0  0  0  0  0  0  0  0
    1.0480    4.0739    0.8713 H   0  0  0  0  0  0  0  0  0  0  0  0
  1  2  1  0  0  0  0
  2  3  1  0  0  0  0
  2  4  1  0  0  0  0
  2  5  1  0  0  0  0
  5  6  2  0  0  0  0
  5  7  1  0  0  0  0
  7  8  1  0  0  0  0
  7  9  1  0  0  0  0
  9 10  1  0  0  0  0
  9 11  1  0  0  0  0
  9 15  1  0  0  0  0
 11 12  1  0  0  0  0
 11 13  1  0  0  0  0
 11 14  1  0  0  0  0
 15 16  2  0  0  0  0
 15 17  1  0  0  0  0
 17 18  1  0  0  0  0
 17 19  1  0  0  0  0
 19 20  1  0  0  0  0
 19 21  1  0  0  0  0
 19 22  1  0  0  0  0
M  END
$$$$

  -OEChem-11182114133D

 22 21  0     1  0  0  0  0  0999 V2000
   -2.6831   -3.5928    1.2083 H   0  0  0  0  0  0  0  0  0  0  0  0
   -2.6513   -2.5894    0.7747 C   0  0  0  0  0  0  0  0  0  0  0  0
   -3.3415   -1.9455    1.3252 H   0  0  0  0  0  0  0  0  0  0  0  0
   -2.9706   -2.6465   -0.2687 H   0  0  0  0  0  0  0  0  0  0  0  0
   -1.2439   -2.0288    0.8557 C   0  0  0  0  0  0  0  0  0  0  0  0
   -0.3523   -2.6839    1.3718 O   0  0  0  0  0  0  0  0  0  0  0  0
   -0.9757   -0.7731    0.3535 N   0  0  0  0  0  0  0  0  0  0  0  0
   -1.7473   -0.2467   -0.0533 H   0  0  0  0  0  0  0  0  0  0  0  0
    0.3438   -0.1299    0.3682 C   0  0  1  0  0  0  0  0  0  0  0  0
    0.9061   -0.4671    1.2453 H   0  0  0  0  0  0  0  0  0  0  0  0
    1.1052   -0.5370   -0.8959 C   0  0  0  0  0  0  0  0  0  0  0  0
    0.5638   -0.2126   -1.7903 H   0  0  0  0  0  0  0  0  0  0  0  0
    2.0997   -0.0810   -0.9058 H   0  0  0  0  0  0  0  0  0  0  0  0
    1.2234   -1.6245   -0.9341 H   0  0  0  0  0  0  0  0  0  0  0  0
    0.2181    1.4045    0.4553 C   0  0  0  0  0  0  0  0  0  0  0  0
   -0.6413    1.9856   -0.1977 O   0  0  0  0  0  0  0  0  0  0  0  0
    1.0144    2.1264    1.3251 N   0  0  0  0  0  0  0  0  0  0  0  0
    1.6783    1.6096    1.8946 H   0  0  0  0  0  0  0  0  0  0  0  0
    0.9008    3.5684    1.5057 C   0  0  0  0  0  0  0  0  0  0  0  0
   -0.1036    3.8341    1.8514 H   0  0  0  0  0  0  0  0  0  0  0  0
    1.6247    3.9141    2.2498 H   0  0  0  0  0  0  0  0  0  0  0  0
    1.0987    4.0893    0.5630 H   0  0  0  0  0  0  0  0  0  0  0  0
  1  2  1  0  0  0  0
  2  3  1  0  0  0  0
  2  4  1  0  0  0  0
  2  5  1  0  0  0  0
  5  6  2  0  0  0  0
  5  7  1  0  0  0  0
  7  8  1  0  0  0  0
  7  9  1  0  0  0  0
  9 10  1  0  0  0  0
  9 11  1  0  0  0  0
  9 15  1  0  0  0  0
 11 12  1  0  0  0  0
 11 13  1  0  0  0  0
 11 14  1  0  0  0  0
 15 16  2  0  0  0  0
 15 17  1  0  0  0  0
 17 18  1  0  0  0  0
 17 19  1  0  0  0  0
 19 20  1  0  0  0  0
 19 21  1  0  0  0  0
 19 22  1  0  0  0  0
M  END
$$$$

  -OEChem-11182114133D

 22 21  0     1  0  0  0  0  0999 V2000
   -2.6923   -3.5781    1.2375 H   0  0  0  0  0  0  0  0  0  0  0  0
   -2.6591   -2.5771    0.7982 C   0  0  0  0  0  0  0  0  0  0  0  0
   -3.3164   -1.9187    1.3714 H   0  0  0  0  0  0  0  0  0  0  0  0
   -3.0182   -2.6324   -0.2324 H   0  0  0  0  0  0  0  0  0  0  0  0
   -1.2399   -2.0416    0.8235 C   0  0  0  0  0  0  0  0  0  0  0  0
   -0.3388   -2.7161    1.2966 O   0  0  0  0  0  0  0  0  0  0  0  0
   -0.9716   -0.7858    0.3219 N   0  0  0  0  0  0  0  0  0  0  0  0
   -1.7578   -0.2249   -0.0043 H   0  0  0  0  0  0  0  0  0  0  0  0
    0.3436   -0.1341    0.3568 C   0  0  1  0  0  0  0  0  0  0  0  0
    0.8909   -0.4645    1.2460 H   0  0  0  0  0  0  0  0  0  0  0  0
    1.1278   -0.5390   -0.8945 C   0  0  0  0  0  0  0  0  0  0  0  0
    0.5999   -0.2171   -1.7980 H   0  0  0  0  0  0  0  0  0  0  0  0
    2.1210   -0.0802   -0.8886 H   0  0  0  0  0  0  0  0  0  0  0  0
    1.2503   -1.6261   -0.9305 H   0  0  0  0  0  0  0  0  0  0  0  0
    0.2112    1.4009    0.4368 C   0  0  0  0  0  0  0  0  0  0  0  0
   -0.7801    1.9567   -0.0240 O   0  0  0  0  0  0  0  0  0  0  0  0
    1.1790    2.1568    1.0725 N   0  0  0  0  0  0  0  0  0  0  0  0
    1.9696    1.6652    1.4794 H   0  0  0  0  0  0  0  0  0  0  0  0
    1.0942    3.6047    1.2203 C   0  0  0  0  0  0  0  0  0  0  0  0
    0.1992    3.8803    1.7878 H   0  0  0  0  0  0  0  0  0  0  0  0
    1.9716    3.9828    1.7537 H   0  0  0  0  0  0  0  0  0  0  0  0
    1.0521    4.0882    0.2386 H   0  0  0  0  0  0  0  0  0  0  0  0
  1  2  1  0  0  0  0
  2  3  1  0  0  0  0
  2  4  1  0  0  0  0
  2  5  1  0  0  0  0
  5  6  2  0  0  0  0
  5  7  1  0  0  0  0
  7  8  1  0  0  0  0
  7  9  1  0  0  0  0
  9 10  1  0  0  0  0
  9 11  1  0  0  0  0
  9 15  1  0  0  0  0
 11 12  1  0  0  0  0
 11 13  1  0  0  0  0
 11 14  1  0  0  0  0
 15 16  2  0  0  0  0
 15 17  1  0  0  0  0
 17 18  1  0  0  0  0
 17 19  1  0  0  0  0
 19 20  1  0  0  0  0
 19 21  1  0  0  0  0
 19 22  1  0  0  0  0
M  END
$$$$

  -OEChem-11182114133D

 22 21  0     1  0  0  0  0  0999 V2000
   -2.6863   -3.5751    1.2647 H   0  0  0  0  0  0  0  0  0  0  0  0
   -2.6584   -2.5794    0.8133 C   0  0  0  0  0  0  0  0  0  0  0  0
   -3.2996   -1.9119    1.3940 H   0  0  0  0  0  0  0  0  0  0  0  0
   -3.0409   -2.6446   -0.2082 H   0  0  0  0  0  0  0  0  0  0  0  0
   -1.2364   -2.0509    0.8007 C   0  0  0  0  0  0  0  0  0  0  0  0
   -0.3254   -2.7347    1.2407 O   0  0  0  0  0  0  0  0  0  0  0  0
   -0.9759   -0.7931    0.3000 N   0  0  0  0  0  0  0  0  0  0  0  0
   -1.7735   -0.2105    0.0469 H   0  0  0  0  0  0  0  0  0  0  0  0
    0.3349   -0.1328    0.3513 C   0  0  1  0  0  0  0  0  0  0  0  0
    0.8742   -0.4589    1.2471 H   0  0  0  0  0  0  0  0  0  0  0  0
    1.1322   -0.5364   -0.8931 C   0  0  0  0  0  0  0  0  0  0  0  0
    0.6134   -0.2125   -1.8011 H   0  0  0  0  0  0  0  0  0  0  0  0
    2.1265   -0.0801   -0.8773 H   0  0  0  0  0  0  0  0  0  0  0  0
    1.2538   -1.6237   -0.9302 H   0  0  0  0  0  0  0  0  0  0  0  0
    0.1982    1.4030    0.4289 C   0  0  0  0  0  0  0  0  0  0  0  0
   -0.8758    1.9410    0.1802 O   0  0  0  0  0  0  0  0  0  0  0  0
    1.2798    2.1842    0.7926 N   0  0  0  0  0  0  0  0  0  0  0  0
    2.1534    1.7106    1.0037 H   0  0  0  0  0  0  0  0  0  0  0  0
    1.2219    3.6377    0.8882 C   0  0  0  0  0  0  0  0  0  0  0  0
    0.4644    3.9447    1.6169 H   0  0  0  0  0  0  0  0  0  0  0  0
    2.1900    4.0342    1.2091 H   0  0  0  0  0  0  0  0  0  0  0  0
    0.9735    4.0759   -0.0842 H   0  0  0  0  0  0  0  0  0  0  0  0
  1  2  1  0  0  0  0
  2  3  1  0  0  0  0
  2  4  1  0  0  0  0
  2  5  1  0  0  0  0
  5  6  2  0  0  0  0
  5  7  1  0  0  0  0
  7  8  1  0  0  0  0
  7  9  1  0  0  0  0
  9 10  1  0  0  0  0
  9 11  1  0  0  0  0
  9 15  1  0  0  0  0
 11 12  1  0  0  0  0
 11 13  1  0  0  0  0
 11 14  1  0  0  0  0
 15 16  2  0  0  0  0
 15 17  1  0  0  0  0
 17 18  1  0  0  0  0
 17 19  1  0  0  0  0
 19 20  1  0  0  0  0
 19 21  1  0  0  0  0
 19 22  1  0  0  0  0
M  END
$$$$

  -OEChem-11182114133D

 22 21  0     1  0  0  0  0  0999 V2000
   -2.6848   -3.5317    1.3117 H   0  0  0  0  0  0  0  0  0  0  0  0
   -2.6575   -2.5344    0.8643 C   0  0  0  0  0  0  0  0  0  0  0  0
   -3.2224   -1.8479    1.4997 H   0  0  0  0  0  0  0  0  0  0  0  0
   -3.1264   -2.5772   -0.1215 H   0  0  0  0  0  0  0  0  0  0  0  0
   -1.2230   -2.0583    0.7342 C   0  0  0  0  0  0  0  0  0  0  0  0
   -0.3041   -2.7873    1.0733 O   0  0  0  0  0  0  0  0  0  0  0  0
   -0.9649   -0.8008    0.2303 N   0  0  0  0  0  0  0  0  0  0  0  0
   -1.7689   -0.1799    0.1448 H   0  0  0  0  0  0  0  0  0  0  0  0
    0.3459   -0.1413    0.3152 C   0  0  1  0  0  0  0  0  0  0  0  0
    0.9751   -0.6399    1.0603 H   0  0  0  0  0  0  0  0  0  0  0  0
    1.0129   -0.2551   -1.0592 C   0  0  0  0  0  0  0  0  0  0  0  0
    0.4177    0.2634   -1.8177 H   0  0  0  0  0  0  0  0  0  0  0  0
    2.0150    0.1831   -1.0415 H   0  0  0  0  0  0  0  0  0  0  0  0
    1.1042   -1.3073   -1.3473 H   0  0  0  0  0  0  0  0  0  0  0  0
    0.2129    1.3351    0.7525 C   0  0  0  0  0  0  0  0  0  0  0  0
   -0.8958    1.8241    0.9444 O   0  0  0  0  0  0  0  0  0  0  0  0
    1.3341    2.1327    0.8938 N   0  0  0  0  0  0  0  0  0  0  0  0
    2.2407    1.7013    0.7397 H   0  0  0  0  0  0  0  0  0  0  0  0
    1.2770    3.5314    1.3012 C   0  0  0  0  0  0  0  0  0  0  0  0
    0.8155    3.6239    2.2900 H   0  0  0  0  0  0  0  0  0  0  0  0
    2.2857    3.9525    1.3503 H   0  0  0  0  0  0  0  0  0  0  0  0
    0.6929    4.1168    0.5832 H   0  0  0  0  0  0  0  0  0  0  0  0
  1  2  1  0  0  0  0
  2  3  1  0  0  0  0
  2  4  1  0  0  0  0
  2  5  1  0  0  0  0
  5  6  2  0  0  0  0
  5  7  1  0  0  0  0
  7  8  1  0  0  0  0
  7  9  1  0  0  0  0
  9 10  1  0  0  0  0
  9 11  1  0  0  0  0
  9 15  1  0  0  0  0
 11 12  1  0  0  0  0
 11 13  1  0  0  0  0
 11 14  1  0  0  0  0
 15 16  2  0  0  0  0
 15 17  1  0  0  0  0
 17 18  1  0  0  0  0
 17 19  1  0  0  0  0
 19 20  1  0  0  0  0
 19 21  1  0  0  0  0
 19 22  1  0  0  0  0
M  END
$$$$

  -OEChem-11182114133D

 22 21  0     1  0  0  0  0  0999 V2000
   -2.6776   -3.5160    1.3452 H   0  0  0  0  0  0  0  0  0  0  0  0
   -2.6549   -2.5287    0.8756 C   0  0  0  0  0  0  0  0  0  0  0  0
   -3.2086   -1.8272    1.5044 H   0  0  0  0  0  0  0  0  0  0  0  0
   -3.1387   -2.5916   -0.1019 H   0  0  0  0  0  0  0  0  0  0  0  0
   -1.2215   -2.0592    0.7130 C   0  0  0  0  0  0  0  0  0  0  0  0
   -0.2988   -2.7991    1.0168 O   0  0  0  0  0  0  0  0  0  0  0  0
   -0.9692   -0.7992    0.2120 N   0  0  0  0  0  0  0  0  0  0  0  0
   -1.7729   -0.1735    0.1759 H   0  0  0  0  0  0  0  0  0  0  0  0
    0.3424   -0.1422    0.3088 C   0  0  1  0  0  0  0  0  0  0  0  0
    0.9637   -0.6398    1.0613 H   0  0  0  0  0  0  0  0  0  0  0  0
    1.0223   -0.2701   -1.0591 C   0  0  0  0  0  0  0  0  0  0  0  0
    0.4535    0.2711   -1.8219 H   0  0  0  0  0  0  0  0  0  0  0  0
    2.0387    0.1326   -1.0272 H   0  0  0  0  0  0  0  0  0  0  0  0
    1.0824   -1.3235   -1.3514 H   0  0  0  0  0  0  0  0  0  0  0  0
    0.2053    1.3337    0.7512 C   0  0  0  0  0  0  0  0  0  0  0  0
   -0.8717    1.7534    1.1614 O   0  0  0  0  0  0  0  0  0  0  0  0
    1.2586    2.2204    0.6158 N   0  0  0  0  0  0  0  0  0  0  0  0
    2.1389    1.8551    0.2649 H   0  0  0  0  0  0  0  0  0  0  0  0
    1.1718    3.6303    0.9766 C   0  0  0  0  0  0  0  0  0  0  0  0
    0.9475    3.7398    2.0429 H   0  0  0  0  0  0  0  0  0  0  0  0
    2.1215    4.1327    0.7695 H   0  0  0  0  0  0  0  0  0  0  0  0
    0.3855    4.1265    0.3980 H   0  0  0  0  0  0  0  0  0  0  0  0
  1  2  1  0  0  0  0
  2  3  1  0  0  0  0
  2  4  1  0  0  0  0
  2  5  1  0  0  0  0
  5  6  2  0  0  0  0
  5  7  1  0  0  0  0
  7  8  1  0  0  0  0
  7  9  1  0  0  0  0
  9 10  1  0  0  0  0
  9 11  1  0  0  0  0
  9 15  1  0  0  0  0
 11 12  1  0  0  0  0
 11 13  1  0  0  0  0
 11 14  1  0  0  0  0
 15 16  2  0  0  0  0
 15 17  1  0  0  0  0
 17 18  1  0  0  0  0
 17 19  1  0  0  0  0
 19 20  1  0  0  0  0
 19 21  1  0  0  0  0
 19 22  1  0  0  0  0
M  END
$$$$

  -OEChem-11182114133D

 22 21  0     1  0  0  0  0  0999 V2000
   -2.6693   -3.5036    1.3693 H   0  0  0  0  0  0  0  0  0  0  0  0
   -2.6530   -2.5200    0.8915 C   0  0  0  0  0  0  0  0  0  0  0  0
   -3.1900   -1.8118    1.5274 H   0  0  0  0  0  0  0  0  0  0  0  0
   -3.1581   -2.5882   -0.0750 H   0  0  0  0  0  0  0  0  0  0  0  0
   -1.2212   -2.0579    0.6955 C   0  0  0  0  0  0  0  0  0  0  0  0
   -0.2964   -2.8052    0.9736 O   0  0  0  0  0  0  0  0  0  0  0  0
   -0.9736   -0.7976    0.1917 N   0  0  0  0  0  0  0  0  0  0  0  0
   -1.7778   -0.1724    0.1838 H   0  0  0  0  0  0  0  0  0  0  0  0
    0.3385   -0.1419    0.2975 C   0  0  1  0  0  0  0  0  0  0  0  0
    0.9495   -0.6341    1.0620 H   0  0  0  0  0  0  0  0  0  0  0  0
    1.0388   -0.2907   -1.0589 C   0  0  0  0  0  0  0  0  0  0  0  0
    0.4910    0.2517   -1.8362 H   0  0  0  0  0  0  0  0  0  0  0  0
    2.0616    0.0944   -1.0119 H   0  0  0  0  0  0  0  0  0  0  0  0
    1.0878   -1.3475   -1.3413 H   0  0  0  0  0  0  0  0  0  0  0  0
    0.1937    1.3348    0.7377 C   0  0  0  0  0  0  0  0  0  0  0  0
   -0.8040    1.6884    1.3563 O   0  0  0  0  0  0  0  0  0  0  0  0
    1.1059    2.2991    0.3459 N   0  0  0  0  0  0  0  0  0  0  0  0
    1.9125    1.9924   -0.1894 H   0  0  0  0  0  0  0  0  0  0  0  0
    0.9822    3.7103    0.6911 C   0  0  0  0  0  0  0  0  0  0  0  0
    1.0066    3.8420    1.7779 H   0  0  0  0  0  0  0  0  0  0  0  0
    1.8083    4.2802    0.2552 H   0  0  0  0  0  0  0  0  0  0  0  0
    0.0412    4.1186    0.3076 H   0  0  0  0  0  0  0  0  0  0  0  0
  1  2  1  0  0  0  0
  2  3  1  0  0  0  0
  2  4  1  0  0  0  0
  2  5  1  0  0  0  0
  5  6  2  0  0  0  0
  5  7  1  0  0  0  0
  7  8  1  0  0  0  0
  7  9  1  0  0  0  0
  9 10  1  0  0  0  0
  9 11  1  0  0  0  0
  9 15  1  0  0  0  0
 11 12  1  0  0  0  0
 11 13  1  0  0  0  0
 11 14  1  0  0  0  0
 15 16  2  0  0  0  0
 15 17  1  0  0  0  0
 17 18  1  0  0  0  0
 17 19  1  0  0  0  0
 19 20  1  0  0  0  0
 19 21  1  0  0  0  0
 19 22  1  0  0  0  0
M  END
$$$$

  -OEChem-11182114133D

 22 21  0     1  0  0  0  0  0999 V2000
   -2.6675   -3.5232    1.3197 H   0  0  0  0  0  0  0  0  0  0  0  0
   -2.6520   -2.5127    0.9020 C   0  0  0  0  0  0  0  0  0  0  0  0
   -3.1612   -1.8383    1.5949 H   0  0  0  0  0  0  0  0  0  0  0  0
   -3.1858   -2.5171   -0.0513 H   0  0  0  0  0  0  0  0  0  0  0  0
   -1.2207   -2.0558    0.6917 C   0  0  0  0  0  0  0  0  0  0  0  0
   -0.2961   -2.8099    0.9512 O   0  0  0  0  0  0  0  0  0  0  0  0
   -0.9743   -0.7943    0.1896 N   0  0  0  0  0  0  0  0  0  0  0  0
   -1.7789   -0.1706    0.1936 H   0  0  0  0  0  0  0  0  0  0  0  0
    0.3401   -0.1428    0.2966 C   0  0  1  0  0  0  0  0  0  0  0  0
    0.9469   -0.6345    1.0652 H   0  0  0  0  0  0  0  0  0  0  0  0
    1.0494   -0.3020   -1.0545 C   0  0  0  0  0  0  0  0  0  0  0  0
    0.4980    0.2194   -1.8434 H   0  0  0  0  0  0  0  0  0  0  0  0
    2.0665    0.0985   -1.0068 H   0  0  0  0  0  0  0  0  0  0  0  0
    1.1148   -1.3622   -1.3201 H   0  0  0  0  0  0  0  0  0  0  0  0
    0.1945    1.3325    0.7408 C   0  0  0  0  0  0  0  0  0  0  0  0
   -0.6744    1.6338    1.5501 O   0  0  0  0  0  0  0  0  0  0  0  0
    0.9034    2.3510    0.1273 N   0  0  0  0  0  0  0  0  0  0  0  0
    1.5801    2.0893   -0.5832 H   0  0  0  0  0  0  0  0  0  0  0  0
    0.7191    3.7627    0.4423 C   0  0  0  0  0  0  0  0  0  0  0  0
    0.9314    3.9504    1.5001 H   0  0  0  0  0  0  0  0  0  0  0  0
    1.3962    4.3761   -0.1600 H   0  0  0  0  0  0  0  0  0  0  0  0
   -0.3096    4.0719    0.2290 H   0  0  0  0  0  0  0  0  0  0  0  0
  1  2  1  0  0  0  0
  2  3  1  0  0  0  0
  2  4  1  0  0  0  0
  2  5  1  0  0  0  0
  5  6  2  0  0  0  0
  5  7  1  0  0  0  0
  7  8  1  0  0  0  0
  7  9  1  0  0  0  0
  9 10  1  0  0  0  0
  9 11  1  0  0  0  0
  9 15  1  0  0  0  0
 11 12  1  0  0  0  0
 11 13  1  0  0  0  0
 11 14  1  0  0  0  0
 15 16  2  0  0  0  0
 15 17  1  0  0  0  0
 17 18  1  0  0  0  0
 17 19  1  0  0  0  0
 19 20  1  0  0  0  0
 19 21  1  0  0  0  0
 19 22  1  0  0  0  0
M  END
$$$$

  -OEChem-11182114133D

 22 21  0     1  0  0  0  0  0999 V2000
   -2.6606   -3.5308    1.3194 H   0  0  0  0  0  0  0  0  0  0  0  0
   -2.6494   -2.5195    0.9035 C   0  0  0  0  0  0  0  0  0  0  0  0
   -3.1636   -1.8488    1.5962 H   0  0  0  0  0  0  0  0  0  0  0  0
   -3.1807   -2.5252   -0.0511 H   0  0  0  0  0  0  0  0  0  0  0  0
   -1.2200   -2.0547    0.6980 C   0  0  0  0  0  0  0  0  0  0  0  0
   -0.2927   -2.8043    0.9597 O   0  0  0  0  0  0  0  0  0  0  0  0
   -0.9795   -0.7937    0.1912 N   0  0  0  0  0  0  0  0  0  0  0  0
   -1.7898   -0.1792    0.1755 H   0  0  0  0  0  0  0  0  0  0  0  0
    0.3326   -0.1370    0.2961 C   0  0  1  0  0  0  0  0  0  0  0  0
    0.9381   -0.6215    1.0703 H   0  0  0  0  0  0  0  0  0  0  0  0
    1.0513   -0.3046   -1.0488 C   0  0  0  0  0  0  0  0  0  0  0  0
    0.4869    0.1773   -1.8531 H   0  0  0  0  0  0  0  0  0  0  0  0
    2.0537    0.1321   -1.0055 H   0  0  0  0  0  0  0  0  0  0  0  0
    1.1534   -1.3682   -1.2879 H   0  0  0  0  0  0  0  0  0  0  0  0
    0.1821    1.3383    0.7351 C   0  0  0  0  0  0  0  0  0  0  0  0
   -0.4966    1.6044    1.7182 O   0  0  0  0  0  0  0  0  0  0  0  0
    0.6338    2.3826   -0.0535 N   0  0  0  0  0  0  0  0  0  0  0  0
    1.1460    2.1445   -0.8976 H   0  0  0  0  0  0  0  0  0  0  0  0
    0.4187    3.7880    0.2706 C   0  0  0  0  0  0  0  0  0  0  0  0
    0.8638    4.0298    1.2415 H   0  0  0  0  0  0  0  0  0  0  0  0
    0.8802    4.4260   -0.4893 H   0  0  0  0  0  0  0  0  0  0  0  0
   -0.6523    4.0137    0.3077 H   0  0  0  0  0  0  0  0  0  0  0  0
  1  2  1  0  0  0  0
  2  3  1  0  0  0  0
  2  4  1  0  0  0  0
  2  5  1  0  0  0  0
  5  6  2  0  0  0  0
  5  7  1  0  0  0  0
  7  8  1  0  0  0  0
  7  9  1  0  0  0  0
  9 10  1  0  0  0  0
  9 11  1  0  0  0  0
  9 15  1  0  0  0  0
 11 12  1  0  0  0  0
 11 13  1  0  0  0  0
 11 14  1  0  0  0  0
 15 16  2  0  0  0  0
 15 17  1  0  0  0  0
 17 18  1  0  0  0  0
 17 19  1  0  0  0  0
 19 20  1  0  0  0  0
 19 21  1  0  0  0  0
 19 22  1  0  0  0  0
M  END
$$$$

  -OEChem-11182114133D

 22 21  0     1  0  0  0  0  0999 V2000
   -2.6567   -3.5333    1.3394 H   0  0  0  0  0  0  0  0  0  0  0  0
   -2.6480   -2.5336    0.8958 C   0  0  0  0  0  0  0  0  0  0  0  0
   -3.1849   -1.8509    1.5590 H   0  0  0  0  0  0  0  0  0  0  0  0
   -3.1581   -2.5720   -0.0697 H   0  0  0  0  0  0  0  0  0  0  0  0
   -1.2199   -2.0573    0.7080 C   0  0  0  0  0  0  0  0  0  0  0  0
   -0.2904   -2.7987    0.9836 O   0  0  0  0  0  0  0  0  0  0  0  0
   -0.9843   -0.7959    0.1993 N   0  0  0  0  0  0  0  0  0  0  0  0
   -1.8015   -0.1937    0.1470 H   0  0  0  0  0  0  0  0  0  0  0  0
    0.3241   -0.1310    0.3021 C   0  0  1  0  0  0  0  0  0  0  0  0
    0.9335   -0.6101    1.0770 H   0  0  0  0  0  0  0  0  0  0  0  0
    1.0455   -0.2941   -1.0419 C   0  0  0  0  0  0  0  0  0  0  0  0
    0.4572    0.1401   -1.8563 H   0  0  0  0  0  0  0  0  0  0  0  0
    2.0253    0.1927   -1.0119 H   0  0  0  0  0  0  0  0  0  0  0  0
    1.1985   -1.3570   -1.2559 H   0  0  0  0  0  0  0  0  0  0  0  0
    0.1677    1.3434    0.7378 C   0  0  0  0  0  0  0  0  0  0  0  0
   -0.2696    1.5986    1.8511 O   0  0  0  0  0  0  0  0  0  0  0  0
    0.3252    2.3840   -0.1615 N   0  0  0  0  0  0  0  0  0  0  0  0
    0.6504    2.1507   -1.0949 H   0  0  0  0  0  0  0  0  0  0  0  0
    0.0921    3.7828    0.1785 C   0  0  0  0  0  0  0  0  0  0  0  0
    0.7706    4.1012    0.9771 H   0  0  0  0  0  0  0  0  0  0  0  0
    0.2636    4.4184   -0.6955 H   0  0  0  0  0  0  0  0  0  0  0  0
   -0.9401    3.9292    0.5142 H   0  0  0  0  0  0  0  0  0  0  0  0
  1  2  1  0  0  0  0
  2  3  1  0  0  0  0
  2  4  1  0  0  0  0
  2  5  1  0  0  0  0
  5  6  2  0  0  0  0
  5  7  1  0  0  0  0
  7  8  1  0  0  0  0
  7  9  1  0  0  0  0
  9 10  1  0  0  0  0
  9 11  1  0  0  0  0
  9 15  1  0  0  0  0
 11 12  1  0  0  0  0
 11 13  1  0  0  0  0
 11 14  1  0  0  0  0
 15 16  2  0  0  0  0
 15 17  1  0  0  0  0
 17 18  1  0  0  0  0
 17 19  1  0  0  0  0
 19 20  1  0  0  0  0
 19 21  1  0  0  0  0
 19 22  1  0  0  0  0
M  END
$$$$

  -OEChem-11182114133D

 22 21  0     1  0  0  0  0  0999 V2000
   -2.6443   -3.5660    1.3246 H   0  0  0  0  0  0  0  0  0  0  0  0
   -2.6437   -2.5653    0.8835 C   0  0  0  0  0  0  0  0  0  0  0  0
   -3.2068   -1.8942    1.5364 H   0  0  0  0  0  0  0  0  0  0  0  0
   -3.1323   -2.6105   -0.0926 H   0  0  0  0  0  0  0  0  0  0  0  0
   -1.2199   -2.0647    0.7278 C   0  0  0  0  0  0  0  0  0  0  0  0
   -0.2858   -2.7905    1.0262 O   0  0  0  0  0  0  0  0  0  0  0  0
   -0.9925   -0.8016    0.2184 N   0  0  0  0  0  0  0  0  0  0  0  0
   -1.8170   -0.2161    0.1203 H   0  0  0  0  0  0  0  0  0  0  0  0
    0.3098   -0.1228    0.3161 C   0  0  1  0  0  0  0  0  0  0  0  0
    0.9286   -0.5982    1.0863 H   0  0  0  0  0  0  0  0  0  0  0  0
    1.0291   -0.2677   -1.0303 C   0  0  0  0  0  0  0  0  0  0  0  0
    0.4265    0.1473   -1.8438 H   0  0  0  0  0  0  0  0  0  0  0  0
    1.9935    0.2494   -1.0043 H   0  0  0  0  0  0  0  0  0  0  0  0
    1.2126   -1.3259   -1.2428 H   0  0  0  0  0  0  0  0  0  0  0  0
    0.1445    1.3498    0.7496 C   0  0  0  0  0  0  0  0  0  0  0  0
    0.0034    1.6255    1.9321 O   0  0  0  0  0  0  0  0  0  0  0  0
   -0.0153    2.3545   -0.1890 N   0  0  0  0  0  0  0  0  0  0  0  0
    0.0992    2.1033   -1.1662 H   0  0  0  0  0  0  0  0  0  0  0  0
   -0.2326    3.7529    0.1619 C   0  0  0  0  0  0  0  0  0  0  0  0
    0.6158    4.1392    0.7365 H   0  0  0  0  0  0  0  0  0  0  0  0
   -0.3420    4.3580   -0.7433 H   0  0  0  0  0  0  0  0  0  0  0  0
   -1.1429    3.8612    0.7611 H   0  0  0  0  0  0  0  0  0  0  0  0
  1  2  1  0  0  0  0
  2  3  1  0  0  0  0
  2  4  1  0  0  0  0
  2  5  1  0  0  0  0
  5  6  2  0  0  0  0
  5  7  1  0  0  0  0
  7  8  1  0  0  0  0
  7  9  1  0  0  0  0
  9 10  1  0  0  0  0
  9 11  1  0  0  0  0
  9 15  1  0  0  0  0
 11 12  1  0  0  0  0
 11 13  1  0  0  0  0
 11 14  1  0  0  0  0
 15 16  2  0  0  0  0
 15 17  1  0  0  0  0
 17 18  1  0  0  0  0
 17 19  1  0  0  0  0
 19 20  1  0  0  0  0
 19 21  1  0  0  0  0
 19 22  1  0  0  0  0
M  END
$$$$

  -OEChem-11182114133D

 22 21  0     1  0  0  0  0  0999 V2000
   -2.6292   -3.5965    1.3299 H   0  0  0  0  0  0  0  0  0  0  0  0
   -2.6361   -2.6058    0.8666 C   0  0  0  0  0  0  0  0  0  0  0  0
   -3.2326   -1.9330    1.4875 H   0  0  0  0  0  0  0  0  0  0  0  0
   -3.0937   -2.6830   -0.1225 H   0  0  0  0  0  0  0  0  0  0  0  0
   -1.2188   -2.0788    0.7420 C   0  0  0  0  0  0  0  0  0  0  0  0
   -0.2788   -2.7891    1.0576 O   0  0  0  0  0  0  0  0  0  0  0  0
   -1.0039   -0.8109    0.2381 N   0  0  0  0  0  0  0  0  0  0  0  0
   -1.8357   -0.2424    0.1092 H   0  0  0  0  0  0  0  0  0  0  0  0
    0.2910   -0.1162    0.3341 C   0  0  1  0  0  0  0  0  0  0  0  0
    0.9197   -0.5925    1.0959 H   0  0  0  0  0  0  0  0  0  0  0  0
    1.0039   -0.2351   -1.0169 C   0  0  0  0  0  0  0  0  0  0  0  0
    0.3935    0.1837   -1.8223 H   0  0  0  0  0  0  0  0  0  0  0  0
    1.9613    0.2944   -0.9887 H   0  0  0  0  0  0  0  0  0  0  0  0
    1.1999   -1.2881   -1.2435 H   0  0  0  0  0  0  0  0  0  0  0  0
    0.1194    1.3531    0.7729 C   0  0  0  0  0  0  0  0  0  0  0  0
    0.3056    1.6780    1.9361 O   0  0  0  0  0  0  0  0  0  0  0  0
   -0.3541    2.3001   -0.1189 N   0  0  0  0  0  0  0  0  0  0  0  0
   -0.4577    2.0158   -1.0882 H   0  0  0  0  0  0  0  0  0  0  0  0
   -0.5377    3.7042    0.2295 C   0  0  0  0  0  0  0  0  0  0  0  0
    0.4146    4.1513    0.5336 H   0  0  0  0  0  0  0  0  0  0  0  0
   -0.9226    4.2607   -0.6304 H   0  0  0  0  0  0  0  0  0  0  0  0
   -1.2525    3.8051    1.0531 H   0  0  0  0  0  0  0  0  0  0  0  0
  1  2  1  0  0  0  0
  2  3  1  0  0  0  0
  2  4  1  0  0  0  0
  2  5  1  0  0  0  0
  5  6  2  0  0  0  0
  5  7  1  0  0  0  0
  7  8  1  0  0  0  0
  7  9  1  0  0  0  0
  9 10  1  0  0  0  0
  9 11  1  0  0  0  0
  9 15  1  0  0  0  0
 11 12  1  0  0  0  0
 11 13  1  0  0  0  0
 11 14  1  0  0  0  0
 15 16  2  0  0  0  0
 15 17  1  0  0  0  0
 17 18  1  0  0  0  0
 17 19  1  0  0  0  0
 19 20  1  0  0  0  0
 19 21  1  0  0  0  0
 19 22  1  0  0  0  0
M  END
$$$$

  -OEChem-11182114133D

 22 21  0     1  0  0  0  0  0999 V2000
   -2.6198   -3.6278    1.3105 H   0  0  0  0  0  0  0  0  0  0  0  0
   -2.6319   -2.6332    0.8556 C   0  0  0  0  0  0  0  0  0  0  0  0
   -3.2383   -1.9708    1.4779 H   0  0  0  0  0  0  0  0  0  0  0  0
   -3.0821   -2.7059   -0.1372 H   0  0  0  0  0  0  0  0  0  0  0  0
   -1.2183   -2.0934    0.7457 C   0  0  0  0  0  0  0  0  0  0  0  0
   -0.2756   -2.7954    1.0700 O   0  0  0  0  0  0  0  0  0  0  0  0
   -1.0104   -0.8203    0.2517 N   0  0  0  0  0  0  0  0  0  0  0  0
   -1.8463   -0.2598    0.1167 H   0  0  0  0  0  0  0  0  0  0  0  0
    0.2810   -0.1171    0.3515 C   0  0  1  0  0  0  0  0  0  0  0  0
    0.9164   -0.5995    1.1039 H   0  0  0  0  0  0  0  0  0  0  0  0
    0.9889   -0.2038   -1.0034 C   0  0  0  0  0  0  0  0  0  0  0  0
    0.3811    0.2469   -1.7935 H   0  0  0  0  0  0  0  0  0  0  0  0
    1.9512    0.3161   -0.9611 H   0  0  0  0  0  0  0  0  0  0  0  0
    1.1746   -1.2512   -1.2621 H   0  0  0  0  0  0  0  0  0  0  0  0
    0.1060    1.3475    0.8010 C   0  0  0  0  0  0  0  0  0  0  0  0
    0.5890    1.7406    1.8524 O   0  0  0  0  0  0  0  0  0  0  0  0
   -0.6501    2.2204    0.0374 N   0  0  0  0  0  0  0  0  0  0  0  0
   -0.9461    1.8968   -0.8782 H   0  0  0  0  0  0  0  0  0  0  0  0
   -0.8233    3.6280    0.3769 C   0  0  0  0  0  0  0  0  0  0  0  0
    0.1450    4.1391    0.3992 H   0  0  0  0  0  0  0  0  0  0  0  0
   -1.4585    4.1210   -0.3650 H   0  0  0  0  0  0  0  0  0  0  0  0
   -1.2977    3.7300    1.3587 H   0  0  0  0  0  0  0  0  0  0  0  0
  1  2  1  0  0  0  0
  2  3  1  0  0  0  0
  2  4  1  0  0  0  0
  2  5  1  0  0  0  0
  5  6  2  0  0  0  0
  5  7  1  0  0  0  0
  7  8  1  0  0  0  0
  7  9  1  0  0  0  0
  9 10  1  0  0  0  0
  9 11  1  0  0  0  0
  9 15  1  0  0  0  0
 11 12  1  0  0  0  0
 11 13  1  0  0  0  0
 11 14  1  0  0  0  0
 15 16  2  0  0  0  0
 15 17  1  0  0  0  0
 17 18  1  0  0  0  0
 17 19  1  0  0  0  0
 19 20  1  0  0  0  0
 19 21  1  0  0  0  0
 19 22  1  0  0  0  0
M  END
$$$$

  -OEChem-11182114133D

 22 21  0     1  0  0  0  0  0999 V2000
   -2.6047   -3.6773    1.2634 H   0  0  0  0  0  0  0  0  0  0  0  0
   -2.6253   -2.6692    0.8392 C   0  0  0  0  0  0  0  0  0  0  0  0
   -3.2404   -2.0324    1.4794 H   0  0  0  0  0  0  0  0  0  0  0  0
   -3.0723   -2.7161   -0.1565 H   0  0  0  0  0  0  0  0  0  0  0  0
   -1.2167   -2.1120    0.7501 C   0  0  0  0  0  0  0  0  0  0  0  0
   -0.2710   -2.8022    1.0896 O   0  0  0  0  0  0  0  0  0  0  0  0
   -1.0182   -0.8337    0.2648 N   0  0  0  0  0  0  0  0  0  0  0  0
   -1.8594   -0.2843    0.1230 H   0  0  0  0  0  0  0  0  0  0  0  0
    0.2677   -0.1188    0.3720 C   0  0  1  0  0  0  0  0  0  0  0  0
    0.9077   -0.6051    1.1178 H   0  0  0  0  0  0  0  0  0  0  0  0
    0.9711   -0.1817   -0.9859 C   0  0  0  0  0  0  0  0  0  0  0  0
    0.3669    0.2981   -1.7615 H   0  0  0  0  0  0  0  0  0  0  0  0
    1.9398    0.3257   -0.9333 H   0  0  0  0  0  0  0  0  0  0  0  0
    1.1436   -1.2241   -1.2723 H   0  0  0  0  0  0  0  0  0  0  0  0
    0.0965    1.3438    0.8297 C   0  0  0  0  0  0  0  0  0  0  0  0
    0.8175    1.8130    1.6977 O   0  0  0  0  0  0  0  0  0  0  0  0
   -0.8881    2.1383    0.2660 N   0  0  0  0  0  0  0  0  0  0  0  0
   -1.3466    1.7801   -0.5651 H   0  0  0  0  0  0  0  0  0  0  0  0
   -1.0479    3.5498    0.5971 C   0  0  0  0  0  0  0  0  0  0  0  0
   -0.1523    4.1137    0.3159 H   0  0  0  0  0  0  0  0  0  0  0  0
   -1.9050    3.9697    0.0621 H   0  0  0  0  0  0  0  0  0  0  0  0
   -1.2193    3.6750    1.6715 H   0  0  0  0  0  0  0  0  0  0  0  0
  1  2  1  0  0  0  0
  2  3  1  0  0  0  0
  2  4  1  0  0  0  0
  2  5  1  0  0  0  0
  5  6  2  0  0  0  0
  5  7  1  0  0  0  0
  7  8  1  0  0  0  0
  7  9  1  0  0  0  0
  9 10  1  0  0  0  0
  9 11  1  0  0  0  0
  9 15  1  0  0  0  0
 11 12  1  0  0  0  0
 11 13  1  0  0  0  0
 11 14  1  0  0  0  0
 15 16  2  0  0  0  0
 15 17  1  0  0  0  0
 17 18  1  0  0  0  0
 17 19  1  0  0  0  0
 19 20  1  0  0  0  0
 19 21  1  0  0  0  0
 19 22  1  0  0  0  0
M  END
$$$$

  -OEChem-11182114133D

 22 21  0     1  0  0  0  0  0999 V2000
   -2.5324   -3.7782    1.1485 H   0  0  0  0  0  0  0  0  0  0  0  0
   -2.5696   -2.7770    0.7097 C   0  0  0  0  0  0  0  0  0  0  0  0
   -3.3829   -2.2185    1.1790 H   0  0  0  0  0  0  0  0  0  0  0  0
   -2.7682   -2.8710   -0.3605 H   0  0  0  0  0  0  0  0  0  0  0  0
   -1.2511   -2.0605    0.9343 C   0  0  0  0  0  0  0  0  0  0  0  0
   -0.3710   -2.6074    1.5755 O   0  0  0  0  0  0  0  0  0  0  0  0
   -1.0599   -0.8008    0.3985 N   0  0  0  0  0  0  0  0  0  0  0  0
   -1.7737   -0.4855   -0.2493 H   0  0  0  0  0  0  0  0  0  0  0  0
    0.2369   -0.0937    0.4053 C   0  0  1  0  0  0  0  0  0  0  0  0
    0.9197   -0.5656    1.1213 H   0  0  0  0  0  0  0  0  0  0  0  0
    0.8467   -0.2151   -0.9932 C   0  0  0  0  0  0  0  0  0  0  0  0
    0.2064    0.2658   -1.7388 H   0  0  0  0  0  0  0  0  0  0  0  0
    1.8306    0.2645   -1.0185 H   0  0  0  0  0  0  0  0  0  0  0  0
    0.9712   -1.2686   -1.2624 H   0  0  0  0  0  0  0  0  0  0  0  0
    0.1400    1.3900    0.8223 C   0  0  0  0  0  0  0  0  0  0  0  0
    1.1241    1.9651    1.2652 O   0  0  0  0  0  0  0  0  0  0  0  0
   -1.0034    2.1276    0.5669 N   0  0  0  0  0  0  0  0  0  0  0  0
   -1.8278    1.6163    0.2759 H   0  0  0  0  0  0  0  0  0  0  0  0
   -1.1373    3.5361    0.9198 C   0  0  0  0  0  0  0  0  0  0  0  0
   -0.3632    4.1311    0.4235 H   0  0  0  0  0  0  0  0  0  0  0  0
   -2.1150    3.9137    0.6058 H   0  0  0  0  0  0  0  0  0  0  0  0
   -1.0446    3.6705    2.0026 H   0  0  0  0  0  0  0  0  0  0  0  0
  1  2  1  0  0  0  0
  2  3  1  0  0  0  0
  2  4  1  0  0  0  0
  2  5  1  0  0  0  0
  5  6  2  0  0  0  0
  5  7  1  0  0  0  0
  7  8  1  0  0  0  0
  7  9  1  0  0  0  0
  9 10  1  0  0  0  0
  9 11  1  0  0  0  0
  9 15  1  0  0  0  0
 11 12  1  0  0  0  0
 11 13  1  0  0  0  0
 11 14  1  0  0  0  0
 15 16  2  0  0  0  0
 15 17  1  0  0  0  0
 17 18  1  0  0  0  0
 17 19  1  0  0  0  0
 19 20  1  0  0  0  0
 19 21  1  0  0  0  0
 19 22  1  0  0  0  0
M  END
$$$$

  -OEChem-11182114133D

 22 21  0     1  0  0  0  0  0999 V2000
   -2.5406   -3.7689    1.1499 H   0  0  0  0  0  0  0  0  0  0  0  0
   -2.5621   -2.7811    0.6803 C   0  0  0  0  0  0  0  0  0  0  0  0
   -3.3940   -2.2107    1.1006 H   0  0  0  0  0  0  0  0  0  0  0  0
   -2.7186   -2.9068   -0.3937 H   0  0  0  0  0  0  0  0  0  0  0  0
   -1.2540   -2.0551    0.9338 C   0  0  0  0  0  0  0  0  0  0  0  0
   -0.3864   -2.5909    1.6008 O   0  0  0  0  0  0  0  0  0  0  0  0
   -1.0610   -0.7943    0.4020 N   0  0  0  0  0  0  0  0  0  0  0  0
   -1.7587   -0.4893   -0.2694 H   0  0  0  0  0  0  0  0  0  0  0  0
    0.2391   -0.0932    0.4050 C   0  0  1  0  0  0  0  0  0  0  0  0
    0.9244   -0.5678    1.1164 H   0  0  0  0  0  0  0  0  0  0  0  0
    0.8374   -0.2167   -0.9995 C   0  0  0  0  0  0  0  0  0  0  0  0
    0.1987    0.2781   -1.7375 H   0  0  0  0  0  0  0  0  0  0  0  0
    1.8282    0.2482   -1.0312 H   0  0  0  0  0  0  0  0  0  0  0  0
    0.9444   -1.2704   -1.2756 H   0  0  0  0  0  0  0  0  0  0  0  0
    0.1440    1.3889    0.8298 C   0  0  0  0  0  0  0  0  0  0  0  0
    1.1624    2.0425    1.0082 O   0  0  0  0  0  0  0  0  0  0  0  0
   -1.0794    2.0352    0.8684 N   0  0  0  0  0  0  0  0  0  0  0  0
   -1.9026    1.4432    0.8548 H   0  0  0  0  0  0  0  0  0  0  0  0
   -1.2257    3.4317    1.2615 C   0  0  0  0  0  0  0  0  0  0  0  0
   -0.6396    4.0790    0.6004 H   0  0  0  0  0  0  0  0  0  0  0  0
   -2.2750    3.7354    1.1972 H   0  0  0  0  0  0  0  0  0  0  0  0
   -0.8836    3.5779    2.2914 H   0  0  0  0  0  0  0  0  0  0  0  0
  1  2  1  0  0  0  0
  2  3  1  0  0  0  0
  2  4  1  0  0  0  0
  2  5  1  0  0  0  0
  5  6  2  0  0  0  0
  5  7  1  0  0  0  0
  7  8  1  0  0  0  0
  7  9  1  0  0  0  0
  9 10  1  0  0  0  0
  9 11  1  0  0  0  0
  9 15  1  0  0  0  0
 11 12  1  0  0  0  0
 11 13  1  0  0  0  0
 11 14  1  0  0  0  0
 15 16  2  0  0  0  0
 15 17  1  0  0  0  0
 17 18  1  0  0  0  0
 17 19  1  0  0  0  0
 19 20  1  0  0  0  0
 19 21  1  0  0  0  0
 19 22  1  0  0  0  0
M  END
$$$$

  -OEChem-11182114133D

 22 21  0     1  0  0  0  0  0999 V2000
   -2.5549   -3.7536    1.1486 H   0  0  0  0  0  0  0  0  0  0  0  0
   -2.5650   -2.7718    0.6664 C   0  0  0  0  0  0  0  0  0  0  0  0
   -3.3980   -2.1913    1.0699 H   0  0  0  0  0  0  0  0  0  0  0  0
   -2.7109   -2.9102   -0.4076 H   0  0  0  0  0  0  0  0  0  0  0  0
   -1.2549   -2.0507    0.9247 C   0  0  0  0  0  0  0  0  0  0  0  0
   -0.3923   -2.5869    1.5980 O   0  0  0  0  0  0  0  0  0  0  0  0
   -1.0555   -0.7887    0.3986 N   0  0  0  0  0  0  0  0  0  0  0  0
   -1.7588   -0.4661   -0.2595 H   0  0  0  0  0  0  0  0  0  0  0  0
    0.2469   -0.0919    0.3998 C   0  0  1  0  0  0  0  0  0  0  0  0
    0.9329   -0.5693    1.1081 H   0  0  0  0  0  0  0  0  0  0  0  0
    0.8391   -0.2220   -1.0077 C   0  0  0  0  0  0  0  0  0  0  0  0
    0.2027    0.2805   -1.7426 H   0  0  0  0  0  0  0  0  0  0  0  0
    1.8354    0.2306   -1.0444 H   0  0  0  0  0  0  0  0  0  0  0  0
    0.9329   -1.2767   -1.2848 H   0  0  0  0  0  0  0  0  0  0  0  0
    0.1493    1.3891    0.8324 C   0  0  0  0  0  0  0  0  0  0  0  0
    1.1309    2.1175    0.7804 O   0  0  0  0  0  0  0  0  0  0  0  0
   -1.0736    1.9398    1.1734 N   0  0  0  0  0  0  0  0  0  0  0  0
   -1.8269    1.2821    1.3474 H   0  0  0  0  0  0  0  0  0  0  0  0
   -1.2274    3.3195    1.6193 C   0  0  0  0  0  0  0  0  0  0  0  0
   -0.8702    4.0132    0.8507 H   0  0  0  0  0  0  0  0  0  0  0  0
   -2.2813    3.5383    1.8159 H   0  0  0  0  0  0  0  0  0  0  0  0
   -0.6588    3.4904    2.5395 H   0  0  0  0  0  0  0  0  0  0  0  0
  1  2  1  0  0  0  0
  2  3  1  0  0  0  0
  2  4  1  0  0  0  0
  2  5  1  0  0  0  0
  5  6  2  0  0  0  0
  5  7  1  0  0  0  0
  7  8  1  0  0  0  0
  7  9  1  0  0  0  0
  9 10  1  0  0  0  0
  9 11  1  0  0  0  0
  9 15  1  0  0  0  0
 11 12  1  0  0  0  0
 11 13  1  0  0  0  0
 11 14  1  0  0  0  0
 15 16  2  0  0  0  0
 15 17  1  0  0  0  0
 17 18  1  0  0  0  0
 17 19  1  0  0  0  0
 19 20  1  0  0  0  0
 19 21  1  0  0  0  0
 19 22  1  0  0  0  0
M  END
$$$$

  -OEChem-11182114133D

 22 21  0     1  0  0  0  0  0999 V2000
   -2.5470   -3.7565    1.0875 H   0  0  0  0  0  0  0  0  0  0  0  0
   -2.5761   -2.7457    0.6707 C   0  0  0  0  0  0  0  0  0  0  0  0
   -3.3863   -2.1908    1.1495 H   0  0  0  0  0  0  0  0  0  0  0  0
   -2.7732   -2.8149   -0.4017 H   0  0  0  0  0  0  0  0  0  0  0  0
   -1.2530   -2.0438    0.9124 C   0  0  0  0  0  0  0  0  0  0  0  0
   -0.3894   -2.5902    1.5761 O   0  0  0  0  0  0  0  0  0  0  0  0
   -1.0449   -0.7816    0.3916 N   0  0  0  0  0  0  0  0  0  0  0  0
   -1.7632   -0.4297   -0.2352 H   0  0  0  0  0  0  0  0  0  0  0  0
    0.2596   -0.0899    0.3920 C   0  0  1  0  0  0  0  0  0  0  0  0
    0.9414   -0.5678    1.1039 H   0  0  0  0  0  0  0  0  0  0  0  0
    0.8556   -0.2310   -1.0138 C   0  0  0  0  0  0  0  0  0  0  0  0
    0.2298    0.2802   -1.7516 H   0  0  0  0  0  0  0  0  0  0  0  0
    1.8590    0.2056   -1.0480 H   0  0  0  0  0  0  0  0  0  0  0  0
    0.9341   -1.2873   -1.2892 H   0  0  0  0  0  0  0  0  0  0  0  0
    0.1542    1.3893    0.8315 C   0  0  0  0  0  0  0  0  0  0  0  0
    1.0406    2.1909    0.5686 O   0  0  0  0  0  0  0  0  0  0  0  0
   -0.9906    1.8425    1.4623 N   0  0  0  0  0  0  0  0  0  0  0  0
   -1.6408    1.1285    1.7769 H   0  0  0  0  0  0  0  0  0  0  0  0
   -1.1442    3.2055    1.9562 C   0  0  0  0  0  0  0  0  0  0  0  0
   -1.0205    3.9253    1.1402 H   0  0  0  0  0  0  0  0  0  0  0  0
   -2.1409    3.3420    2.3864 H   0  0  0  0  0  0  0  0  0  0  0  0
   -0.3991    3.4187    2.7299 H   0  0  0  0  0  0  0  0  0  0  0  0
  1  2  1  0  0  0  0
  2  3  1  0  0  0  0
  2  4  1  0  0  0  0
  2  5  1  0  0  0  0
  5  6  2  0  0  0  0
  5  7  1  0  0  0  0
  7  8  1  0  0  0  0
  7  9  1  0  0  0  0
  9 10  1  0  0  0  0
  9 11  1  0  0  0  0
  9 15  1  0  0  0  0
 11 12  1  0  0  0  0
 11 13  1  0  0  0  0
 11 14  1  0  0  0  0
 15 16  2  0  0  0  0
 15 17  1  0  0  0  0
 17 18  1  0  0  0  0
 17 19  1  0  0  0  0
 19 20  1  0  0  0  0
 19 21  1  0  0  0  0
 19 22  1  0  0  0  0
M  END
$$$$

  -OEChem-11182114133D

 22 21  0     1  0  0  0  0  0999 V2000
   -2.5678   -3.7304    1.0912 H   0  0  0  0  0  0  0  0  0  0  0  0
   -2.5861   -2.7205    0.6714 C   0  0  0  0  0  0  0  0  0  0  0  0
   -3.3876   -2.1542    1.1519 H   0  0  0  0  0  0  0  0  0  0  0  0
   -2.7882   -2.7904   -0.4002 H   0  0  0  0  0  0  0  0  0  0  0  0
   -1.2533   -2.0339    0.9048 C   0  0  0  0  0  0  0  0  0  0  0  0
   -0.3896   -2.5908    1.5599 O   0  0  0  0  0  0  0  0  0  0  0  0
   -1.0357   -0.7713    0.3904 N   0  0  0  0  0  0  0  0  0  0  0  0
   -1.7657   -0.3939   -0.2077 H   0  0  0  0  0  0  0  0  0  0  0  0
    0.2721   -0.0885    0.3874 C   0  0  1  0  0  0  0  0  0  0  0  0
    0.9535   -0.5704    1.0969 H   0  0  0  0  0  0  0  0  0  0  0  0
    0.8649   -0.2348   -1.0198 C   0  0  0  0  0  0  0  0  0  0  0  0
    0.2391    0.2778   -1.7569 H   0  0  0  0  0  0  0  0  0  0  0  0
    1.8699    0.1979   -1.0569 H   0  0  0  0  0  0  0  0  0  0  0  0
    0.9379   -1.2919   -1.2939 H   0  0  0  0  0  0  0  0  0  0  0  0
    0.1625    1.3873    0.8366 C   0  0  0  0  0  0  0  0  0  0  0  0
    0.8987    2.2525    0.3811 O   0  0  0  0  0  0  0  0  0  0  0  0
   -0.8249    1.7548    1.7324 N   0  0  0  0  0  0  0  0  0  0  0  0
   -1.3521    0.9982    2.1592 H   0  0  0  0  0  0  0  0  0  0  0  0
   -0.9696    3.1065    2.2584 C   0  0  0  0  0  0  0  0  0  0  0  0
   -1.1237    3.8209    1.4428 H   0  0  0  0  0  0  0  0  0  0  0  0
   -1.8311    3.1608    2.9308 H   0  0  0  0  0  0  0  0  0  0  0  0
   -0.0740    3.3977    2.8171 H   0  0  0  0  0  0  0  0  0  0  0  0
  1  2  1  0  0  0  0
  2  3  1  0  0  0  0
  2  4  1  0  0  0  0
  2  5  1  0  0  0  0
  5  6  2  0  0  0  0
  5  7  1  0  0  0  0
  7  8  1  0  0  0  0
  7  9  1  0  0  0  0
  9 10  1  0  0  0  0
  9 11  1  0  0  0  0
  9 15  1  0  0  0  0
 11 12  1  0  0  0  0
 11 13  1  0  0  0  0
 11 14  1  0  0  0  0
 15 16  2  0  0  0  0
 15 17  1  0  0  0  0
 17 18  1  0  0  0  0
 17 19  1  0  0  0  0
 19 20  1  0  0  0  0
 19 21  1  0  0  0  0
 19 22  1  0  0  0  0
M  END
$$$$

  -OEChem-11182114133D

 22 21  0     1  0  0  0  0  0999 V2000
   -2.5924   -3.6988    1.1041 H   0  0  0  0  0  0  0  0  0  0  0  0
   -2.5985   -2.6914    0.6783 C   0  0  0  0  0  0  0  0  0  0  0  0
   -3.3881   -2.1099    1.1603 H   0  0  0  0  0  0  0  0  0  0  0  0
   -2.8090   -2.7642   -0.3915 H   0  0  0  0  0  0  0  0  0  0  0  0
   -1.2542   -2.0237    0.8983 C   0  0  0  0  0  0  0  0  0  0  0  0
   -0.3910   -2.5926    1.5443 O   0  0  0  0  0  0  0  0  0  0  0  0
   -1.0261   -0.7610    0.3897 N   0  0  0  0  0  0  0  0  0  0  0  0
   -1.7626   -0.3628   -0.1866 H   0  0  0  0  0  0  0  0  0  0  0  0
    0.2861   -0.0896    0.3839 C   0  0  1  0  0  0  0  0  0  0  0  0
    0.9680   -0.5771    1.0888 H   0  0  0  0  0  0  0  0  0  0  0  0
    0.8758   -0.2359   -1.0248 C   0  0  0  0  0  0  0  0  0  0  0  0
    0.2437    0.2686   -1.7622 H   0  0  0  0  0  0  0  0  0  0  0  0
    1.8767    0.2055   -1.0658 H   0  0  0  0  0  0  0  0  0  0  0  0
    0.9564   -1.2933   -1.2952 H   0  0  0  0  0  0  0  0  0  0  0  0
    0.1746    1.3827    0.8427 C   0  0  0  0  0  0  0  0  0  0  0  0
    0.7076    2.2960    0.2260 O   0  0  0  0  0  0  0  0  0  0  0  0
   -0.5881    1.6836    1.9558 N   0  0  0  0  0  0  0  0  0  0  0  0
   -0.9679    0.8968    2.4754 H   0  0  0  0  0  0  0  0  0  0  0  0
   -0.7239    3.0289    2.5000 C   0  0  0  0  0  0  0  0  0  0  0  0
   -1.1548    3.7029    1.7521 H   0  0  0  0  0  0  0  0  0  0  0  0
   -1.3814    3.0188    3.3745 H   0  0  0  0  0  0  0  0  0  0  0  0
    0.2528    3.4188    2.8051 H   0  0  0  0  0  0  0  0  0  0  0  0
  1  2  1  0  0  0  0
  2  3  1  0  0  0  0
  2  4  1  0  0  0  0
  2  5  1  0  0  0  0
  5  6  2  0  0  0  0
  5  7  1  0  0  0  0
  7  8  1  0  0  0  0
  7  9  1  0  0  0  0
  9 10  1  0  0  0  0
  9 11  1  0  0  0  0
  9 15  1  0  0  0  0
 11 12  1  0  0  0  0
 11 13  1  0  0  0  0
 11 14  1  0  0  0  0
 15 16  2  0  0  0  0
 15 17  1  0  0  0  0
 17 18  1  0  0  0  0
 17 19  1  0  0  0  0
 19 20  1  0  0  0  0
 19 21  1  0  0  0  0
 19 22  1  0  0  0  0
M  END
$$$$

  -OEChem-11182114133D

 22 21  0     1  0  0  0  0  0999 V2000
   -2.6132   -3.6710    1.1127 H   0  0  0  0  0  0  0  0  0  0  0  0
   -2.6105   -2.6624    0.6899 C   0  0  0  0  0  0  0  0  0  0  0  0
   -3.3863   -2.0718    1.1829 H   0  0  0  0  0  0  0  0  0  0  0  0
   -2.8348   -2.7294   -0.3773 H   0  0  0  0  0  0  0  0  0  0  0  0
   -1.2550   -2.0131    0.8959 C   0  0  0  0  0  0  0  0  0  0  0  0
   -0.3914   -2.5950    1.5303 O   0  0  0  0  0  0  0  0  0  0  0  0
   -1.0155   -0.7508    0.3921 N   0  0  0  0  0  0  0  0  0  0  0  0
   -1.7546   -0.3338   -0.1677 H   0  0  0  0  0  0  0  0  0  0  0  0
    0.3028   -0.0948    0.3828 C   0  0  1  0  0  0  0  0  0  0  0  0
    0.9864   -0.5928    1.0785 H   0  0  0  0  0  0  0  0  0  0  0  0
    0.8838   -0.2348   -1.0299 C   0  0  0  0  0  0  0  0  0  0  0  0
    0.2404    0.2609   -1.7637 H   0  0  0  0  0  0  0  0  0  0  0  0
    1.8783    0.2203   -1.0773 H   0  0  0  0  0  0  0  0  0  0  0  0
    0.9754   -1.2912   -1.3001 H   0  0  0  0  0  0  0  0  0  0  0  0
    0.1988    1.3740    0.8506 C   0  0  0  0  0  0  0  0  0  0  0  0
    0.4906    2.3114    0.1190 O   0  0  0  0  0  0  0  0  0  0  0  0
   -0.2845    1.6377    2.1184 N   0  0  0  0  0  0  0  0  0  0  0  0
   -0.5161    0.8363    2.6998 H   0  0  0  0  0  0  0  0  0  0  0  0
   -0.4278    2.9811    2.6649 C   0  0  0  0  0  0  0  0  0  0  0  0
   -1.1096    3.5748    2.0470 H   0  0  0  0  0  0  0  0  0  0  0  0
   -0.8330    2.9351    3.6802 H   0  0  0  0  0  0  0  0  0  0  0  0
    0.5437    3.4849    2.7025 H   0  0  0  0  0  0  0  0  0  0  0  0
  1  2  1  0  0  0  0
  2  3  1  0  0  0  0
  2  4  1  0  0  0  0
  2  5  1  0  0  0  0
  5  6  2  0  0  0  0
  5  7  1  0  0  0  0
  7  8  1  0  0  0  0
  7  9  1  0  0  0  0
  9 10  1  0  0  0  0
  9 11  1  0  0  0  0
  9 15  1  0  0  0  0
 11 12  1  0  0  0  0
 11 13  1  0  0  0  0
 11 14  1  0  0  0  0
 15 16  2  0  0  0  0
 15 17  1  0  0  0  0
 17 18  1  0  0  0  0
 17 19  1  0  0  0  0
 19 20  1  0  0  0  0
 19 21  1  0  0  0  0
 19 22  1  0  0  0  0
M  END
$$$$

  -OEChem-11182114133D

 22 21  0     1  0  0  0  0  0999 V2000
   -2.6375   -3.6405    1.1361 H   0  0  0  0  0  0  0  0  0  0  0  0
   -2.6233   -2.6342    0.7078 C   0  0  0  0  0  0  0  0  0  0  0  0
   -3.3789   -2.0264    1.2112 H   0  0  0  0  0  0  0  0  0  0  0  0
   -2.8677   -2.7015   -0.3551 H   0  0  0  0  0  0  0  0  0  0  0  0
   -1.2521   -2.0102    0.8865 C   0  0  0  0  0  0  0  0  0  0  0  0
   -0.3829   -2.6124    1.4946 O   0  0  0  0  0  0  0  0  0  0  0  0
   -1.0024   -0.7485    0.3870 N   0  0  0  0  0  0  0  0  0  0  0  0
   -1.7493   -0.3045   -0.1411 H   0  0  0  0  0  0  0  0  0  0  0  0
    0.3189   -0.1020    0.3796 C   0  0  1  0  0  0  0  0  0  0  0  0
    1.0014   -0.6081    1.0706 H   0  0  0  0  0  0  0  0  0  0  0  0
    0.8980   -0.2332   -1.0344 C   0  0  0  0  0  0  0  0  0  0  0  0
    0.2460    0.2530   -1.7670 H   0  0  0  0  0  0  0  0  0  0  0  0
    1.8857    0.2359   -1.0841 H   0  0  0  0  0  0  0  0  0  0  0  0
    1.0027   -1.2883   -1.3052 H   0  0  0  0  0  0  0  0  0  0  0  0
    0.2202    1.3647    0.8519 C   0  0  0  0  0  0  0  0  0  0  0  0
    0.2384    2.2996    0.0613 O   0  0  0  0  0  0  0  0  0  0  0  0
    0.0429    1.6250    2.1975 N   0  0  0  0  0  0  0  0  0  0  0  0
   -0.0127    0.8238    2.8213 H   0  0  0  0  0  0  0  0  0  0  0  0
   -0.1026    2.9670    2.7471 C   0  0  0  0  0  0  0  0  0  0  0  0
   -0.9819    3.4624    2.3220 H   0  0  0  0  0  0  0  0  0  0  0  0
   -0.2241    2.9192    3.8334 H   0  0  0  0  0  0  0  0  0  0  0  0
    0.7840    3.5701    2.5246 H   0  0  0  0  0  0  0  0  0  0  0  0
  1  2  1  0  0  0  0
  2  3  1  0  0  0  0
  2  4  1  0  0  0  0
  2  5  1  0  0  0  0
  5  6  2  0  0  0  0
  5  7  1  0  0  0  0
  7  8  1  0  0  0  0
  7  9  1  0  0  0  0
  9 10  1  0  0  0  0
  9 11  1  0  0  0  0
  9 15  1  0  0  0  0
 11 12  1  0  0  0  0
 11 13  1  0  0  0  0
 11 14  1  0  0  0  0
 15 16  2  0  0  0  0
 15 17  1  0  0  0  0
 17 18  1  0  0  0  0
 17 19  1  0  0  0  0
 19 20  1  0  0  0  0
 19 21  1  0  0  0  0
 19 22  1  0  0  0  0
M  END
$$$$

  -OEChem-11182114133D

 22 21  0     1  0  0  0  0  0999 V2000
   -2.6596   -3.6147    1.1573 H   0  0  0  0  0  0  0  0  0  0  0  0
   -2.6354   -2.6091    0.7281 C   0  0  0  0  0  0  0  0  0  0  0  0
   -3.3685   -1.9870    1.2472 H   0  0  0  0  0  0  0  0  0  0  0  0
   -2.9038   -2.6723   -0.3292 H   0  0  0  0  0  0  0  0  0  0  0  0
   -1.2489   -2.0113    0.8765 C   0  0  0  0  0  0  0  0  0  0  0  0
   -0.3728   -2.6375    1.4503 O   0  0  0  0  0  0  0  0  0  0  0  0
   -0.9884   -0.7511    0.3793 N   0  0  0  0  0  0  0  0  0  0  0  0
   -1.7449   -0.2760   -0.1072 H   0  0  0  0  0  0  0  0  0  0  0  0
    0.3351   -0.1118    0.3750 C   0  0  1  0  0  0  0  0  0  0  0  0
    1.0151   -0.6264    1.0621 H   0  0  0  0  0  0  0  0  0  0  0  0
    0.9134   -0.2315   -1.0395 C   0  0  0  0  0  0  0  0  0  0  0  0
    0.2575    0.2542   -1.7691 H   0  0  0  0  0  0  0  0  0  0  0  0
    1.8978    0.2440   -1.0880 H   0  0  0  0  0  0  0  0  0  0  0  0
    1.0232   -1.2846   -1.3159 H   0  0  0  0  0  0  0  0  0  0  0  0
    0.2425    1.3542    0.8473 C   0  0  0  0  0  0  0  0  0  0  0  0
   -0.0226    2.2568    0.0630 O   0  0  0  0  0  0  0  0  0  0  0  0
    0.3772    1.6460    2.1917 N   0  0  0  0  0  0  0  0  0  0  0  0
    0.5161    0.8638    2.8261 H   0  0  0  0  0  0  0  0  0  0  0  0
    0.2290    2.9876    2.7416 C   0  0  0  0  0  0  0  0  0  0  0  0
   -0.7774    3.3727    2.5464 H   0  0  0  0  0  0  0  0  0  0  0  0
    0.3902    2.9726    3.8237 H   0  0  0  0  0  0  0  0  0  0  0  0
    0.9605    3.6681    2.2931 H   0  0  0  0  0  0  0  0  0  0  0  0
  1  2  1  0  0  0  0
  2  3  1  0  0  0  0
  2  4  1  0  0  0  0
  2  5  1  0  0  0  0
  5  6  2  0  0  0  0
  5  7  1  0  0  0  0
  7  8  1  0  0  0  0
  7  9  1  0  0  0  0
  9 10  1  0  0  0  0
  9 11  1  0  0  0  0
  9 15  1  0  0  0  0
 11 12  1  0  0  0  0
 11 13  1  0  0  0  0
 11 14  1  0  0  0  0
 15 16  2  0  0  0  0
 15 17  1  0  0  0  0
 17 18  1  0  0  0  0
 17 19  1  0  0  0  0
 19 20  1  0  0  0  0
 19 21  1  0  0  0  0
 19 22  1  0  0  0  0
M  END
$$$$

  -OEChem-11182114133D

 22 21  0     1  0  0  0  0  0999 V2000
   -2.6801   -3.5905    1.1848 H   0  0  0  0  0  0  0  0  0  0  0  0
   -2.6469   -2.5861    0.7533 C   0  0  0  0  0  0  0  0  0  0  0  0
   -3.3508   -1.9477    1.2926 H   0  0  0  0  0  0  0  0  0  0  0  0
   -2.9475   -2.6441   -0.2955 H   0  0  0  0  0  0  0  0  0  0  0  0
   -1.2443   -2.0178    0.8598 C   0  0  0  0  0  0  0  0  0  0  0  0
   -0.3616   -2.6683    1.3958 O   0  0  0  0  0  0  0  0  0  0  0  0
   -0.9744   -0.7598    0.3625 N   0  0  0  0  0  0  0  0  0  0  0  0
   -1.7425   -0.2481   -0.0662 H   0  0  0  0  0  0  0  0  0  0  0  0
    0.3496   -0.1232    0.3662 C   0  0  1  0  0  0  0  0  0  0  0  0
    1.0242   -0.6428    1.0546 H   0  0  0  0  0  0  0  0  0  0  0  0
    0.9343   -0.2305   -1.0459 C   0  0  0  0  0  0  0  0  0  0  0  0
    0.2833    0.2655   -1.7732 H   0  0  0  0  0  0  0  0  0  0  0  0
    1.9211    0.2410   -1.0853 H   0  0  0  0  0  0  0  0  0  0  0  0
    1.0406   -1.2813   -1.3327 H   0  0  0  0  0  0  0  0  0  0  0  0
    0.2572    1.3437    0.8338 C   0  0  0  0  0  0  0  0  0  0  0  0
   -0.2667    2.1910    0.1208 O   0  0  0  0  0  0  0  0  0  0  0  0
    0.6824    1.6949    2.1017 N   0  0  0  0  0  0  0  0  0  0  0  0
    1.0242    0.9495    2.7025 H   0  0  0  0  0  0  0  0  0  0  0  0
    0.5425    3.0379    2.6514 C   0  0  0  0  0  0  0  0  0  0  0  0
   -0.5142    3.3185    2.7148 H   0  0  0  0  0  0  0  0  0  0  0  0
    0.9734    3.0815    3.6564 H   0  0  0  0  0  0  0  0  0  0  0  0
    1.0637    3.7664    2.0211 H   0  0  0  0  0  0  0  0  0  0  0  0
  1  2  1  0  0  0  0
  2  3  1  0  0  0  0
  2  4  1  0  0  0  0
  2  5  1  0  0  0  0
  5  6  2  0  0  0  0
  5  7  1  0  0  0  0
  7  8  1  0  0  0  0
  7  9  1  0  0  0  0
  9 10  1  0  0  0  0
  9 11  1  0  0  0  0
  9 15  1  0  0  0  0
 11 12  1  0  0  0  0
 11 13  1  0  0  0  0
 11 14  1  0  0  0  0
 15 16  2  0  0  0  0
 15 17  1  0  0  0  0
 17 18  1  0  0  0  0
 17 19  1  0  0  0  0
 19 20  1  0  0  0  0
 19 21  1  0  0  0  0
 19 22  1  0  0  0  0
M  END
$$$$

  -OEChem-11182114133D

 22 21  0     1  0  0  0  0  0999 V2000
   -2.6946   -3.5655    1.2187 H   0  0  0  0  0  0  0  0  0  0  0  0
   -2.6556   -2.5620    0.7857 C   0  0  0  0  0  0  0  0  0  0  0  0
   -3.3214   -1.9074    1.3532 H   0  0  0  0  0  0  0  0  0  0  0  0
   -2.9998   -2.6119   -0.2501 H   0  0  0  0  0  0  0  0  0  0  0  0
   -1.2373   -2.0265    0.8347 C   0  0  0  0  0  0  0  0  0  0  0  0
   -0.3463   -2.7022    1.3240 O   0  0  0  0  0  0  0  0  0  0  0  0
   -0.9615   -0.7705    0.3363 N   0  0  0  0  0  0  0  0  0  0  0  0
   -1.7422   -0.2204   -0.0167 H   0  0  0  0  0  0  0  0  0  0  0  0
    0.3613   -0.1330    0.3515 C   0  0  1  0  0  0  0  0  0  0  0  0
    1.0265   -0.6534    1.0481 H   0  0  0  0  0  0  0  0  0  0  0  0
    0.9601   -0.2325   -1.0538 C   0  0  0  0  0  0  0  0  0  0  0  0
    0.3237    0.2808   -1.7821 H   0  0  0  0  0  0  0  0  0  0  0  0
    1.9539    0.2248   -1.0769 H   0  0  0  0  0  0  0  0  0  0  0  0
    1.0545   -1.2817   -1.3509 H   0  0  0  0  0  0  0  0  0  0  0  0
    0.2629    1.3350    0.8120 C   0  0  0  0  0  0  0  0  0  0  0  0
   -0.4844    2.1109    0.2278 O   0  0  0  0  0  0  0  0  0  0  0  0
    0.9415    1.7639    1.9378 N   0  0  0  0  0  0  0  0  0  0  0  0
    1.4812    1.0728    2.4515 H   0  0  0  0  0  0  0  0  0  0  0  0
    0.8149    3.1097    2.4836 C   0  0  0  0  0  0  0  0  0  0  0  0
   -0.2189    3.3043    2.7874 H   0  0  0  0  0  0  0  0  0  0  0  0
    1.4606    3.2250    3.3594 H   0  0  0  0  0  0  0  0  0  0  0  0
    1.1093    3.8557    1.7380 H   0  0  0  0  0  0  0  0  0  0  0  0
  1  2  1  0  0  0  0
  2  3  1  0  0  0  0
  2  4  1  0  0  0  0
  2  5  1  0  0  0  0
  5  6  2  0  0  0  0
  5  7  1  0  0  0  0
  7  8  1  0  0  0  0
  7  9  1  0  0  0  0
  9 10  1  0  0  0  0
  9 11  1  0  0  0  0
  9 15  1  0  0  0  0
 11 12  1  0  0  0  0
 11 13  1  0  0  0  0
 11 14  1  0  0  0  0
 15 16  2  0  0  0  0
 15 17  1  0  0  0  0
 17 18  1  0  0  0  0
 17 19  1  0  0  0  0
 19 20  1  0  0  0  0
 19 21  1  0  0  0  0
 19 22  1  0  0  0  0
M  END
$$$$

  -OEChem-11182114133D

 22 21  0     1  0  0  0  0  0999 V2000
   -2.6960   -3.5558    1.2531 H   0  0  0  0  0  0  0  0  0  0  0  0
   -2.6591   -2.5561    0.8114 C   0  0  0  0  0  0  0  0  0  0  0  0
   -3.2953   -1.8884    1.3973 H   0  0  0  0  0  0  0  0  0  0  0  0
   -3.0406   -2.6081   -0.2112 H   0  0  0  0  0  0  0  0  0  0  0  0
   -1.2326   -2.0402    0.8056 C   0  0  0  0  0  0  0  0  0  0  0  0
   -0.3311   -2.7340    1.2484 O   0  0  0  0  0  0  0  0  0  0  0  0
   -0.9605   -0.7831    0.3083 N   0  0  0  0  0  0  0  0  0  0  0  0
   -1.7523   -0.2041    0.0336 H   0  0  0  0  0  0  0  0  0  0  0  0
    0.3582   -0.1374    0.3408 C   0  0  1  0  0  0  0  0  0  0  0  0
    1.0140   -0.6541    1.0491 H   0  0  0  0  0  0  0  0  0  0  0  0
    0.9757   -0.2287   -1.0562 C   0  0  0  0  0  0  0  0  0  0  0  0
    0.3448    0.2833   -1.7898 H   0  0  0  0  0  0  0  0  0  0  0  0
    1.9672    0.2341   -1.0660 H   0  0  0  0  0  0  0  0  0  0  0  0
    1.0796   -1.2764   -1.3555 H   0  0  0  0  0  0  0  0  0  0  0  0
    0.2505    1.3316    0.7968 C   0  0  0  0  0  0  0  0  0  0  0  0
   -0.6593    2.0368    0.3754 O   0  0  0  0  0  0  0  0  0  0  0  0
    1.1345    1.8457    1.7274 N   0  0  0  0  0  0  0  0  0  0  0  0
    1.8377    1.2172    2.1055 H   0  0  0  0  0  0  0  0  0  0  0  0
    1.0509    3.2060    2.2446 C   0  0  0  0  0  0  0  0  0  0  0  0
    0.0866    3.3710    2.7365 H   0  0  0  0  0  0  0  0  0  0  0  0
    1.8458    3.3824    2.9754 H   0  0  0  0  0  0  0  0  0  0  0  0
    1.1612    3.9322    1.4325 H   0  0  0  0  0  0  0  0  0  0  0  0
  1  2  1  0  0  0  0
  2  3  1  0  0  0  0
  2  4  1  0  0  0  0
  2  5  1  0  0  0  0
  5  6  2  0  0  0  0
  5  7  1  0  0  0  0
  7  8  1  0  0  0  0
  7  9  1  0  0  0  0
  9 10  1  0  0  0  0
  9 11  1  0  0  0  0
  9 15  1  0  0  0  0
 11 12  1  0  0  0  0
 11 13  1  0  0  0  0
 11 14  1  0  0  0  0
 15 16  2  0  0  0  0
 15 17  1  0  0  0  0
 17 18  1  0  0  0  0
 17 19  1  0  0  0  0
 19 20  1  0  0  0  0
 19 21  1  0  0  0  0
 19 22  1  0  0  0  0
M  END
$$$$

  -OEChem-11182114133D

 22 21  0     1  0  0  0  0  0999 V2000
   -2.6985   -3.5399    1.2833 H   0  0  0  0  0  0  0  0  0  0  0  0
   -2.6613   -2.5421    0.8372 C   0  0  0  0  0  0  0  0  0  0  0  0
   -3.2632   -1.8621    1.4448 H   0  0  0  0  0  0  0  0  0  0  0  0
   -3.0827   -2.5902   -0.1696 H   0  0  0  0  0  0  0  0  0  0  0  0
   -1.2279   -2.0497    0.7749 C   0  0  0  0  0  0  0  0  0  0  0  0
   -0.3196   -2.7609    1.1744 O   0  0  0  0  0  0  0  0  0  0  0  0
   -0.9584   -0.7933    0.2752 N   0  0  0  0  0  0  0  0  0  0  0  0
   -1.7568   -0.1913    0.0787 H   0  0  0  0  0  0  0  0  0  0  0  0
    0.3568   -0.1415    0.3282 C   0  0  1  0  0  0  0  0  0  0  0  0
    1.0009   -0.6516    1.0521 H   0  0  0  0  0  0  0  0  0  0  0  0
    0.9968   -0.2337   -1.0583 C   0  0  0  0  0  0  0  0  0  0  0  0
    0.3776    0.2791   -1.8014 H   0  0  0  0  0  0  0  0  0  0  0  0
    1.9889    0.2278   -1.0532 H   0  0  0  0  0  0  0  0  0  0  0  0
    1.1040   -1.2816   -1.3558 H   0  0  0  0  0  0  0  0  0  0  0  0
    0.2387    1.3301    0.7753 C   0  0  0  0  0  0  0  0  0  0  0  0
   -0.7873    1.9613    0.5453 O   0  0  0  0  0  0  0  0  0  0  0  0
    1.2693    1.9370    1.4688 N   0  0  0  0  0  0  0  0  0  0  0  0
    2.0889    1.3756    1.6816 H   0  0  0  0  0  0  0  0  0  0  0  0
    1.2059    3.3091    1.9573 C   0  0  0  0  0  0  0  0  0  0  0  0
    0.3689    3.4301    2.6532 H   0  0  0  0  0  0  0  0  0  0  0  0
    2.1313    3.5670    2.4815 H   0  0  0  0  0  0  0  0  0  0  0  0
    1.0752    4.0067    1.1233 H   0  0  0  0  0  0  0  0  0  0  0  0
  1  2  1  0  0  0  0
  2  3  1  0  0  0  0
  2  4  1  0  0  0  0
  2  5  1  0  0  0  0
  5  6  2  0  0  0  0
  5  7  1  0  0  0  0
  7  8  1  0  0  0  0
  7  9  1  0  0  0  0
  9 10  1  0  0  0  0
  9 11  1  0  0  0  0
  9 15  1  0  0  0  0
 11 12  1  0  0  0  0
 11 13  1  0  0  0  0
 11 14  1  0  0  0  0
 15 16  2  0  0  0  0
 15 17  1  0  0  0  0
 17 18  1  0  0  0  0
 17 19  1  0  0  0  0
 19 20  1  0  0  0  0
 19 21  1  0  0  0  0
 19 22  1  0  0  0  0
M  END
$$$$

  -OEChem-11182114133D

 22 21  0     1  0  0  0  0  0999 V2000
   -2.6926   -3.5386    1.2970 H   0  0  0  0  0  0  0  0  0  0  0  0
   -2.6594   -2.5434    0.8449 C   0  0  0  0  0  0  0  0  0  0  0  0
   -3.2508   -1.8584    1.4575 H   0  0  0  0  0  0  0  0  0  0  0  0
   -3.0950   -2.5955   -0.1559 H   0  0  0  0  0  0  0  0  0  0  0  0
   -1.2257   -2.0554    0.7587 C   0  0  0  0  0  0  0  0  0  0  0  0
   -0.3116   -2.7751    1.1292 O   0  0  0  0  0  0  0  0  0  0  0  0
   -0.9626   -0.7978    0.2581 N   0  0  0  0  0  0  0  0  0  0  0  0
   -1.7652   -0.1844    0.1210 H   0  0  0  0  0  0  0  0  0  0  0  0
    0.3497   -0.1407    0.3259 C   0  0  1  0  0  0  0  0  0  0  0  0
    0.9880   -0.6457    1.0585 H   0  0  0  0  0  0  0  0  0  0  0  0
    0.9993   -0.2395   -1.0564 C   0  0  0  0  0  0  0  0  0  0  0  0
    0.3867    0.2733   -1.8049 H   0  0  0  0  0  0  0  0  0  0  0  0
    1.9939    0.2160   -1.0477 H   0  0  0  0  0  0  0  0  0  0  0  0
    1.1031   -1.2889   -1.3500 H   0  0  0  0  0  0  0  0  0  0  0  0
    0.2264    1.3329    0.7690 C   0  0  0  0  0  0  0  0  0  0  0  0
   -0.8641    1.8941    0.7469 O   0  0  0  0  0  0  0  0  0  0  0  0
    1.3408    2.0343    1.1912 N   0  0  0  0  0  0  0  0  0  0  0  0
    2.2278    1.5396    1.2163 H   0  0  0  0  0  0  0  0  0  0  0  0
    1.2921    3.4231    1.6318 C   0  0  0  0  0  0  0  0  0  0  0  0
    0.6230    3.5286    2.4922 H   0  0  0  0  0  0  0  0  0  0  0  0
    2.2898    3.7622    1.9266 H   0  0  0  0  0  0  0  0  0  0  0  0
    0.9322    4.0688    0.8238 H   0  0  0  0  0  0  0  0  0  0  0  0
  1  2  1  0  0  0  0
  2  3  1  0  0  0  0
  2  4  1  0  0  0  0
  2  5  1  0  0  0  0
  5  6  2  0  0  0  0
  5  7  1  0  0  0  0
  7  8  1  0  0  0  0
  7  9  1  0  0  0  0
  9 10  1  0  0  0  0
  9 11  1  0  0  0  0
  9 15  1  0  0  0  0
 11 12  1  0  0  0  0
 11 13  1  0  0  0  0
 11 14  1  0  0  0  0
 15 16  2  0  0  0  0
 15 17  1  0  0  0  0
 17 18  1  0  0  0  0
 17 19  1  0  0  0  0
 19 20  1  0  0  0  0
 19 21  1  0  0  0  0
 19 22  1  0  0  0  0
M  END
$$$$

  -OEChem-11182114133D

 22 21  0     1  0  0  0  0  0999 V2000
   -2.6705   -3.5114    1.3458 H   0  0  0  0  0  0  0  0  0  0  0  0
   -2.6470   -2.5152    0.8950 C   0  0  0  0  0  0  0  0  0  0  0  0
   -3.1784   -1.8202    1.5499 H   0  0  0  0  0  0  0  0  0  0  0  0
   -3.1530   -2.5534   -0.0726 H   0  0  0  0  0  0  0  0  0  0  0  0
   -1.2122   -2.0583    0.7101 C   0  0  0  0  0  0  0  0  0  0  0  0
   -0.2932   -2.8063    1.0051 O   0  0  0  0  0  0  0  0  0  0  0  0
   -0.9589   -0.7993    0.2060 N   0  0  0  0  0  0  0  0  0  0  0  0
   -1.7620   -0.1728    0.1879 H   0  0  0  0  0  0  0  0  0  0  0  0
    0.3543   -0.1426    0.2960 C   0  0  1  0  0  0  0  0  0  0  0  0
    1.0741   -0.7803    0.8199 H   0  0  0  0  0  0  0  0  0  0  0  0
    0.8481    0.0834   -1.1360 C   0  0  0  0  0  0  0  0  0  0  0  0
    0.1673    0.7492   -1.6762 H   0  0  0  0  0  0  0  0  0  0  0  0
    1.8466    0.5303   -1.1358 H   0  0  0  0  0  0  0  0  0  0  0  0
    0.8997   -0.8707   -1.6704 H   0  0  0  0  0  0  0  0  0  0  0  0
    0.2765    1.1888    1.0776 C   0  0  0  0  0  0  0  0  0  0  0  0
   -0.8045    1.6086    1.4776 O   0  0  0  0  0  0  0  0  0  0  0  0
    1.4096    1.9576    1.2733 N   0  0  0  0  0  0  0  0  0  0  0  0
    2.2953    1.5806    0.9490 H   0  0  0  0  0  0  0  0  0  0  0  0
    1.4025    3.2260    1.9923 C   0  0  0  0  0  0  0  0  0  0  0  0
    1.0551    3.0813    3.0208 H   0  0  0  0  0  0  0  0  0  0  0  0
    2.4113    3.6486    2.0245 H   0  0  0  0  0  0  0  0  0  0  0  0
    0.7429    3.9451    1.4951 H   0  0  0  0  0  0  0  0  0  0  0  0
  1  2  1  0  0  0  0
  2  3  1  0  0  0  0
  2  4  1  0  0  0  0
  2  5  1  0  0  0  0
  5  6  2  0  0  0  0
  5  7  1  0  0  0  0
  7  8  1  0  0  0  0
  7  9  1  0  0  0  0
  9 10  1  0  0  0  0
  9 11  1  0  0  0  0
  9 15  1  0  0  0  0
 11 12  1  0  0  0  0
 11 13  1  0  0  0  0
 11 14  1  0  0  0  0
 15 16  2  0  0  0  0
 15 17  1  0  0  0  0
 17 18  1  0  0  0  0
 17 19  1  0  0  0  0
 19 20  1  0  0  0  0
 19 21  1  0  0  0  0
 19 22  1  0  0  0  0
M  END
$$$$

  -OEChem-11182114133D

 22 21  0     1  0  0  0  0  0999 V2000
   -2.6638   -3.5022    1.3626 H   0  0  0  0  0  0  0  0  0  0  0  0
   -2.6438   -2.5075    0.9087 C   0  0  0  0  0  0  0  0  0  0  0  0
   -3.1572   -1.8079    1.5730 H   0  0  0  0  0  0  0  0  0  0  0  0
   -3.1699   -2.5452   -0.0481 H   0  0  0  0  0  0  0  0  0  0  0  0
   -1.2108   -2.0589    0.6927 C   0  0  0  0  0  0  0  0  0  0  0  0
   -0.2901   -2.8164    0.9563 O   0  0  0  0  0  0  0  0  0  0  0  0
   -0.9624   -0.7985    0.1891 N   0  0  0  0  0  0  0  0  0  0  0  0
   -1.7655   -0.1727    0.2012 H   0  0  0  0  0  0  0  0  0  0  0  0
    0.3508   -0.1424    0.2906 C   0  0  1  0  0  0  0  0  0  0  0  0
    1.0645   -0.7778    0.8255 H   0  0  0  0  0  0  0  0  0  0  0  0
    0.8598    0.0666   -1.1402 C   0  0  0  0  0  0  0  0  0  0  0  0
    0.2003    0.7484   -1.6867 H   0  0  0  0  0  0  0  0  0  0  0  0
    1.8707    0.4843   -1.1362 H   0  0  0  0  0  0  0  0  0  0  0  0
    0.8889   -0.8901   -1.6716 H   0  0  0  0  0  0  0  0  0  0  0  0
    0.2656    1.1893    1.0741 C   0  0  0  0  0  0  0  0  0  0  0  0
   -0.7643    1.4892    1.6685 O   0  0  0  0  0  0  0  0  0  0  0  0
    1.2984    2.1088    1.0284 N   0  0  0  0  0  0  0  0  0  0  0  0
    2.1442    1.8403    0.5346 H   0  0  0  0  0  0  0  0  0  0  0  0
    1.2589    3.3947    1.7145 C   0  0  0  0  0  0  0  0  0  0  0  0
    1.1516    3.2499    2.7947 H   0  0  0  0  0  0  0  0  0  0  0  0
    2.1832    3.9503    1.5300 H   0  0  0  0  0  0  0  0  0  0  0  0
    0.4172    3.9955    1.3543 H   0  0  0  0  0  0  0  0  0  0  0  0
  1  2  1  0  0  0  0
  2  3  1  0  0  0  0
  2  4  1  0  0  0  0
  2  5  1  0  0  0  0
  5  6  2  0  0  0  0
  5  7  1  0  0  0  0
  7  8  1  0  0  0  0
  7  9  1  0  0  0  0
  9 10  1  0  0  0  0
  9 11  1  0  0  0  0
  9 15  1  0  0  0  0
 11 12  1  0  0  0  0
 11 13  1  0  0  0  0
 11 14  1  0  0  0  0
 15 16  2  0  0  0  0
 15 17  1  0  0  0  0
 17 18  1  0  0  0  0
 17 19  1  0  0  0  0
 19 20  1  0  0  0  0
 19 21  1  0  0  0  0
 19 22  1  0  0  0  0
M  END
$$$$

  -OEChem-11182114133D

 22 21  0     1  0  0  0  0  0999 V2000
   -2.6597   -3.5076    1.3401 H   0  0  0  0  0  0  0  0  0  0  0  0
   -2.6414   -2.4964    0.9241 C   0  0  0  0  0  0  0  0  0  0  0  0
   -3.1235   -1.8167    1.6311 H   0  0  0  0  0  0  0  0  0  0  0  0
   -3.1985   -2.4907   -0.0156 H   0  0  0  0  0  0  0  0  0  0  0  0
   -1.2101   -2.0574    0.6800 C   0  0  0  0  0  0  0  0  0  0  0  0
   -0.2903   -2.8246    0.9172 O   0  0  0  0  0  0  0  0  0  0  0  0
   -0.9635   -0.7963    0.1768 N   0  0  0  0  0  0  0  0  0  0  0  0
   -1.7661   -0.1713    0.2056 H   0  0  0  0  0  0  0  0  0  0  0  0
    0.3511   -0.1436    0.2854 C   0  0  1  0  0  0  0  0  0  0  0  0
    1.0585   -0.7780    0.8302 H   0  0  0  0  0  0  0  0  0  0  0  0
    0.8755    0.0479   -1.1424 C   0  0  0  0  0  0  0  0  0  0  0  0
    0.2275    0.7300   -1.7019 H   0  0  0  0  0  0  0  0  0  0  0  0
    1.8911    0.4537   -1.1319 H   0  0  0  0  0  0  0  0  0  0  0  0
    0.9007   -0.9142   -1.6641 H   0  0  0  0  0  0  0  0  0  0  0  0
    0.2590    1.1874    1.0714 C   0  0  0  0  0  0  0  0  0  0  0  0
   -0.6700    1.3742    1.8487 O   0  0  0  0  0  0  0  0  0  0  0  0
    1.1215    2.2382    0.8116 N   0  0  0  0  0  0  0  0  0  0  0  0
    1.8735    2.0749    0.1492 H   0  0  0  0  0  0  0  0  0  0  0  0
    1.0307    3.5355    1.4712 C   0  0  0  0  0  0  0  0  0  0  0  0
    1.1429    3.4231    2.5547 H   0  0  0  0  0  0  0  0  0  0  0  0
    1.8211    4.2000    1.1091 H   0  0  0  0  0  0  0  0  0  0  0  0
    0.0631    4.0044    1.2635 H   0  0  0  0  0  0  0  0  0  0  0  0
  1  2  1  0  0  0  0
  2  3  1  0  0  0  0
  2  4  1  0  0  0  0
  2  5  1  0  0  0  0
  5  6  2  0  0  0  0
  5  7  1  0  0  0  0
  7  8  1  0  0  0  0
  7  9  1  0  0  0  0
  9 10  1  0  0  0  0
  9 11  1  0  0  0  0
  9 15  1  0  0  0  0
 11 12  1  0  0  0  0
 11 13  1  0  0  0  0
 11 14  1  0  0  0  0
 15 16  2  0  0  0  0
 15 17  1  0  0  0  0
 17 18  1  0  0  0  0
 17 19  1  0  0  0  0
 19 20  1  0  0  0  0
 19 21  1  0  0  0  0
 19 22  1  0  0  0  0
M  END
$$$$

  -OEChem-11182114133D

 22 21  0     1  0  0  0  0  0999 V2000
   -2.6560   -3.5047    1.3469 H   0  0  0  0  0  0  0  0  0  0  0  0
   -2.6409   -2.4931    0.9316 C   0  0  0  0  0  0  0  0  0  0  0  0
   -3.1181   -1.8146    1.6431 H   0  0  0  0  0  0  0  0  0  0  0  0
   -3.2051   -2.4872   -0.0040 H   0  0  0  0  0  0  0  0  0  0  0  0
   -1.2111   -2.0540    0.6777 C   0  0  0  0  0  0  0  0  0  0  0  0
   -0.2913   -2.8263    0.8972 O   0  0  0  0  0  0  0  0  0  0  0  0
   -0.9664   -0.7920    0.1743 N   0  0  0  0  0  0  0  0  0  0  0  0
   -1.7715   -0.1713    0.1975 H   0  0  0  0  0  0  0  0  0  0  0  0
    0.3490   -0.1402    0.2842 C   0  0  1  0  0  0  0  0  0  0  0  0
    1.0520   -0.7724    0.8374 H   0  0  0  0  0  0  0  0  0  0  0  0
    0.8882    0.0362   -1.1407 C   0  0  0  0  0  0  0  0  0  0  0  0
    0.2476    0.7124   -1.7158 H   0  0  0  0  0  0  0  0  0  0  0  0
    1.9049    0.4403   -1.1220 H   0  0  0  0  0  0  0  0  0  0  0  0
    0.9177   -0.9318   -1.6514 H   0  0  0  0  0  0  0  0  0  0  0  0
    0.2543    1.1899    1.0713 C   0  0  0  0  0  0  0  0  0  0  0  0
   -0.5182    1.2804    2.0174 O   0  0  0  0  0  0  0  0  0  0  0  0
    0.8879    2.3394    0.6310 N   0  0  0  0  0  0  0  0  0  0  0  0
    1.4920    2.2600   -0.1814 H   0  0  0  0  0  0  0  0  0  0  0  0
    0.7452    3.6368    1.2811 C   0  0  0  0  0  0  0  0  0  0  0  0
    1.0905    3.5855    2.3191 H   0  0  0  0  0  0  0  0  0  0  0  0
    1.3396    4.3903    0.7557 H   0  0  0  0  0  0  0  0  0  0  0  0
   -0.3021    3.9568    1.2736 H   0  0  0  0  0  0  0  0  0  0  0  0
  1  2  1  0  0  0  0
  2  3  1  0  0  0  0
  2  4  1  0  0  0  0
  2  5  1  0  0  0  0
  5  6  2  0  0  0  0
  5  7  1  0  0  0  0
  7  8  1  0  0  0  0
  7  9  1  0  0  0  0
  9 10  1  0  0  0  0
  9 11  1  0  0  0  0
  9 15  1  0  0  0  0
 11 12  1  0  0  0  0
 11 13  1  0  0  0  0
 11 14  1  0  0  0  0
 15 16  2  0  0  0  0
 15 17  1  0  0  0  0
 17 18  1  0  0  0  0
 17 19  1  0  0  0  0
 19 20  1  0  0  0  0
 19 21  1  0  0  0  0
 19 22  1  0  0  0  0
M  END
$$$$

  -OEChem-11182114133D

 22 21  0     1  0  0  0  0  0999 V2000
   -2.6505   -3.5209    1.3341 H   0  0  0  0  0  0  0  0  0  0  0  0
   -2.6397   -2.5062    0.9261 C   0  0  0  0  0  0  0  0  0  0  0  0
   -3.1296   -1.8368    1.6376 H   0  0  0  0  0  0  0  0  0  0  0  0
   -3.1948   -2.4988   -0.0149 H   0  0  0  0  0  0  0  0  0  0  0  0
   -1.2108   -2.0536    0.6906 C   0  0  0  0  0  0  0  0  0  0  0  0
   -0.2876   -2.8158    0.9286 O   0  0  0  0  0  0  0  0  0  0  0  0
   -0.9714   -0.7925    0.1809 N   0  0  0  0  0  0  0  0  0  0  0  0
   -1.7850   -0.1838    0.1615 H   0  0  0  0  0  0  0  0  0  0  0  0
    0.3397   -0.1315    0.2892 C   0  0  1  0  0  0  0  0  0  0  0  0
    1.0439   -0.7547    0.8514 H   0  0  0  0  0  0  0  0  0  0  0  0
    0.8874    0.0339   -1.1336 C   0  0  0  0  0  0  0  0  0  0  0  0
    0.2275    0.6693   -1.7324 H   0  0  0  0  0  0  0  0  0  0  0  0
    1.8865    0.4799   -1.1108 H   0  0  0  0  0  0  0  0  0  0  0  0
    0.9618   -0.9435   -1.6211 H   0  0  0  0  0  0  0  0  0  0  0  0
    0.2366    1.2018    1.0680 C   0  0  0  0  0  0  0  0  0  0  0  0
   -0.3184    1.2230    2.1584 O   0  0  0  0  0  0  0  0  0  0  0  0
    0.5913    2.4094    0.4906 N   0  0  0  0  0  0  0  0  0  0  0  0
    1.0197    2.3806   -0.4296 H   0  0  0  0  0  0  0  0  0  0  0  0
    0.4335    3.6970    1.1569 C   0  0  0  0  0  0  0  0  0  0  0  0
    1.0033    3.7170    2.0920 H   0  0  0  0  0  0  0  0  0  0  0  0
    0.7980    4.5034    0.5133 H   0  0  0  0  0  0  0  0  0  0  0  0
   -0.6212    3.8858    1.3830 H   0  0  0  0  0  0  0  0  0  0  0  0
  1  2  1  0  0  0  0
  2  3  1  0  0  0  0
  2  4  1  0  0  0  0
  2  5  1  0  0  0  0
  5  6  2  0  0  0  0
  5  7  1  0  0  0  0
  7  8  1  0  0  0  0
  7  9  1  0  0  0  0
  9 10  1  0  0  0  0
  9 11  1  0  0  0  0
  9 15  1  0  0  0  0
 11 12  1  0  0  0  0
 11 13  1  0  0  0  0
 11 14  1  0  0  0  0
 15 16  2  0  0  0  0
 15 17  1  0  0  0  0
 17 18  1  0  0  0  0
 17 19  1  0  0  0  0
 19 20  1  0  0  0  0
 19 21  1  0  0  0  0
 19 22  1  0  0  0  0
M  END
$$$$

  -OEChem-11182114133D

 22 21  0     1  0  0  0  0  0999 V2000
   -2.6473   -3.5347    1.3279 H   0  0  0  0  0  0  0  0  0  0  0  0
   -2.6398   -2.5232    0.9120 C   0  0  0  0  0  0  0  0  0  0  0  0
   -3.1534   -1.8543    1.6069 H   0  0  0  0  0  0  0  0  0  0  0  0
   -3.1735   -2.5301   -0.0413 H   0  0  0  0  0  0  0  0  0  0  0  0
   -1.2116   -2.0552    0.7044 C   0  0  0  0  0  0  0  0  0  0  0  0
   -0.2856   -2.8098    0.9540 O   0  0  0  0  0  0  0  0  0  0  0  0
   -0.9758   -0.7932    0.1951 N   0  0  0  0  0  0  0  0  0  0  0  0
   -1.7951   -0.1953    0.1392 H   0  0  0  0  0  0  0  0  0  0  0  0
    0.3313   -0.1240    0.3010 C   0  0  1  0  0  0  0  0  0  0  0  0
    1.0396   -0.7427    0.8636 H   0  0  0  0  0  0  0  0  0  0  0  0
    0.8807    0.0441   -1.1207 C   0  0  0  0  0  0  0  0  0  0  0  0
    0.1991    0.6395   -1.7361 H   0  0  0  0  0  0  0  0  0  0  0  0
    1.8590    0.5344   -1.0974 H   0  0  0  0  0  0  0  0  0  0  0  0
    1.0011   -0.9374   -1.5908 H   0  0  0  0  0  0  0  0  0  0  0  0
    0.2231    1.2085    1.0782 C   0  0  0  0  0  0  0  0  0  0  0  0
   -0.0711    1.1969    2.2650 O   0  0  0  0  0  0  0  0  0  0  0  0
    0.2706    2.4284    0.4252 N   0  0  0  0  0  0  0  0  0  0  0  0
    0.4977    2.4203   -0.5644 H   0  0  0  0  0  0  0  0  0  0  0  0
    0.1003    3.7091    1.1012 C   0  0  0  0  0  0  0  0  0  0  0  0
    0.8706    3.8430    1.8679 H   0  0  0  0  0  0  0  0  0  0  0  0
    0.1816    4.5300    0.3823 H   0  0  0  0  0  0  0  0  0  0  0  0
   -0.8843    3.7637    1.5774 H   0  0  0  0  0  0  0  0  0  0  0  0
  1  2  1  0  0  0  0
  2  3  1  0  0  0  0
  2  4  1  0  0  0  0
  2  5  1  0  0  0  0
  5  6  2  0  0  0  0
  5  7  1  0  0  0  0
  7  8  1  0  0  0  0
  7  9  1  0  0  0  0
  9 10  1  0  0  0  0
  9 11  1  0  0  0  0
  9 15  1  0  0  0  0
 11 12  1  0  0  0  0
 11 13  1  0  0  0  0
 11 14  1  0  0  0  0
 15 16  2  0  0  0  0
 15 17  1  0  0  0  0
 17 18  1  0  0  0  0
 17 19  1  0  0  0  0
 19 20  1  0  0  0  0
 19 21  1  0  0  0  0
 19 22  1  0  0  0  0
M  END
$$$$

  -OEChem-11182114133D

 22 21  0     1  0  0  0  0  0999 V2000
   -2.6493   -3.5508    1.3280 H   0  0  0  0  0  0  0  0  0  0  0  0
   -2.6413   -2.5496    0.8880 C   0  0  0  0  0  0  0  0  0  0  0  0
   -3.1924   -1.8734    1.5460 H   0  0  0  0  0  0  0  0  0  0  0  0
   -3.1377   -2.5880   -0.0845 H   0  0  0  0  0  0  0  0  0  0  0  0
   -1.2135   -2.0631    0.7234 C   0  0  0  0  0  0  0  0  0  0  0  0
   -0.2863   -2.8038    1.0057 O   0  0  0  0  0  0  0  0  0  0  0  0
   -0.9804   -0.7994    0.2165 N   0  0  0  0  0  0  0  0  0  0  0  0
   -1.8049   -0.2159    0.1117 H   0  0  0  0  0  0  0  0  0  0  0  0
    0.3219   -0.1191    0.3178 C   0  0  1  0  0  0  0  0  0  0  0  0
    1.0384   -0.7345    0.8743 H   0  0  0  0  0  0  0  0  0  0  0  0
    0.8660    0.0672   -1.1029 C   0  0  0  0  0  0  0  0  0  0  0  0
    0.1654    0.6370   -1.7207 H   0  0  0  0  0  0  0  0  0  0  0  0
    1.8249    0.5943   -1.0771 H   0  0  0  0  0  0  0  0  0  0  0  0
    1.0235   -0.9092   -1.5723 H   0  0  0  0  0  0  0  0  0  0  0  0
    0.2075    1.2112    1.0946 C   0  0  0  0  0  0  0  0  0  0  0  0
    0.2242    1.2122    2.3166 O   0  0  0  0  0  0  0  0  0  0  0  0
   -0.0653    2.3978    0.4356 N   0  0  0  0  0  0  0  0  0  0  0  0
   -0.0577    2.3808   -0.5795 H   0  0  0  0  0  0  0  0  0  0  0  0
   -0.2250    3.6754    1.1202 C   0  0  0  0  0  0  0  0  0  0  0  0
    0.6964    3.9450    1.6471 H   0  0  0  0  0  0  0  0  0  0  0  0
   -0.4558    4.4656    0.3993 H   0  0  0  0  0  0  0  0  0  0  0  0
   -1.0430    3.6219    1.8464 H   0  0  0  0  0  0  0  0  0  0  0  0
  1  2  1  0  0  0  0
  2  3  1  0  0  0  0
  2  4  1  0  0  0  0
  2  5  1  0  0  0  0
  5  6  2  0  0  0  0
  5  7  1  0  0  0  0
  7  8  1  0  0  0  0
  7  9  1  0  0  0  0
  9 10  1  0  0  0  0
  9 11  1  0  0  0  0
  9 15  1  0  0  0  0
 11 12  1  0  0  0  0
 11 13  1  0  0  0  0
 11 14  1  0  0  0  0
 15 16  2  0  0  0  0
 15 17  1  0  0  0  0
 17 18  1  0  0  0  0
 17 19  1  0  0  0  0
 19 20  1  0  0  0  0
 19 21  1  0  0  0  0
 19 22  1  0  0  0  0
M  END
$$$$

  -OEChem-11182114133D

 22 21  0     1  0  0  0  0  0999 V2000
   -2.6447   -3.5887    1.2923 H   0  0  0  0  0  0  0  0  0  0  0  0
   -2.6402   -2.5835    0.8614 C   0  0  0  0  0  0  0  0  0  0  0  0
   -3.2195   -1.9217    1.5097 H   0  0  0  0  0  0  0  0  0  0  0  0
   -3.1088   -2.6215   -0.1248 H   0  0  0  0  0  0  0  0  0  0  0  0
   -1.2158   -2.0748    0.7405 C   0  0  0  0  0  0  0  0  0  0  0  0
   -0.2874   -2.7984    1.0583 O   0  0  0  0  0  0  0  0  0  0  0  0
   -0.9872   -0.8077    0.2395 N   0  0  0  0  0  0  0  0  0  0  0  0
   -1.8155   -0.2400    0.0906 H   0  0  0  0  0  0  0  0  0  0  0  0
    0.3103   -0.1165    0.3388 C   0  0  1  0  0  0  0  0  0  0  0  0
    1.0348   -0.7320    0.8849 H   0  0  0  0  0  0  0  0  0  0  0  0
    0.8469    0.0945   -1.0804 C   0  0  0  0  0  0  0  0  0  0  0  0
    0.1434    0.6734   -1.6861 H   0  0  0  0  0  0  0  0  0  0  0  0
    1.8037    0.6252   -1.0488 H   0  0  0  0  0  0  0  0  0  0  0  0
    1.0064   -0.8735   -1.5661 H   0  0  0  0  0  0  0  0  0  0  0  0
    0.1930    1.2101    1.1190 C   0  0  0  0  0  0  0  0  0  0  0  0
    0.5345    1.2749    2.2905 O   0  0  0  0  0  0  0  0  0  0  0  0
   -0.3852    2.3214    0.5293 N   0  0  0  0  0  0  0  0  0  0  0  0
   -0.6056    2.2632   -0.4598 H   0  0  0  0  0  0  0  0  0  0  0  0
   -0.5245    3.6038    1.2098 C   0  0  0  0  0  0  0  0  0  0  0  0
    0.4591    4.0069    1.4732 H   0  0  0  0  0  0  0  0  0  0  0  0
   -1.0319    4.3241    0.5608 H   0  0  0  0  0  0  0  0  0  0  0  0
   -1.1146    3.4898    2.1253 H   0  0  0  0  0  0  0  0  0  0  0  0
  1  2  1  0  0  0  0
  2  3  1  0  0  0  0
  2  4  1  0  0  0  0
  2  5  1  0  0  0  0
  5  6  2  0  0  0  0
  5  7  1  0  0  0  0
  7  8  1  0  0  0  0
  7  9  1  0  0  0  0
  9 10  1  0  0  0  0
  9 11  1  0  0  0  0
  9 15  1  0  0  0  0
 11 12  1  0  0  0  0
 11 13  1  0  0  0  0
 11 14  1  0  0  0  0
 15 16  2  0  0  0  0
 15 17  1  0  0  0  0
 17 18  1  0  0  0  0
 17 19  1  0  0  0  0
 19 20  1  0  0  0  0
 19 21  1  0  0  0  0
 19 22  1  0  0  0  0
M  END
$$$$

  -OEChem-11182114133D

 22 21  0     1  0  0  0  0  0999 V2000
   -2.6374   -3.6363    1.2516 H   0  0  0  0  0  0  0  0  0  0  0  0
   -2.6362   -2.6283    0.8269 C   0  0  0  0  0  0  0  0  0  0  0  0
   -3.2509   -1.9817    1.4576 H   0  0  0  0  0  0  0  0  0  0  0  0
   -3.0682   -2.6687   -0.1757 H   0  0  0  0  0  0  0  0  0  0  0  0
   -1.2184   -2.0923    0.7592 C   0  0  0  0  0  0  0  0  0  0  0  0
   -0.2897   -2.7972    1.1144 O   0  0  0  0  0  0  0  0  0  0  0  0
   -0.9960   -0.8206    0.2670 N   0  0  0  0  0  0  0  0  0  0  0  0
   -1.8269   -0.2705    0.0769 H   0  0  0  0  0  0  0  0  0  0  0  0
    0.2965   -0.1175    0.3653 C   0  0  1  0  0  0  0  0  0  0  0  0
    1.0307   -0.7349    0.8961 H   0  0  0  0  0  0  0  0  0  0  0  0
    0.8172    0.1233   -1.0541 C   0  0  0  0  0  0  0  0  0  0  0  0
    0.1128    0.7269   -1.6341 H   0  0  0  0  0  0  0  0  0  0  0  0
    1.7796    0.6439   -1.0201 H   0  0  0  0  0  0  0  0  0  0  0  0
    0.9610   -0.8329   -1.5672 H   0  0  0  0  0  0  0  0  0  0  0  0
    0.1829    1.2052    1.1518 C   0  0  0  0  0  0  0  0  0  0  0  0
    0.8197    1.3780    2.1803 O   0  0  0  0  0  0  0  0  0  0  0  0
   -0.6617    2.2087    0.7070 N   0  0  0  0  0  0  0  0  0  0  0  0
   -1.0839    2.0886   -0.2076 H   0  0  0  0  0  0  0  0  0  0  0  0
   -0.7716    3.5046    1.3671 C   0  0  0  0  0  0  0  0  0  0  0  0
    0.1898    4.0286    1.3459 H   0  0  0  0  0  0  0  0  0  0  0  0
   -1.5165    4.1261    0.8607 H   0  0  0  0  0  0  0  0  0  0  0  0
   -1.0808    3.3785    2.4102 H   0  0  0  0  0  0  0  0  0  0  0  0
  1  2  1  0  0  0  0
  2  3  1  0  0  0  0
  2  4  1  0  0  0  0
  2  5  1  0  0  0  0
  5  6  2  0  0  0  0
  5  7  1  0  0  0  0
  7  8  1  0  0  0  0
  7  9  1  0  0  0  0
  9 10  1  0  0  0  0
  9 11  1  0  0  0  0
  9 15  1  0  0  0  0
 11 12  1  0  0  0  0
 11 13  1  0  0  0  0
 11 14  1  0  0  0  0
 15 16  2  0  0  0  0
 15 17  1  0  0  0  0
 17 18  1  0  0  0  0
 17 19  1  0  0  0  0
 19 20  1  0  0  0  0
 19 21  1  0  0  0  0
 19 22  1  0  0  0  0
M  END
$$$$

  -OEChem-11182114133D

 22 21  0     1  0  0  0  0  0999 V2000
   -2.6018   -3.7370    1.1353 H   0  0  0  0  0  0  0  0  0  0  0  0
   -2.6127   -2.7268    0.7161 C   0  0  0  0  0  0  0  0  0  0  0  0
   -3.3665   -2.1367    1.2427 H   0  0  0  0  0  0  0  0  0  0  0  0
   -2.8786   -2.7891   -0.3417 H   0  0  0  0  0  0  0  0  0  0  0  0
   -1.2478   -2.0827    0.8723 C   0  0  0  0  0  0  0  0  0  0  0  0
   -0.3556   -2.6933    1.4340 O   0  0  0  0  0  0  0  0  0  0  0  0
   -1.0306   -0.8165    0.3629 N   0  0  0  0  0  0  0  0  0  0  0  0
   -1.7995   -0.3981   -0.1486 H   0  0  0  0  0  0  0  0  0  0  0  0
    0.2635   -0.1078    0.4092 C   0  0  1  0  0  0  0  0  0  0  0  0
    1.0162   -0.7253    0.9129 H   0  0  0  0  0  0  0  0  0  0  0  0
    0.7281    0.1241   -1.0302 C   0  0  0  0  0  0  0  0  0  0  0  0
    0.0146    0.7502   -1.5745 H   0  0  0  0  0  0  0  0  0  0  0  0
    1.7031    0.6221   -1.0352 H   0  0  0  0  0  0  0  0  0  0  0  0
    0.8277   -0.8318   -1.5539 H   0  0  0  0  0  0  0  0  0  0  0  0
    0.2057    1.2287    1.1801 C   0  0  0  0  0  0  0  0  0  0  0  0
    1.1361    1.5670    1.8974 O   0  0  0  0  0  0  0  0  0  0  0  0
   -0.8350    2.1189    0.9752 N   0  0  0  0  0  0  0  0  0  0  0  0
   -1.5733    1.8412    0.3395 H   0  0  0  0  0  0  0  0  0  0  0  0
   -0.9022    3.4299    1.6099 C   0  0  0  0  0  0  0  0  0  0  0  0
   -0.0532    4.0488    1.3009 H   0  0  0  0  0  0  0  0  0  0  0  0
   -1.8259    3.9421    1.3243 H   0  0  0  0  0  0  0  0  0  0  0  0
   -0.8862    3.3295    2.7004 H   0  0  0  0  0  0  0  0  0  0  0  0
  1  2  1  0  0  0  0
  2  3  1  0  0  0  0
  2  4  1  0  0  0  0
  2  5  1  0  0  0  0
  5  6  2  0  0  0  0
  5  7  1  0  0  0  0
  7  8  1  0  0  0  0
  7  9  1  0  0  0  0
  9 10  1  0  0  0  0
  9 11  1  0  0  0  0
  9 15  1  0  0  0  0
 11 12  1  0  0  0  0
 11 13  1  0  0  0  0
 11 14  1  0  0  0  0
 15 16  2  0  0  0  0
 15 17  1  0  0  0  0
 17 18  1  0  0  0  0
 17 19  1  0  0  0  0
 19 20  1  0  0  0  0
 19 21  1  0  0  0  0
 19 22  1  0  0  0  0
M  END
$$$$

  -OEChem-11182114133D

 22 21  0     1  0  0  0  0  0999 V2000
   -2.5861   -3.7485    1.1257 H   0  0  0  0  0  0  0  0  0  0  0  0
   -2.5880   -2.7600    0.6575 C   0  0  0  0  0  0  0  0  0  0  0  0
   -3.4111   -2.1754    1.0753 H   0  0  0  0  0  0  0  0  0  0  0  0
   -2.7426   -2.8815   -0.4171 H   0  0  0  0  0  0  0  0  0  0  0  0
   -1.2686   -2.0574    0.9171 C   0  0  0  0  0  0  0  0  0  0  0  0
   -0.4138   -2.6091    1.5872 O   0  0  0  0  0  0  0  0  0  0  0  0
   -1.0546   -0.7968    0.3928 N   0  0  0  0  0  0  0  0  0  0  0  0
   -1.7570   -0.4646   -0.2601 H   0  0  0  0  0  0  0  0  0  0  0  0
    0.2487   -0.1034    0.4161 C   0  0  1  0  0  0  0  0  0  0  0  0
    1.0052   -0.7263    0.9070 H   0  0  0  0  0  0  0  0  0  0  0  0
    0.6836    0.1200   -1.0343 C   0  0  0  0  0  0  0  0  0  0  0  0
   -0.0290    0.7641   -1.5586 H   0  0  0  0  0  0  0  0  0  0  0  0
    1.6687    0.5972   -1.0631 H   0  0  0  0  0  0  0  0  0  0  0  0
    0.7498   -0.8360   -1.5629 H   0  0  0  0  0  0  0  0  0  0  0  0
    0.2231    1.2387    1.1786 C   0  0  0  0  0  0  0  0  0  0  0  0
    1.2633    1.7199    1.6053 O   0  0  0  0  0  0  0  0  0  0  0  0
   -0.9337    1.9970    1.2296 N   0  0  0  0  0  0  0  0  0  0  0  0
   -1.7938    1.5341    0.9584 H   0  0  0  0  0  0  0  0  0  0  0  0
   -1.0102    3.2853    1.9079 C   0  0  0  0  0  0  0  0  0  0  0  0
   -0.2941    3.9906    1.4729 H   0  0  0  0  0  0  0  0  0  0  0  0
   -2.0141    3.7079    1.8052 H   0  0  0  0  0  0  0  0  0  0  0  0
   -0.7882    3.1705    2.9740 H   0  0  0  0  0  0  0  0  0  0  0  0
  1  2  1  0  0  0  0
  2  3  1  0  0  0  0
  2  4  1  0  0  0  0
  2  5  1  0  0  0  0
  5  6  2  0  0  0  0
  5  7  1  0  0  0  0
  7  8  1  0  0  0  0
  7  9  1  0  0  0  0
  9 10  1  0  0  0  0
  9 11  1  0  0  0  0
  9 15  1  0  0  0  0
 11 12  1  0  0  0  0
 11 13  1  0  0  0  0
 11 14  1  0  0  0  0
 15 16  2  0  0  0  0
 15 17  1  0  0  0  0
 17 18  1  0  0  0  0
 17 19  1  0  0  0  0
 19 20  1  0  0  0  0
 19 21  1  0  0  0  0
 19 22  1  0  0  0  0
M  END
$$$$

  -OEChem-11182114133D

 22 21  0     1  0  0  0  0  0999 V2000
   -2.5838   -3.7506    1.1041 H   0  0  0  0  0  0  0  0  0  0  0  0
   -2.5860   -2.7598    0.6407 C   0  0  0  0  0  0  0  0  0  0  0  0
   -3.4133   -2.1796    1.0563 H   0  0  0  0  0  0  0  0  0  0  0  0
   -2.7342   -2.8767   -0.4355 H   0  0  0  0  0  0  0  0  0  0  0  0
   -1.2700   -2.0549    0.9114 C   0  0  0  0  0  0  0  0  0  0  0  0
   -0.4220   -2.6002    1.5953 O   0  0  0  0  0  0  0  0  0  0  0  0
   -1.0534   -0.7936    0.3905 N   0  0  0  0  0  0  0  0  0  0  0  0
   -1.7513   -0.4584   -0.2666 H   0  0  0  0  0  0  0  0  0  0  0  0
    0.2517   -0.1029    0.4140 C   0  0  1  0  0  0  0  0  0  0  0  0
    1.0083   -0.7272    0.9025 H   0  0  0  0  0  0  0  0  0  0  0  0
    0.6795    0.1165   -1.0401 C   0  0  0  0  0  0  0  0  0  0  0  0
   -0.0282    0.7719   -1.5570 H   0  0  0  0  0  0  0  0  0  0  0  0
    1.6711    0.5794   -1.0774 H   0  0  0  0  0  0  0  0  0  0  0  0
    0.7278   -0.8392   -1.5709 H   0  0  0  0  0  0  0  0  0  0  0  0
    0.2284    1.2377    1.1810 C   0  0  0  0  0  0  0  0  0  0  0  0
    1.2702    1.8438    1.3901 O   0  0  0  0  0  0  0  0  0  0  0  0
   -0.9741    1.8429    1.5008 N   0  0  0  0  0  0  0  0  0  0  0  0
   -1.8025    1.2623    1.4255 H   0  0  0  0  0  0  0  0  0  0  0  0
   -1.0612    3.1054    2.2246 C   0  0  0  0  0  0  0  0  0  0  0  0
   -0.5398    3.8975    1.6768 H   0  0  0  0  0  0  0  0  0  0  0  0
   -2.1076    3.4020    2.3438 H   0  0  0  0  0  0  0  0  0  0  0  0
   -0.6110    3.0092    3.2183 H   0  0  0  0  0  0  0  0  0  0  0  0
  1  2  1  0  0  0  0
  2  3  1  0  0  0  0
  2  4  1  0  0  0  0
  2  5  1  0  0  0  0
  5  6  2  0  0  0  0
  5  7  1  0  0  0  0
  7  8  1  0  0  0  0
  7  9  1  0  0  0  0
  9 10  1  0  0  0  0
  9 11  1  0  0  0  0
  9 15  1  0  0  0  0
 11 12  1  0  0  0  0
 11 13  1  0  0  0  0
 11 14  1  0  0  0  0
 15 16  2  0  0  0  0
 15 17  1  0  0  0  0
 17 18  1  0  0  0  0
 17 19  1  0  0  0  0
 19 20  1  0  0  0  0
 19 21  1  0  0  0  0
 19 22  1  0  0  0  0
M  END
$$$$

  -OEChem-11182114133D

 22 21  0     1  0  0  0  0  0999 V2000
   -2.5806   -3.7507    1.0851 H   0  0  0  0  0  0  0  0  0  0  0  0
   -2.5859   -2.7575    0.6270 C   0  0  0  0  0  0  0  0  0  0  0  0
   -3.4178   -2.1838    1.0422 H   0  0  0  0  0  0  0  0  0  0  0  0
   -2.7291   -2.8697   -0.4505 H   0  0  0  0  0  0  0  0  0  0  0  0
   -1.2739   -2.0482    0.9062 C   0  0  0  0  0  0  0  0  0  0  0  0
   -0.4319   -2.5861    1.6034 O   0  0  0  0  0  0  0  0  0  0  0  0
   -1.0542   -0.7868    0.3877 N   0  0  0  0  0  0  0  0  0  0  0  0
   -1.7557   -0.4406   -0.2605 H   0  0  0  0  0  0  0  0  0  0  0  0
    0.2530   -0.0993    0.4096 C   0  0  1  0  0  0  0  0  0  0  0  0
    1.0084   -0.7249    0.8977 H   0  0  0  0  0  0  0  0  0  0  0  0
    0.6771    0.1111   -1.0477 C   0  0  0  0  0  0  0  0  0  0  0  0
   -0.0249    0.7741   -1.5630 H   0  0  0  0  0  0  0  0  0  0  0  0
    1.6743    0.5613   -1.0918 H   0  0  0  0  0  0  0  0  0  0  0  0
    0.7109   -0.8466   -1.5761 H   0  0  0  0  0  0  0  0  0  0  0  0
    0.2313    1.2404    1.1804 C   0  0  0  0  0  0  0  0  0  0  0  0
    1.2170    1.9653    1.1928 O   0  0  0  0  0  0  0  0  0  0  0  0
   -0.9369    1.6892    1.7696 N   0  0  0  0  0  0  0  0  0  0  0  0
   -1.6857    1.0084    1.8503 H   0  0  0  0  0  0  0  0  0  0  0  0
   -1.0151    2.9208    2.5457 C   0  0  0  0  0  0  0  0  0  0  0  0
   -0.7203    3.7795    1.9332 H   0  0  0  0  0  0  0  0  0  0  0  0
   -2.0392    3.0834    2.8951 H   0  0  0  0  0  0  0  0  0  0  0  0
   -0.3543    2.8669    3.4174 H   0  0  0  0  0  0  0  0  0  0  0  0
  1  2  1  0  0  0  0
  2  3  1  0  0  0  0
  2  4  1  0  0  0  0
  2  5  1  0  0  0  0
  5  6  2  0  0  0  0
  5  7  1  0  0  0  0
  7  8  1  0  0  0  0
  7  9  1  0  0  0  0
  9 10  1  0  0  0  0
  9 11  1  0  0  0  0
  9 15  1  0  0  0  0
 11 12  1  0  0  0  0
 11 13  1  0  0  0  0
 11 14  1  0  0  0  0
 15 16  2  0  0  0  0
 15 17  1  0  0  0  0
 17 18  1  0  0  0  0
 17 19  1  0  0  0  0
 19 20  1  0  0  0  0
 19 21  1  0  0  0  0
 19 22  1  0  0  0  0
M  END
$$$$

  -OEChem-11182114133D

 22 21  0     1  0  0  0  0  0999 V2000
   -2.5817   -3.7436    1.0461 H   0  0  0  0  0  0  0  0  0  0  0  0
   -2.5963   -2.7307    0.6334 C   0  0  0  0  0  0  0  0  0  0  0  0
   -3.4088   -2.1707    1.1026 H   0  0  0  0  0  0  0  0  0  0  0  0
   -2.7786   -2.7942   -0.4422 H   0  0  0  0  0  0  0  0  0  0  0  0
   -1.2707   -2.0410    0.8968 C   0  0  0  0  0  0  0  0  0  0  0  0
   -0.4288   -2.5878    1.5872 O   0  0  0  0  0  0  0  0  0  0  0  0
   -1.0418   -0.7796    0.3837 N   0  0  0  0  0  0  0  0  0  0  0  0
   -1.7602   -0.4033   -0.2285 H   0  0  0  0  0  0  0  0  0  0  0  0
    0.2673   -0.0969    0.4025 C   0  0  1  0  0  0  0  0  0  0  0  0
    1.0206   -0.7241    0.8916 H   0  0  0  0  0  0  0  0  0  0  0  0
    0.6910    0.1039   -1.0572 C   0  0  0  0  0  0  0  0  0  0  0  0
   -0.0051    0.7725   -1.5728 H   0  0  0  0  0  0  0  0  0  0  0  0
    1.6928    0.5429   -1.1063 H   0  0  0  0  0  0  0  0  0  0  0  0
    0.7129   -0.8558   -1.5827 H   0  0  0  0  0  0  0  0  0  0  0  0
    0.2391    1.2393    1.1811 C   0  0  0  0  0  0  0  0  0  0  0  0
    1.1081    2.0848    1.0145 O   0  0  0  0  0  0  0  0  0  0  0  0
   -0.8215    1.5264    2.0208 N   0  0  0  0  0  0  0  0  0  0  0  0
   -1.4505    0.7552    2.2241 H   0  0  0  0  0  0  0  0  0  0  0  0
   -0.8947    2.7334    2.8345 C   0  0  0  0  0  0  0  0  0  0  0  0
   -0.8536    3.6258    2.2011 H   0  0  0  0  0  0  0  0  0  0  0  0
   -1.8331    2.7536    3.3967 H   0  0  0  0  0  0  0  0  0  0  0  0
   -0.0627    2.7673    3.5456 H   0  0  0  0  0  0  0  0  0  0  0  0
  1  2  1  0  0  0  0
  2  3  1  0  0  0  0
  2  4  1  0  0  0  0
  2  5  1  0  0  0  0
  5  6  2  0  0  0  0
  5  7  1  0  0  0  0
  7  8  1  0  0  0  0
  7  9  1  0  0  0  0
  9 10  1  0  0  0  0
  9 11  1  0  0  0  0
  9 15  1  0  0  0  0
 11 12  1  0  0  0  0
 11 13  1  0  0  0  0
 11 14  1  0  0  0  0
 15 16  2  0  0  0  0
 15 17  1  0  0  0  0
 17 18  1  0  0  0  0
 17 19  1  0  0  0  0
 19 20  1  0  0  0  0
 19 21  1  0  0  0  0
 19 22  1  0  0  0  0
M  END
$$$$

  -OEChem-11182114133D

 22 21  0     1  0  0  0  0  0999 V2000
   -2.6047   -3.7105    1.0709 H   0  0  0  0  0  0  0  0  0  0  0  0
   -2.6055   -2.7046    0.6412 C   0  0  0  0  0  0  0  0  0  0  0  0
   -3.4088   -2.1252    1.1025 H   0  0  0  0  0  0  0  0  0  0  0  0
   -2.7909   -2.7828   -0.4329 H   0  0  0  0  0  0  0  0  0  0  0  0
   -1.2695   -2.0301    0.8897 C   0  0  0  0  0  0  0  0  0  0  0  0
   -0.4255   -2.5849    1.5718 O   0  0  0  0  0  0  0  0  0  0  0  0
   -1.0341   -0.7686    0.3816 N   0  0  0  0  0  0  0  0  0  0  0  0
   -1.7648   -0.3694   -0.2011 H   0  0  0  0  0  0  0  0  0  0  0  0
    0.2774   -0.0929    0.3945 C   0  0  1  0  0  0  0  0  0  0  0  0
    1.0294   -0.7226    0.8820 H   0  0  0  0  0  0  0  0  0  0  0  0
    0.7005    0.1009   -1.0667 C   0  0  0  0  0  0  0  0  0  0  0  0
    0.0054    0.7690   -1.5847 H   0  0  0  0  0  0  0  0  0  0  0  0
    1.7033    0.5370   -1.1178 H   0  0  0  0  0  0  0  0  0  0  0  0
    0.7195   -0.8611   -1.5879 H   0  0  0  0  0  0  0  0  0  0  0  0
    0.2451    1.2380    1.1824 C   0  0  0  0  0  0  0  0  0  0  0  0
    0.9443    2.1898    0.8600 O   0  0  0  0  0  0  0  0  0  0  0  0
   -0.6320    1.3807    2.2417 N   0  0  0  0  0  0  0  0  0  0  0  0
   -1.1151    0.5380    2.5410 H   0  0  0  0  0  0  0  0  0  0  0  0
   -0.6867    2.5680    3.0853 C   0  0  0  0  0  0  0  0  0  0  0  0
   -0.9169    3.4547    2.4853 H   0  0  0  0  0  0  0  0  0  0  0  0
   -1.4653    2.4559    3.8460 H   0  0  0  0  0  0  0  0  0  0  0  0
    0.2725    2.7234    3.5903 H   0  0  0  0  0  0  0  0  0  0  0  0
  1  2  1  0  0  0  0
  2  3  1  0  0  0  0
  2  4  1  0  0  0  0
  2  5  1  0  0  0  0
  5  6  2  0  0  0  0
  5  7  1  0  0  0  0
  7  8  1  0  0  0  0
  7  9  1  0  0  0  0
  9 10  1  0  0  0  0
  9 11  1  0  0  0  0
  9 15  1  0  0  0  0
 11 12  1  0  0  0  0
 11 13  1  0  0  0  0
 11 14  1  0  0  0  0
 15 16  2  0  0  0  0
 15 17  1  0  0  0  0
 17 18  1  0  0  0  0
 17 19  1  0  0  0  0
 19 20  1  0  0  0  0
 19 21  1  0  0  0  0
 19 22  1  0  0  0  0
M  END
$$$$

  -OEChem-11182114133D

 22 21  0     1  0  0  0  0  0999 V2000
   -2.6208   -3.6806    1.0816 H   0  0  0  0  0  0  0  0  0  0  0  0
   -2.6157   -2.6716    0.6598 C   0  0  0  0  0  0  0  0  0  0  0  0
   -3.4023   -2.0847    1.1401 H   0  0  0  0  0  0  0  0  0  0  0  0
   -2.8221   -2.7385   -0.4112 H   0  0  0  0  0  0  0  0  0  0  0  0
   -1.2667   -2.0166    0.8891 C   0  0  0  0  0  0  0  0  0  0  0  0
   -0.4213   -2.5802    1.5628 O   0  0  0  0  0  0  0  0  0  0  0  0
   -1.0223   -0.7562    0.3837 N   0  0  0  0  0  0  0  0  0  0  0  0
   -1.7594   -0.3376   -0.1769 H   0  0  0  0  0  0  0  0  0  0  0  0
    0.2943   -0.0940    0.3881 C   0  0  1  0  0  0  0  0  0  0  0  0
    1.0460   -0.7288    0.8690 H   0  0  0  0  0  0  0  0  0  0  0  0
    0.7108    0.0996   -1.0753 C   0  0  0  0  0  0  0  0  0  0  0  0
    0.0106    0.7640   -1.5914 H   0  0  0  0  0  0  0  0  0  0  0  0
    1.7113    0.5407   -1.1306 H   0  0  0  0  0  0  0  0  0  0  0  0
    0.7312   -0.8628   -1.5957 H   0  0  0  0  0  0  0  0  0  0  0  0
    0.2621    1.2307    1.1847 C   0  0  0  0  0  0  0  0  0  0  0  0
    0.7426    2.2658    0.7408 O   0  0  0  0  0  0  0  0  0  0  0  0
   -0.3693    1.2569    2.4141 N   0  0  0  0  0  0  0  0  0  0  0  0
   -0.6941    0.3639    2.7771 H   0  0  0  0  0  0  0  0  0  0  0  0
   -0.4216    2.4357    3.2696 C   0  0  0  0  0  0  0  0  0  0  0  0
   -0.9193    3.2628    2.7524 H   0  0  0  0  0  0  0  0  0  0  0  0
   -0.9807    2.2146    4.1839 H   0  0  0  0  0  0  0  0  0  0  0  0
    0.5891    2.7515    3.5489 H   0  0  0  0  0  0  0  0  0  0  0  0
  1  2  1  0  0  0  0
  2  3  1  0  0  0  0
  2  4  1  0  0  0  0
  2  5  1  0  0  0  0
  5  6  2  0  0  0  0
  5  7  1  0  0  0  0
  7  8  1  0  0  0  0
  7  9  1  0  0  0  0
  9 10  1  0  0  0  0
  9 11  1  0  0  0  0
  9 15  1  0  0  0  0
 11 12  1  0  0  0  0
 11 13  1  0  0  0  0
 11 14  1  0  0  0  0
 15 16  2  0  0  0  0
 15 17  1  0  0  0  0
 17 18  1  0  0  0  0
 17 19  1  0  0  0  0
 19 20  1  0  0  0  0
 19 21  1  0  0  0  0
 19 22  1  0  0  0  0
M  END
$$$$

  -OEChem-11182114133D

 22 21  0     1  0  0  0  0  0999 V2000
   -2.6401   -3.6457    1.1168 H   0  0  0  0  0  0  0  0  0  0  0  0
   -2.6257   -2.6397    0.6879 C   0  0  0  0  0  0  0  0  0  0  0  0
   -3.3916   -2.0357    1.1803 H   0  0  0  0  0  0  0  0  0  0  0  0
   -2.8549   -2.7096   -0.3782 H   0  0  0  0  0  0  0  0  0  0  0  0
   -1.2611   -2.0071    0.8852 C   0  0  0  0  0  0  0  0  0  0  0  0
   -0.4077   -2.5868    1.5357 O   0  0  0  0  0  0  0  0  0  0  0  0
   -1.0094   -0.7476    0.3816 N   0  0  0  0  0  0  0  0  0  0  0  0
   -1.7556   -0.3068   -0.1494 H   0  0  0  0  0  0  0  0  0  0  0  0
    0.3116   -0.0974    0.3801 C   0  0  1  0  0  0  0  0  0  0  0  0
    1.0630   -0.7377    0.8540 H   0  0  0  0  0  0  0  0  0  0  0  0
    0.7247    0.1017   -1.0837 C   0  0  0  0  0  0  0  0  0  0  0  0
    0.0137    0.7536   -1.6012 H   0  0  0  0  0  0  0  0  0  0  0  0
    1.7173    0.5602   -1.1381 H   0  0  0  0  0  0  0  0  0  0  0  0
    0.7609   -0.8606   -1.6033 H   0  0  0  0  0  0  0  0  0  0  0  0
    0.2822    1.2221    1.1827 C   0  0  0  0  0  0  0  0  0  0  0  0
    0.5136    2.3063    0.6623 O   0  0  0  0  0  0  0  0  0  0  0  0
   -0.0584    1.1753    2.5211 N   0  0  0  0  0  0  0  0  0  0  0  0
   -0.2316    0.2549    2.9193 H   0  0  0  0  0  0  0  0  0  0  0  0
   -0.1137    2.3489    3.3831 C   0  0  0  0  0  0  0  0  0  0  0  0
   -0.8476    3.0682    3.0048 H   0  0  0  0  0  0  0  0  0  0  0  0
   -0.4049    2.0593    4.3973 H   0  0  0  0  0  0  0  0  0  0  0  0
    0.8658    2.8361    3.4303 H   0  0  0  0  0  0  0  0  0  0  0  0
  1  2  1  0  0  0  0
  2  3  1  0  0  0  0
  2  4  1  0  0  0  0
  2  5  1  0  0  0  0
  5  6  2  0  0  0  0
  5  7  1  0  0  0  0
  7  8  1  0  0  0  0
  7  9  1  0  0  0  0
  9 10  1  0  0  0  0
  9 11  1  0  0  0  0
  9 15  1  0  0  0  0
 11 12  1  0  0  0  0
 11 13  1  0  0  0  0
 11 14  1  0  0  0  0
 15 16  2  0  0  0  0
 15 17  1  0  0  0  0
 17 18  1  0  0  0  0
 17 19  1  0  0  0  0
 19 20  1  0  0  0  0
 19 21  1  0  0  0  0
 19 22  1  0  0  0  0
M  END
$$$$

  -OEChem-11182114133D

 22 21  0     1  0  0  0  0  0999 V2000
   -2.6552   -3.6148    1.1525 H   0  0  0  0  0  0  0  0  0  0  0  0
   -2.6340   -2.6095    0.7221 C   0  0  0  0  0  0  0  0  0  0  0  0
   -3.3720   -1.9900    1.2376 H   0  0  0  0  0  0  0  0  0  0  0  0
   -2.8978   -2.6753   -0.3362 H   0  0  0  0  0  0  0  0  0  0  0  0
   -1.2513   -2.0043    0.8755 C   0  0  0  0  0  0  0  0  0  0  0  0
   -0.3843   -2.6089    1.4848 O   0  0  0  0  0  0  0  0  0  0  0  0
   -0.9929   -0.7452    0.3744 N   0  0  0  0  0  0  0  0  0  0  0  0
   -1.7520   -0.2728   -0.1094 H   0  0  0  0  0  0  0  0  0  0  0  0
    0.3308   -0.1038    0.3696 C   0  0  1  0  0  0  0  0  0  0  0  0
    1.0829   -0.7493    0.8351 H   0  0  0  0  0  0  0  0  0  0  0  0
    0.7404    0.1045   -1.0936 C   0  0  0  0  0  0  0  0  0  0  0  0
    0.0211    0.7476   -1.6107 H   0  0  0  0  0  0  0  0  0  0  0  0
    1.7268    0.5761   -1.1469 H   0  0  0  0  0  0  0  0  0  0  0  0
    0.7883   -0.8565   -1.6148 H   0  0  0  0  0  0  0  0  0  0  0  0
    0.3057    1.2120    1.1762 C   0  0  0  0  0  0  0  0  0  0  0  0
    0.2656    2.3066    0.6282 O   0  0  0  0  0  0  0  0  0  0  0  0
    0.2798    1.1449    2.5561 N   0  0  0  0  0  0  0  0  0  0  0  0
    0.2586    0.2167    2.9727 H   0  0  0  0  0  0  0  0  0  0  0  0
    0.2112    2.3161    3.4202 C   0  0  0  0  0  0  0  0  0  0  0  0
   -0.6999    2.8889    3.2180 H   0  0  0  0  0  0  0  0  0  0  0  0
    0.2021    2.0107    4.4710 H   0  0  0  0  0  0  0  0  0  0  0  0
    1.0790    2.9636    3.2560 H   0  0  0  0  0  0  0  0  0  0  0  0
  1  2  1  0  0  0  0
  2  3  1  0  0  0  0
  2  4  1  0  0  0  0
  2  5  1  0  0  0  0
  5  6  2  0  0  0  0
  5  7  1  0  0  0  0
  7  8  1  0  0  0  0
  7  9  1  0  0  0  0
  9 10  1  0  0  0  0
  9 11  1  0  0  0  0
  9 15  1  0  0  0  0
 11 12  1  0  0  0  0
 11 13  1  0  0  0  0
 11 14  1  0  0  0  0
 15 16  2  0  0  0  0
 15 17  1  0  0  0  0
 17 18  1  0  0  0  0
 17 19  1  0  0  0  0
 19 20  1  0  0  0  0
 19 21  1  0  0  0  0
 19 22  1  0  0  0  0
M  END
$$$$

  -OEChem-11182114133D

 22 21  0     1  0  0  0  0  0999 V2000
   -2.6703   -3.5934    1.1739 H   0  0  0  0  0  0  0  0  0  0  0  0
   -2.6413   -2.5883    0.7437 C   0  0  0  0  0  0  0  0  0  0  0  0
   -3.3579   -1.9571    1.2748 H   0  0  0  0  0  0  0  0  0  0  0  0
   -2.9282   -2.6486   -0.3089 H   0  0  0  0  0  0  0  0  0  0  0  0
   -1.2459   -2.0060    0.8676 C   0  0  0  0  0  0  0  0  0  0  0  0
   -0.3705   -2.6343    1.4407 O   0  0  0  0  0  0  0  0  0  0  0  0
   -0.9800   -0.7487    0.3659 N   0  0  0  0  0  0  0  0  0  0  0  0
   -1.7499   -0.2455   -0.0679 H   0  0  0  0  0  0  0  0  0  0  0  0
    0.3454   -0.1133    0.3618 C   0  0  1  0  0  0  0  0  0  0  0  0
    1.0964   -0.7645    0.8211 H   0  0  0  0  0  0  0  0  0  0  0  0
    0.7523    0.1048   -1.1000 C   0  0  0  0  0  0  0  0  0  0  0  0
    0.0274    0.7441   -1.6142 H   0  0  0  0  0  0  0  0  0  0  0  0
    1.7347    0.5844   -1.1518 H   0  0  0  0  0  0  0  0  0  0  0  0
    0.8066   -0.8537   -1.6250 H   0  0  0  0  0  0  0  0  0  0  0  0
    0.3272    1.2035    1.1660 C   0  0  0  0  0  0  0  0  0  0  0  0
    0.0132    2.2653    0.6420 O   0  0  0  0  0  0  0  0  0  0  0  0
    0.6132    1.1728    2.5178 N   0  0  0  0  0  0  0  0  0  0  0  0
    0.7702    0.2588    2.9361 H   0  0  0  0  0  0  0  0  0  0  0  0
    0.5412    2.3445    3.3817 C   0  0  0  0  0  0  0  0  0  0  0  0
   -0.4795    2.7402    3.4070 H   0  0  0  0  0  0  0  0  0  0  0  0
    0.8360    2.0801    4.4018 H   0  0  0  0  0  0  0  0  0  0  0  0
    1.2147    3.1288    3.0205 H   0  0  0  0  0  0  0  0  0  0  0  0
  1  2  1  0  0  0  0
  2  3  1  0  0  0  0
  2  4  1  0  0  0  0
  2  5  1  0  0  0  0
  5  6  2  0  0  0  0
  5  7  1  0  0  0  0
  7  8  1  0  0  0  0
  7  9  1  0  0  0  0
  9 10  1  0  0  0  0
  9 11  1  0  0  0  0
  9 15  1  0  0  0  0
 11 12  1  0  0  0  0
 11 13  1  0  0  0  0
 11 14  1  0  0  0  0
 15 16  2  0  0  0  0
 15 17  1  0  0  0  0
 17 18  1  0  0  0  0
 17 19  1  0  0  0  0
 19 20  1  0  0  0  0
 19 21  1  0  0  0  0
 19 22  1  0  0  0  0
M  END
$$$$

  -OEChem-11182114133D

 22 21  0     1  0  0  0  0  0999 V2000
   -2.6842   -3.5626    1.2210 H   0  0  0  0  0  0  0  0  0  0  0  0
   -2.6494   -2.5596    0.7866 C   0  0  0  0  0  0  0  0  0  0  0  0
   -3.3192   -1.9074    1.3521 H   0  0  0  0  0  0  0  0  0  0  0  0
   -2.9920   -2.6132   -0.2495 H   0  0  0  0  0  0  0  0  0  0  0  0
   -1.2334   -2.0176    0.8374 C   0  0  0  0  0  0  0  0  0  0  0  0
   -0.3440   -2.6819    1.3448 O   0  0  0  0  0  0  0  0  0  0  0  0
   -0.9624   -0.7609    0.3372 N   0  0  0  0  0  0  0  0  0  0  0  0
   -1.7478   -0.2135   -0.0070 H   0  0  0  0  0  0  0  0  0  0  0  0
    0.3619   -0.1243    0.3434 C   0  0  1  0  0  0  0  0  0  0  0  0
    1.1082   -0.7784    0.8057 H   0  0  0  0  0  0  0  0  0  0  0  0
    0.7798    0.1076   -1.1119 C   0  0  0  0  0  0  0  0  0  0  0  0
    0.0579    0.7510   -1.6253 H   0  0  0  0  0  0  0  0  0  0  0  0
    1.7622    0.5880   -1.1521 H   0  0  0  0  0  0  0  0  0  0  0  0
    0.8381   -0.8463   -1.6449 H   0  0  0  0  0  0  0  0  0  0  0  0
    0.3376    1.1932    1.1445 C   0  0  0  0  0  0  0  0  0  0  0  0
   -0.2356    2.1814    0.7020 O   0  0  0  0  0  0  0  0  0  0  0  0
    0.9032    1.2430    2.4047 N   0  0  0  0  0  0  0  0  0  0  0  0
    1.2651    0.3721    2.7850 H   0  0  0  0  0  0  0  0  0  0  0  0
    0.8310    2.4147    3.2685 C   0  0  0  0  0  0  0  0  0  0  0  0
   -0.2109    2.6475    3.5120 H   0  0  0  0  0  0  0  0  0  0  0  0
    1.3725    2.2305    4.2014 H   0  0  0  0  0  0  0  0  0  0  0  0
    1.2803    3.2832    2.7754 H   0  0  0  0  0  0  0  0  0  0  0  0
  1  2  1  0  0  0  0
  2  3  1  0  0  0  0
  2  4  1  0  0  0  0
  2  5  1  0  0  0  0
  5  6  2  0  0  0  0
  5  7  1  0  0  0  0
  7  8  1  0  0  0  0
  7  9  1  0  0  0  0
  9 10  1  0  0  0  0
  9 11  1  0  0  0  0
  9 15  1  0  0  0  0
 11 12  1  0  0  0  0
 11 13  1  0  0  0  0
 11 14  1  0  0  0  0
 15 16  2  0  0  0  0
 15 17  1  0  0  0  0
 17 18  1  0  0  0  0
 17 19  1  0  0  0  0
 19 20  1  0  0  0  0
 19 21  1  0  0  0  0
 19 22  1  0  0  0  0
M  END
$$$$

  -OEChem-11182114133D

 22 21  0     1  0  0  0  0  0999 V2000
   -2.6902   -3.5408    1.2643 H   0  0  0  0  0  0  0  0  0  0  0  0
   -2.6524   -2.5405    0.8243 C   0  0  0  0  0  0  0  0  0  0  0  0
   -3.2787   -1.8708    1.4184 H   0  0  0  0  0  0  0  0  0  0  0  0
   -3.0454   -2.5890   -0.1939 H   0  0  0  0  0  0  0  0  0  0  0  0
   -1.2234   -2.0318    0.8040 C   0  0  0  0  0  0  0  0  0  0  0  0
   -0.3227   -2.7265    1.2469 O   0  0  0  0  0  0  0  0  0  0  0  0
   -0.9517   -0.7749    0.3045 N   0  0  0  0  0  0  0  0  0  0  0  0
   -1.7475   -0.1906    0.0570 H   0  0  0  0  0  0  0  0  0  0  0  0
    0.3703   -0.1345    0.3255 C   0  0  1  0  0  0  0  0  0  0  0  0
    1.1116   -0.7884    0.7958 H   0  0  0  0  0  0  0  0  0  0  0  0
    0.8025    0.1096   -1.1226 C   0  0  0  0  0  0  0  0  0  0  0  0
    0.0868    0.7607   -1.6350 H   0  0  0  0  0  0  0  0  0  0  0  0
    1.7871    0.5863   -1.1501 H   0  0  0  0  0  0  0  0  0  0  0  0
    0.8614   -0.8394   -1.6645 H   0  0  0  0  0  0  0  0  0  0  0  0
    0.3332    1.1845    1.1232 C   0  0  0  0  0  0  0  0  0  0  0  0
   -0.4485    2.0728    0.8041 O   0  0  0  0  0  0  0  0  0  0  0  0
    1.1334    1.3501    2.2384 N   0  0  0  0  0  0  0  0  0  0  0  0
    1.6930    0.5545    2.5334 H   0  0  0  0  0  0  0  0  0  0  0  0
    1.0831    2.5317    3.0906 C   0  0  0  0  0  0  0  0  0  0  0  0
    0.0858    2.6474    3.5279 H   0  0  0  0  0  0  0  0  0  0  0  0
    1.8095    2.4420    3.9040 H   0  0  0  0  0  0  0  0  0  0  0  0
    1.3215    3.4311    2.5132 H   0  0  0  0  0  0  0  0  0  0  0  0
  1  2  1  0  0  0  0
  2  3  1  0  0  0  0
  2  4  1  0  0  0  0
  2  5  1  0  0  0  0
  5  6  2  0  0  0  0
  5  7  1  0  0  0  0
  7  8  1  0  0  0  0
  7  9  1  0  0  0  0
  9 10  1  0  0  0  0
  9 11  1  0  0  0  0
  9 15  1  0  0  0  0
 11 12  1  0  0  0  0
 11 13  1  0  0  0  0
 11 14  1  0  0  0  0
 15 16  2  0  0  0  0
 15 17  1  0  0  0  0
 17 18  1  0  0  0  0
 17 19  1  0  0  0  0
 19 20  1  0  0  0  0
 19 21  1  0  0  0  0
 19 22  1  0  0  0  0
M  END
$$$$

  -OEChem-11182114133D

 22 21  0     1  0  0  0  0  0999 V2000
   -2.6906   -3.5275    1.2918 H   0  0  0  0  0  0  0  0  0  0  0  0
   -2.6534   -2.5265    0.8527 C   0  0  0  0  0  0  0  0  0  0  0  0
   -3.2461   -1.8485    1.4717 H   0  0  0  0  0  0  0  0  0  0  0  0
   -3.0851   -2.5653   -0.1503 H   0  0  0  0  0  0  0  0  0  0  0  0
   -1.2181   -2.0405    0.7789 C   0  0  0  0  0  0  0  0  0  0  0  0
   -0.3121   -2.7551    1.1773 O   0  0  0  0  0  0  0  0  0  0  0  0
   -0.9475   -0.7850    0.2758 N   0  0  0  0  0  0  0  0  0  0  0  0
   -1.7470   -0.1797    0.0989 H   0  0  0  0  0  0  0  0  0  0  0  0
    0.3723   -0.1401    0.3115 C   0  0  1  0  0  0  0  0  0  0  0  0
    1.1078   -0.7905    0.7959 H   0  0  0  0  0  0  0  0  0  0  0  0
    0.8198    0.1059   -1.1305 C   0  0  0  0  0  0  0  0  0  0  0  0
    0.1092    0.7585   -1.6480 H   0  0  0  0  0  0  0  0  0  0  0  0
    1.8051    0.5814   -1.1481 H   0  0  0  0  0  0  0  0  0  0  0  0
    0.8827   -0.8424   -1.6733 H   0  0  0  0  0  0  0  0  0  0  0  0
    0.3248    1.1837    1.1007 C   0  0  0  0  0  0  0  0  0  0  0  0
   -0.6123    1.9577    0.9397 O   0  0  0  0  0  0  0  0  0  0  0  0
    1.3091    1.4874    2.0230 N   0  0  0  0  0  0  0  0  0  0  0  0
    2.0256    0.7868    2.1913 H   0  0  0  0  0  0  0  0  0  0  0  0
    1.2791    2.6805    2.8600 C   0  0  0  0  0  0  0  0  0  0  0  0
    0.3807    2.6868    3.4861 H   0  0  0  0  0  0  0  0  0  0  0  0
    2.1565    2.7059    3.5135 H   0  0  0  0  0  0  0  0  0  0  0  0
    1.2838    3.5840    2.2412 H   0  0  0  0  0  0  0  0  0  0  0  0
  1  2  1  0  0  0  0
  2  3  1  0  0  0  0
  2  4  1  0  0  0  0
  2  5  1  0  0  0  0
  5  6  2  0  0  0  0
  5  7  1  0  0  0  0
  7  8  1  0  0  0  0
  7  9  1  0  0  0  0
  9 10  1  0  0  0  0
  9 11  1  0  0  0  0
  9 15  1  0  0  0  0
 11 12  1  0  0  0  0
 11 13  1  0  0  0  0
 11 14  1  0  0  0  0
 15 16  2  0  0  0  0
 15 17  1  0  0  0  0
 17 18  1  0  0  0  0
 17 19  1  0  0  0  0
 19 20  1  0  0  0  0
 19 21  1  0  0  0  0
 19 22  1  0  0  0  0
M  END
$$$$

  -OEChem-11182114133D

 22 21  0     1  0  0  0  0  0999 V2000
   -2.6854   -3.5220    1.3144 H   0  0  0  0  0  0  0  0  0  0  0  0
   -2.6525   -2.5239    0.8689 C   0  0  0  0  0  0  0  0  0  0  0  0
   -3.2213   -1.8376    1.5007 H   0  0  0  0  0  0  0  0  0  0  0  0
   -3.1134   -2.5644   -0.1209 H   0  0  0  0  0  0  0  0  0  0  0  0
   -1.2160   -2.0507    0.7519 C   0  0  0  0  0  0  0  0  0  0  0  0
   -0.3044   -2.7783    1.1124 O   0  0  0  0  0  0  0  0  0  0  0  0
   -0.9510   -0.7937    0.2492 N   0  0  0  0  0  0  0  0  0  0  0  0
   -1.7529   -0.1756    0.1367 H   0  0  0  0  0  0  0  0  0  0  0  0
    0.3658   -0.1430    0.3055 C   0  0  1  0  0  0  0  0  0  0  0  0
    1.0955   -0.7897    0.8034 H   0  0  0  0  0  0  0  0  0  0  0  0
    0.8308    0.1041   -1.1307 C   0  0  0  0  0  0  0  0  0  0  0  0
    0.1279    0.7600   -1.6545 H   0  0  0  0  0  0  0  0  0  0  0  0
    1.8182    0.5757   -1.1370 H   0  0  0  0  0  0  0  0  0  0  0  0
    0.8961   -0.8436   -1.6745 H   0  0  0  0  0  0  0  0  0  0  0  0
    0.3071    1.1835    1.0911 C   0  0  0  0  0  0  0  0  0  0  0  0
   -0.7270    1.8427    1.1051 O   0  0  0  0  0  0  0  0  0  0  0  0
    1.4123    1.6363    1.7878 N   0  0  0  0  0  0  0  0  0  0  0  0
    2.2367    1.0425    1.7992 H   0  0  0  0  0  0  0  0  0  0  0  0
    1.4101    2.8571    2.5845 C   0  0  0  0  0  0  0  0  0  0  0  0
    0.6566    2.7969    3.3768 H   0  0  0  0  0  0  0  0  0  0  0  0
    2.3891    3.0069    3.0497 H   0  0  0  0  0  0  0  0  0  0  0  0
    1.1907    3.7253    1.9544 H   0  0  0  0  0  0  0  0  0  0  0  0
  1  2  1  0  0  0  0
  2  3  1  0  0  0  0
  2  4  1  0  0  0  0
  2  5  1  0  0  0  0
  5  6  2  0  0  0  0
  5  7  1  0  0  0  0
  7  8  1  0  0  0  0
  7  9  1  0  0  0  0
  9 10  1  0  0  0  0
  9 11  1  0  0  0  0
  9 15  1  0  0  0  0
 11 12  1  0  0  0  0
 11 13  1  0  0  0  0
 11 14  1  0  0  0  0
 15 16  2  0  0  0  0
 15 17  1  0  0  0  0
 17 18  1  0  0  0  0
 17 19  1  0  0  0  0
 19 20  1  0  0  0  0
 19 21  1  0  0  0  0
 19 22  1  0  0  0  0
M  END
$$$$

  -OEChem-11182114133D

 22 21  0     1  0  0  0  0  0999 V2000
   -2.6783   -3.5137    1.3361 H   0  0  0  0  0  0  0  0  0  0  0  0
   -2.6499   -2.5171    0.8867 C   0  0  0  0  0  0  0  0  0  0  0  0
   -3.1930   -1.8239    1.5338 H   0  0  0  0  0  0  0  0  0  0  0  0
   -3.1409   -2.5554   -0.0887 H   0  0  0  0  0  0  0  0  0  0  0  0
   -1.2133   -2.0571    0.7252 C   0  0  0  0  0  0  0  0  0  0  0  0
   -0.2975   -2.7973    1.0482 O   0  0  0  0  0  0  0  0  0  0  0  0
   -0.9540   -0.7990    0.2223 N   0  0  0  0  0  0  0  0  0  0  0  0
   -1.7565   -0.1740    0.1645 H   0  0  0  0  0  0  0  0  0  0  0  0
    0.3602   -0.1442    0.2986 C   0  0  1  0  0  0  0  0  0  0  0  0
    1.0841   -0.7860    0.8113 H   0  0  0  0  0  0  0  0  0  0  0  0
    0.8429    0.0970   -1.1332 C   0  0  0  0  0  0  0  0  0  0  0  0
    0.1496    0.7562   -1.6654 H   0  0  0  0  0  0  0  0  0  0  0  0
    1.8337    0.5611   -1.1318 H   0  0  0  0  0  0  0  0  0  0  0  0
    0.9072   -0.8522   -1.6745 H   0  0  0  0  0  0  0  0  0  0  0  0
    0.2899    1.1846    1.0815 C   0  0  0  0  0  0  0  0  0  0  0  0
   -0.7928    1.7240    1.2851 O   0  0  0  0  0  0  0  0  0  0  0  0
    1.4461    1.7949    1.5322 N   0  0  0  0  0  0  0  0  0  0  0  0
    2.3251    1.3091    1.3792 H   0  0  0  0  0  0  0  0  0  0  0  0
    1.4497    3.0410    2.2887 C   0  0  0  0  0  0  0  0  0  0  0  0
    0.8833    2.9259    3.2188 H   0  0  0  0  0  0  0  0  0  0  0  0
    2.4751    3.3271    2.5416 H   0  0  0  0  0  0  0  0  0  0  0  0
    1.0011    3.8482    1.7001 H   0  0  0  0  0  0  0  0  0  0  0  0
  1  2  1  0  0  0  0
  2  3  1  0  0  0  0
  2  4  1  0  0  0  0
  2  5  1  0  0  0  0
  5  6  2  0  0  0  0
  5  7  1  0  0  0  0
  7  8  1  0  0  0  0
  7  9  1  0  0  0  0
  9 10  1  0  0  0  0
  9 11  1  0  0  0  0
  9 15  1  0  0  0  0
 11 12  1  0  0  0  0
 11 13  1  0  0  0  0
 11 14  1  0  0  0  0
 15 16  2  0  0  0  0
 15 17  1  0  0  0  0
 17 18  1  0  0  0  0
 17 19  1  0  0  0  0
 19 20  1  0  0  0  0
 19 21  1  0  0  0  0
 19 22  1  0  0  0  0
M  END
$$$$

  -OEChem-11182114133D

 22 21  0     1  0  0  0  0  0999 V2000
   -2.6410   -3.5021    1.3781 H   0  0  0  0  0  0  0  0  0  0  0  0
   -2.6285   -2.5071    0.9245 C   0  0  0  0  0  0  0  0  0  0  0  0
   -3.1337   -1.8084    1.5961 H   0  0  0  0  0  0  0  0  0  0  0  0
   -3.1678   -2.5450   -0.0250 H   0  0  0  0  0  0  0  0  0  0  0  0
   -1.1988   -2.0564    0.6909 C   0  0  0  0  0  0  0  0  0  0  0  0
   -0.2744   -2.8090    0.9558 O   0  0  0  0  0  0  0  0  0  0  0  0
   -0.9580   -0.7949    0.1854 N   0  0  0  0  0  0  0  0  0  0  0  0
   -1.7620   -0.1716    0.2094 H   0  0  0  0  0  0  0  0  0  0  0  0
    0.3561   -0.1396    0.2784 C   0  0  1  0  0  0  0  0  0  0  0  0
    1.1359   -0.8620    0.5416 H   0  0  0  0  0  0  0  0  0  0  0  0
    0.6741    0.4305   -1.1070 C   0  0  0  0  0  0  0  0  0  0  0  0
   -0.0640    1.1882   -1.3891 H   0  0  0  0  0  0  0  0  0  0  0  0
    1.6669    0.8900   -1.1175 H   0  0  0  0  0  0  0  0  0  0  0  0
    0.6580   -0.3680   -1.8556 H   0  0  0  0  0  0  0  0  0  0  0  0
    0.3747    0.9722    1.3527 C   0  0  0  0  0  0  0  0  0  0  0  0
   -0.6542    1.2810    1.9446 O   0  0  0  0  0  0  0  0  0  0  0  0
    1.5267    1.7010    1.5871 N   0  0  0  0  0  0  0  0  0  0  0  0
    2.3697    1.4175    1.0968 H   0  0  0  0  0  0  0  0  0  0  0  0
    1.6097    2.7724    2.5723 C   0  0  0  0  0  0  0  0  0  0  0  0
    1.3852    2.3902    3.5738 H   0  0  0  0  0  0  0  0  0  0  0  0
    2.6173    3.1991    2.5830 H   0  0  0  0  0  0  0  0  0  0  0  0
    0.8994    3.5705    2.3319 H   0  0  0  0  0  0  0  0  0  0  0  0
  1  2  1  0  0  0  0
  2  3  1  0  0  0  0
  2  4  1  0  0  0  0
  2  5  1  0  0  0  0
  5  6  2  0  0  0  0
  5  7  1  0  0  0  0
  7  8  1  0  0  0  0
  7  9  1  0  0  0  0
  9 10  1  0  0  0  0
  9 11  1  0  0  0  0
  9 15  1  0  0  0  0
 11 12  1  0  0  0  0
 11 13  1  0  0  0  0
 11 14  1  0  0  0  0
 15 16  2  0  0  0  0
 15 17  1  0  0  0  0
 17 18  1  0  0  0  0
 17 19  1  0  0  0  0
 19 20  1  0  0  0  0
 19 21  1  0  0  0  0
 19 22  1  0  0  0  0
M  END
$$$$

  -OEChem-11182114133D

 22 21  0     1  0  0  0  0  0999 V2000
   -2.6354   -3.5051    1.3681 H   0  0  0  0  0  0  0  0  0  0  0  0
   -2.6251   -2.5008    0.9354 C   0  0  0  0  0  0  0  0  0  0  0  0
   -3.1121   -1.8135    1.6318 H   0  0  0  0  0  0  0  0  0  0  0  0
   -3.1832   -2.5150   -0.0037 H   0  0  0  0  0  0  0  0  0  0  0  0
   -1.1973   -2.0548    0.6830 C   0  0  0  0  0  0  0  0  0  0  0  0
   -0.2729   -2.8160    0.9217 O   0  0  0  0  0  0  0  0  0  0  0  0
   -0.9599   -0.7935    0.1746 N   0  0  0  0  0  0  0  0  0  0  0  0
   -1.7652   -0.1734    0.2090 H   0  0  0  0  0  0  0  0  0  0  0  0
    0.3538   -0.1372    0.2766 C   0  0  1  0  0  0  0  0  0  0  0  0
    1.1319   -0.8563    0.5534 H   0  0  0  0  0  0  0  0  0  0  0  0
    0.6817    0.4100   -1.1171 C   0  0  0  0  0  0  0  0  0  0  0  0
   -0.0421    1.1781   -1.4083 H   0  0  0  0  0  0  0  0  0  0  0  0
    1.6841    0.8474   -1.1375 H   0  0  0  0  0  0  0  0  0  0  0  0
    0.6482   -0.3978   -1.8552 H   0  0  0  0  0  0  0  0  0  0  0  0
    0.3642    0.9787    1.3501 C   0  0  0  0  0  0  0  0  0  0  0  0
   -0.5933    1.1243    2.1020 O   0  0  0  0  0  0  0  0  0  0  0  0
    1.3868    1.9100    1.3941 N   0  0  0  0  0  0  0  0  0  0  0  0
    2.1769    1.7686    0.7721 H   0  0  0  0  0  0  0  0  0  0  0  0
    1.4374    3.0000    2.3612 C   0  0  0  0  0  0  0  0  0  0  0  0
    1.4543    2.6051    3.3825 H   0  0  0  0  0  0  0  0  0  0  0  0
    2.3393    3.6003    2.2073 H   0  0  0  0  0  0  0  0  0  0  0  0
    0.5653    3.6529    2.2500 H   0  0  0  0  0  0  0  0  0  0  0  0
  1  2  1  0  0  0  0
  2  3  1  0  0  0  0
  2  4  1  0  0  0  0
  2  5  1  0  0  0  0
  5  6  2  0  0  0  0
  5  7  1  0  0  0  0
  7  8  1  0  0  0  0
  7  9  1  0  0  0  0
  9 10  1  0  0  0  0
  9 11  1  0  0  0  0
  9 15  1  0  0  0  0
 11 12  1  0  0  0  0
 11 13  1  0  0  0  0
 11 14  1  0  0  0  0
 15 16  2  0  0  0  0
 15 17  1  0  0  0  0
 17 18  1  0  0  0  0
 17 19  1  0  0  0  0
 19 20  1  0  0  0  0
 19 21  1  0  0  0  0
 19 22  1  0  0  0  0
M  END
$$$$

  -OEChem-11182114133D

 22 21  0     1  0  0  0  0  0999 V2000
   -2.6338   -3.5106    1.3466 H   0  0  0  0  0  0  0  0  0  0  0  0
   -2.6226   -2.4915    0.9503 C   0  0  0  0  0  0  0  0  0  0  0  0
   -3.0814   -1.8244    1.6842 H   0  0  0  0  0  0  0  0  0  0  0  0
   -3.2064   -2.4657    0.0273 H   0  0  0  0  0  0  0  0  0  0  0  0
   -1.1967   -2.0530    0.6754 C   0  0  0  0  0  0  0  0  0  0  0  0
   -0.2739   -2.8229    0.8915 O   0  0  0  0  0  0  0  0  0  0  0  0
   -0.9610   -0.7910    0.1670 N   0  0  0  0  0  0  0  0  0  0  0  0
   -1.7673   -0.1732    0.2048 H   0  0  0  0  0  0  0  0  0  0  0  0
    0.3541   -0.1374    0.2734 C   0  0  1  0  0  0  0  0  0  0  0  0
    1.1278   -0.8573    0.5606 H   0  0  0  0  0  0  0  0  0  0  0  0
    0.6991    0.3930   -1.1233 C   0  0  0  0  0  0  0  0  0  0  0  0
   -0.0054    1.1754   -1.4231 H   0  0  0  0  0  0  0  0  0  0  0  0
    1.7125    0.8045   -1.1422 H   0  0  0  0  0  0  0  0  0  0  0  0
    0.6495   -0.4190   -1.8559 H   0  0  0  0  0  0  0  0  0  0  0  0
    0.3587    0.9772    1.3500 C   0  0  0  0  0  0  0  0  0  0  0  0
   -0.4734    0.9677    2.2497 O   0  0  0  0  0  0  0  0  0  0  0  0
    1.1850    2.0819    1.2350 N   0  0  0  0  0  0  0  0  0  0  0  0
    1.8603    2.0863    0.4768 H   0  0  0  0  0  0  0  0  0  0  0  0
    1.1819    3.1893    2.1835 C   0  0  0  0  0  0  0  0  0  0  0  0
    1.4260    2.8325    3.1898 H   0  0  0  0  0  0  0  0  0  0  0  0
    1.9244    3.9385    1.8927 H   0  0  0  0  0  0  0  0  0  0  0  0
    0.1980    3.6697    2.2086 H   0  0  0  0  0  0  0  0  0  0  0  0
  1  2  1  0  0  0  0
  2  3  1  0  0  0  0
  2  4  1  0  0  0  0
  2  5  1  0  0  0  0
  5  6  2  0  0  0  0
  5  7  1  0  0  0  0
  7  8  1  0  0  0  0
  7  9  1  0  0  0  0
  9 10  1  0  0  0  0
  9 11  1  0  0  0  0
  9 15  1  0  0  0  0
 11 12  1  0  0  0  0
 11 13  1  0  0  0  0
 11 14  1  0  0  0  0
 15 16  2  0  0  0  0
 15 17  1  0  0  0  0
 17 18  1  0  0  0  0
 17 19  1  0  0  0  0
 19 20  1  0  0  0  0
 19 21  1  0  0  0  0
 19 22  1  0  0  0  0
M  END
$$$$

  -OEChem-11182114133D

 22 21  0     1  0  0  0  0  0999 V2000
   -2.6354   -3.5113    1.3421 H   0  0  0  0  0  0  0  0  0  0  0  0
   -2.6231   -2.4893    0.9531 C   0  0  0  0  0  0  0  0  0  0  0  0
   -3.0797   -1.8265    1.6925 H   0  0  0  0  0  0  0  0  0  0  0  0
   -3.2078   -2.4560    0.0307 H   0  0  0  0  0  0  0  0  0  0  0  0
   -1.1967   -2.0505    0.6803 C   0  0  0  0  0  0  0  0  0  0  0  0
   -0.2750   -2.8237    0.8885 O   0  0  0  0  0  0  0  0  0  0  0  0
   -0.9614   -0.7885    0.1705 N   0  0  0  0  0  0  0  0  0  0  0  0
   -1.7718   -0.1761    0.1881 H   0  0  0  0  0  0  0  0  0  0  0  0
    0.3527   -0.1321    0.2757 C   0  0  1  0  0  0  0  0  0  0  0  0
    1.1244   -0.8499    0.5742 H   0  0  0  0  0  0  0  0  0  0  0  0
    0.7090    0.3796   -1.1255 C   0  0  0  0  0  0  0  0  0  0  0  0
    0.0009    1.1496   -1.4478 H   0  0  0  0  0  0  0  0  0  0  0  0
    1.7193    0.7994   -1.1375 H   0  0  0  0  0  0  0  0  0  0  0  0
    0.6762   -0.4448   -1.8452 H   0  0  0  0  0  0  0  0  0  0  0  0
    0.3531    0.9840    1.3509 C   0  0  0  0  0  0  0  0  0  0  0  0
   -0.2928    0.8402    2.3812 O   0  0  0  0  0  0  0  0  0  0  0  0
    0.9260    2.2212    1.1090 N   0  0  0  0  0  0  0  0  0  0  0  0
    1.4332    2.3412    0.2377 H   0  0  0  0  0  0  0  0  0  0  0  0
    0.8800    3.3275    2.0583 C   0  0  0  0  0  0  0  0  0  0  0  0
    1.3501    3.0401    3.0048 H   0  0  0  0  0  0  0  0  0  0  0  0
    1.4140    4.1940    1.6567 H   0  0  0  0  0  0  0  0  0  0  0  0
   -0.1565    3.6210    2.2546 H   0  0  0  0  0  0  0  0  0  0  0  0
  1  2  1  0  0  0  0
  2  3  1  0  0  0  0
  2  4  1  0  0  0  0
  2  5  1  0  0  0  0
  5  6  2  0  0  0  0
  5  7  1  0  0  0  0
  7  8  1  0  0  0  0
  7  9  1  0  0  0  0
  9 10  1  0  0  0  0
  9 11  1  0  0  0  0
  9 15  1  0  0  0  0
 11 12  1  0  0  0  0
 11 13  1  0  0  0  0
 11 14  1  0  0  0  0
 15 16  2  0  0  0  0
 15 17  1  0  0  0  0
 17 18  1  0  0  0  0
 17 19  1  0  0  0  0
 19 20  1  0  0  0  0
 19 21  1  0  0  0  0
 19 22  1  0  0  0  0
M  END
$$$$

  -OEChem-11182114133D

 22 21  0     1  0  0  0  0  0999 V2000
   -2.6363   -3.5205    1.3288 H   0  0  0  0  0  0  0  0  0  0  0  0
   -2.6253   -2.4966    0.9442 C   0  0  0  0  0  0  0  0  0  0  0  0
   -3.0973   -1.8404    1.6796 H   0  0  0  0  0  0  0  0  0  0  0  0
   -3.1963   -2.4634    0.0133 H   0  0  0  0  0  0  0  0  0  0  0  0
   -1.1978   -2.0478    0.6944 C   0  0  0  0  0  0  0  0  0  0  0  0
   -0.2757   -2.8172    0.9118 O   0  0  0  0  0  0  0  0  0  0  0  0
   -0.9633   -0.7860    0.1830 N   0  0  0  0  0  0  0  0  0  0  0  0
   -1.7788   -0.1815    0.1635 H   0  0  0  0  0  0  0  0  0  0  0  0
    0.3488   -0.1253    0.2842 C   0  0  1  0  0  0  0  0  0  0  0  0
    1.1221   -0.8391    0.5883 H   0  0  0  0  0  0  0  0  0  0  0  0
    0.7102    0.3775   -1.1188 C   0  0  0  0  0  0  0  0  0  0  0  0
   -0.0186    1.1157   -1.4677 H   0  0  0  0  0  0  0  0  0  0  0  0
    1.7054    0.8327   -1.1185 H   0  0  0  0  0  0  0  0  0  0  0  0
    0.7194   -0.4595   -1.8245 H   0  0  0  0  0  0  0  0  0  0  0  0
    0.3449    0.9917    1.3571 C   0  0  0  0  0  0  0  0  0  0  0  0
   -0.0654    0.7530    2.4848 O   0  0  0  0  0  0  0  0  0  0  0  0
    0.6246    2.3082    1.0310 N   0  0  0  0  0  0  0  0  0  0  0  0
    0.9379    2.4999    0.0845 H   0  0  0  0  0  0  0  0  0  0  0  0
    0.5504    3.4072    1.9869 C   0  0  0  0  0  0  0  0  0  0  0  0
    1.2299    3.2303    2.8274 H   0  0  0  0  0  0  0  0  0  0  0  0
    0.8343    4.3477    1.5051 H   0  0  0  0  0  0  0  0  0  0  0  0
   -0.4689    3.5110    2.3735 H   0  0  0  0  0  0  0  0  0  0  0  0
  1  2  1  0  0  0  0
  2  3  1  0  0  0  0
  2  4  1  0  0  0  0
  2  5  1  0  0  0  0
  5  6  2  0  0  0  0
  5  7  1  0  0  0  0
  7  8  1  0  0  0  0
  7  9  1  0  0  0  0
  9 10  1  0  0  0  0
  9 11  1  0  0  0  0
  9 15  1  0  0  0  0
 11 12  1  0  0  0  0
 11 13  1  0  0  0  0
 11 14  1  0  0  0  0
 15 16  2  0  0  0  0
 15 17  1  0  0  0  0
 17 18  1  0  0  0  0
 17 19  1  0  0  0  0
 19 20  1  0  0  0  0
 19 21  1  0  0  0  0
 19 22  1  0  0  0  0
M  END
$$$$

  -OEChem-11182114133D

 22 21  0     1  0  0  0  0  0999 V2000
   -2.6372   -3.5330    1.3223 H   0  0  0  0  0  0  0  0  0  0  0  0
   -2.6289   -2.5147    0.9235 C   0  0  0  0  0  0  0  0  0  0  0  0
   -3.1309   -1.8550    1.6354 H   0  0  0  0  0  0  0  0  0  0  0  0
   -3.1728   -2.5028   -0.0239 H   0  0  0  0  0  0  0  0  0  0  0  0
   -1.2007   -2.0505    0.7085 C   0  0  0  0  0  0  0  0  0  0  0  0
   -0.2766   -2.8096    0.9500 O   0  0  0  0  0  0  0  0  0  0  0  0
   -0.9676   -0.7883    0.1972 N   0  0  0  0  0  0  0  0  0  0  0  0
   -1.7886   -0.1944    0.1344 H   0  0  0  0  0  0  0  0  0  0  0  0
    0.3397   -0.1184    0.2989 C   0  0  1  0  0  0  0  0  0  0  0  0
    1.1168   -0.8270    0.6068 H   0  0  0  0  0  0  0  0  0  0  0  0
    0.7054    0.3860   -1.1021 C   0  0  0  0  0  0  0  0  0  0  0  0
   -0.0469    1.0876   -1.4751 H   0  0  0  0  0  0  0  0  0  0  0  0
    1.6793    0.8852   -1.0856 H   0  0  0  0  0  0  0  0  0  0  0  0
    0.7653   -0.4572   -1.7977 H   0  0  0  0  0  0  0  0  0  0  0  0
    0.3268    0.9996    1.3685 C   0  0  0  0  0  0  0  0  0  0  0  0
    0.1992    0.7154    2.5507 O   0  0  0  0  0  0  0  0  0  0  0  0
    0.2906    2.3367    1.0095 N   0  0  0  0  0  0  0  0  0  0  0  0
    0.3893    2.5592    0.0240 H   0  0  0  0  0  0  0  0  0  0  0  0
    0.2195    3.4262    1.9765 C   0  0  0  0  0  0  0  0  0  0  0  0
    1.0827    3.3975    2.6498 H   0  0  0  0  0  0  0  0  0  0  0  0
    0.2156    4.3908    1.4600 H   0  0  0  0  0  0  0  0  0  0  0  0
   -0.6956    3.3507    2.5734 H   0  0  0  0  0  0  0  0  0  0  0  0
  1  2  1  0  0  0  0
  2  3  1  0  0  0  0
  2  4  1  0  0  0  0
  2  5  1  0  0  0  0
  5  6  2  0  0  0  0
  5  7  1  0  0  0  0
  7  8  1  0  0  0  0
  7  9  1  0  0  0  0
  9 10  1  0  0  0  0
  9 11  1  0  0  0  0
  9 15  1  0  0  0  0
 11 12  1  0  0  0  0
 11 13  1  0  0  0  0
 11 14  1  0  0  0  0
 15 16  2  0  0  0  0
 15 17  1  0  0  0  0
 17 18  1  0  0  0  0
 17 19  1  0  0  0  0
 19 20  1  0  0  0  0
 19 21  1  0  0  0  0
 19 22  1  0  0  0  0
M  END
$$$$

  -OEChem-11182114133D

 22 21  0     1  0  0  0  0  0999 V2000
   -2.6455   -3.5456    1.3263 H   0  0  0  0  0  0  0  0  0  0  0  0
   -2.6363   -2.5429    0.8893 C   0  0  0  0  0  0  0  0  0  0  0  0
   -3.1868   -1.8685    1.5495 H   0  0  0  0  0  0  0  0  0  0  0  0
   -3.1326   -2.5779   -0.0834 H   0  0  0  0  0  0  0  0  0  0  0  0
   -1.2077   -2.0579    0.7266 C   0  0  0  0  0  0  0  0  0  0  0  0
   -0.2835   -2.8022    1.0074 O   0  0  0  0  0  0  0  0  0  0  0  0
   -0.9734   -0.7938    0.2197 N   0  0  0  0  0  0  0  0  0  0  0  0
   -1.7977   -0.2130    0.1052 H   0  0  0  0  0  0  0  0  0  0  0  0
    0.3299   -0.1150    0.3192 C   0  0  1  0  0  0  0  0  0  0  0  0
    1.1122   -0.8208    0.6206 H   0  0  0  0  0  0  0  0  0  0  0  0
    0.6910    0.4057   -1.0767 C   0  0  0  0  0  0  0  0  0  0  0  0
   -0.0802    1.0825   -1.4566 H   0  0  0  0  0  0  0  0  0  0  0  0
    1.6465    0.9393   -1.0483 H   0  0  0  0  0  0  0  0  0  0  0  0
    0.7871   -0.4329   -1.7736 H   0  0  0  0  0  0  0  0  0  0  0  0
    0.3152    1.0014    1.3886 C   0  0  0  0  0  0  0  0  0  0  0  0
    0.5070    0.7336    2.5654 O   0  0  0  0  0  0  0  0  0  0  0  0
   -0.0366    2.2989    1.0562 N   0  0  0  0  0  0  0  0  0  0  0  0
   -0.1648    2.5111    0.0720 H   0  0  0  0  0  0  0  0  0  0  0  0
   -0.0947    3.3857    2.0270 C   0  0  0  0  0  0  0  0  0  0  0  0
    0.8916    3.5555    2.4715 H   0  0  0  0  0  0  0  0  0  0  0  0
   -0.4197    4.3107    1.5412 H   0  0  0  0  0  0  0  0  0  0  0  0
   -0.8048    3.1486    2.8264 H   0  0  0  0  0  0  0  0  0  0  0  0
  1  2  1  0  0  0  0
  2  3  1  0  0  0  0
  2  4  1  0  0  0  0
  2  5  1  0  0  0  0
  5  6  2  0  0  0  0
  5  7  1  0  0  0  0
  7  8  1  0  0  0  0
  7  9  1  0  0  0  0
  9 10  1  0  0  0  0
  9 11  1  0  0  0  0
  9 15  1  0  0  0  0
 11 12  1  0  0  0  0
 11 13  1  0  0  0  0
 11 14  1  0  0  0  0
 15 16  2  0  0  0  0
 15 17  1  0  0  0  0
 17 18  1  0  0  0  0
 17 19  1  0  0  0  0
 19 20  1  0  0  0  0
 19 21  1  0  0  0  0
 19 22  1  0  0  0  0
M  END
$$$$

  -OEChem-11182114133D

 22 21  0     1  0  0  0  0  0999 V2000
   -2.6500   -3.5935    1.2698 H   0  0  0  0  0  0  0  0  0  0  0  0
   -2.6400   -2.5879    0.8396 C   0  0  0  0  0  0  0  0  0  0  0  0
   -3.2389   -1.9298    1.4735 H   0  0  0  0  0  0  0  0  0  0  0  0
   -3.0836   -2.6280   -0.1580 H   0  0  0  0  0  0  0  0  0  0  0  0
   -1.2160   -2.0708    0.7549 C   0  0  0  0  0  0  0  0  0  0  0  0
   -0.2938   -2.7867    1.1046 O   0  0  0  0  0  0  0  0  0  0  0  0
   -0.9826   -0.8044    0.2537 N   0  0  0  0  0  0  0  0  0  0  0  0
   -1.8079   -0.2471    0.0596 H   0  0  0  0  0  0  0  0  0  0  0  0
    0.3160   -0.1143    0.3479 C   0  0  1  0  0  0  0  0  0  0  0  0
    1.1055   -0.8186    0.6353 H   0  0  0  0  0  0  0  0  0  0  0  0
    0.6635    0.4287   -1.0420 C   0  0  0  0  0  0  0  0  0  0  0  0
   -0.1095    1.1135   -1.4028 H   0  0  0  0  0  0  0  0  0  0  0  0
    1.6189    0.9623   -1.0115 H   0  0  0  0  0  0  0  0  0  0  0  0
    0.7540   -0.3973   -1.7546 H   0  0  0  0  0  0  0  0  0  0  0  0
    0.3055    1.0000    1.4176 C   0  0  0  0  0  0  0  0  0  0  0  0
    0.8353    0.8269    2.5050 O   0  0  0  0  0  0  0  0  0  0  0  0
   -0.3403    2.2009    1.1751 N   0  0  0  0  0  0  0  0  0  0  0  0
   -0.7170    2.3503    0.2450 H   0  0  0  0  0  0  0  0  0  0  0  0
   -0.3652    3.3005    2.1326 C   0  0  0  0  0  0  0  0  0  0  0  0
    0.6510    3.6546    2.3354 H   0  0  0  0  0  0  0  0  0  0  0  0
   -0.9504    4.1356    1.7361 H   0  0  0  0  0  0  0  0  0  0  0  0
   -0.8202    2.9777    3.0750 H   0  0  0  0  0  0  0  0  0  0  0  0
  1  2  1  0  0  0  0
  2  3  1  0  0  0  0
  2  4  1  0  0  0  0
  2  5  1  0  0  0  0
  5  6  2  0  0  0  0
  5  7  1  0  0  0  0
  7  8  1  0  0  0  0
  7  9  1  0  0  0  0
  9 10  1  0  0  0  0
  9 11  1  0  0  0  0
  9 15  1  0  0  0  0
 11 12  1  0  0  0  0
 11 13  1  0  0  0  0
 11 14  1  0  0  0  0
 15 16  2  0  0  0  0
 15 17  1  0  0  0  0
 17 18  1  0  0  0  0
 17 19  1  0  0  0  0
 19 20  1  0  0  0  0
 19 21  1  0  0  0  0
 19 22  1  0  0  0  0
M  END
$$$$

  -OEChem-11182114133D

 22 21  0     1  0  0  0  0  0999 V2000
   -2.6453   -3.6646    1.1784 H   0  0  0  0  0  0  0  0  0  0  0  0
   -2.6388   -2.6548    0.7583 C   0  0  0  0  0  0  0  0  0  0  0  0
   -3.3232   -2.0297    1.3370 H   0  0  0  0  0  0  0  0  0  0  0  0
   -2.9837   -2.7033   -0.2773 H   0  0  0  0  0  0  0  0  0  0  0  0
   -1.2367   -2.0775    0.8124 C   0  0  0  0  0  0  0  0  0  0  0  0
   -0.3297   -2.7419    1.2816 O   0  0  0  0  0  0  0  0  0  0  0  0
   -1.0030   -0.8110    0.3121 N   0  0  0  0  0  0  0  0  0  0  0  0
   -1.8079   -0.3103   -0.0481 H   0  0  0  0  0  0  0  0  0  0  0  0
    0.2943   -0.1143    0.3854 C   0  0  1  0  0  0  0  0  0  0  0  0
    1.0892   -0.8213    0.6507 H   0  0  0  0  0  0  0  0  0  0  0  0
    0.6126    0.4427   -1.0044 C   0  0  0  0  0  0  0  0  0  0  0  0
   -0.1536    1.1536   -1.3277 H   0  0  0  0  0  0  0  0  0  0  0  0
    1.5805    0.9543   -0.9921 H   0  0  0  0  0  0  0  0  0  0  0  0
    0.6632   -0.3720   -1.7337 H   0  0  0  0  0  0  0  0  0  0  0  0
    0.3143    1.0034    1.4510 C   0  0  0  0  0  0  0  0  0  0  0  0
    1.1558    1.0048    2.3374 O   0  0  0  0  0  0  0  0  0  0  0  0
   -0.5700    2.0662    1.3689 N   0  0  0  0  0  0  0  0  0  0  0  0
   -1.2138    2.0822    0.5859 H   0  0  0  0  0  0  0  0  0  0  0  0
   -0.5612    3.1871    2.3014 C   0  0  0  0  0  0  0  0  0  0  0  0
    0.3968    3.7157    2.2562 H   0  0  0  0  0  0  0  0  0  0  0  0
   -1.3586    3.8935    2.0516 H   0  0  0  0  0  0  0  0  0  0  0  0
   -0.7211    2.8344    3.3259 H   0  0  0  0  0  0  0  0  0  0  0  0
  1  2  1  0  0  0  0
  2  3  1  0  0  0  0
  2  4  1  0  0  0  0
  2  5  1  0  0  0  0
  5  6  2  0  0  0  0
  5  7  1  0  0  0  0
  7  8  1  0  0  0  0
  7  9  1  0  0  0  0
  9 10  1  0  0  0  0
  9 11  1  0  0  0  0
  9 15  1  0  0  0  0
 11 12  1  0  0  0  0
 11 13  1  0  0  0  0
 11 14  1  0  0  0  0
 15 16  2  0  0  0  0
 15 17  1  0  0  0  0
 17 18  1  0  0  0  0
 17 19  1  0  0  0  0
 19 20  1  0  0  0  0
 19 21  1  0  0  0  0
 19 22  1  0  0  0  0
M  END
$$$$

  -OEChem-11182114133D

 22 21  0     1  0  0  0  0  0999 V2000
   -2.6123   -3.7272    1.0940 H   0  0  0  0  0  0  0  0  0  0  0  0
   -2.6176   -2.7206    0.6660 C   0  0  0  0  0  0  0  0  0  0  0  0
   -3.4094   -2.1394    1.1447 H   0  0  0  0  0  0  0  0  0  0  0  0
   -2.8238   -2.7962   -0.4044 H   0  0  0  0  0  0  0  0  0  0  0  0
   -1.2749   -2.0510    0.8919 C   0  0  0  0  0  0  0  0  0  0  0  0
   -0.4134   -2.6272    1.5317 O   0  0  0  0  0  0  0  0  0  0  0  0
   -1.0450   -0.7916    0.3726 N   0  0  0  0  0  0  0  0  0  0  0  0
   -1.7672   -0.4166   -0.2335 H   0  0  0  0  0  0  0  0  0  0  0  0
    0.2622   -0.1096    0.4113 C   0  0  1  0  0  0  0  0  0  0  0  0
    1.0543   -0.8266    0.6573 H   0  0  0  0  0  0  0  0  0  0  0  0
    0.5470    0.4428   -0.9872 C   0  0  0  0  0  0  0  0  0  0  0  0
   -0.2082    1.1800   -1.2764 H   0  0  0  0  0  0  0  0  0  0  0  0
    1.5293    0.9262   -1.0074 H   0  0  0  0  0  0  0  0  0  0  0  0
    0.5472   -0.3677   -1.7226 H   0  0  0  0  0  0  0  0  0  0  0  0
    0.3354    1.0190    1.4621 C   0  0  0  0  0  0  0  0  0  0  0  0
    1.3739    1.2228    2.0747 O   0  0  0  0  0  0  0  0  0  0  0  0
   -0.7028    1.9257    1.5897 N   0  0  0  0  0  0  0  0  0  0  0  0
   -1.5681    1.7060    1.1097 H   0  0  0  0  0  0  0  0  0  0  0  0
   -0.6811    3.0343    2.5367 C   0  0  0  0  0  0  0  0  0  0  0  0
    0.1788    3.6854    2.3463 H   0  0  0  0  0  0  0  0  0  0  0  0
   -1.5924    3.6321    2.4408 H   0  0  0  0  0  0  0  0  0  0  0  0
   -0.6181    2.6590    3.5635 H   0  0  0  0  0  0  0  0  0  0  0  0
  1  2  1  0  0  0  0
  2  3  1  0  0  0  0
  2  4  1  0  0  0  0
  2  5  1  0  0  0  0
  5  6  2  0  0  0  0
  5  7  1  0  0  0  0
  7  8  1  0  0  0  0
  7  9  1  0  0  0  0
  9 10  1  0  0  0  0
  9 11  1  0  0  0  0
  9 15  1  0  0  0  0
 11 12  1  0  0  0  0
 11 13  1  0  0  0  0
 11 14  1  0  0  0  0
 15 16  2  0  0  0  0
 15 17  1  0  0  0  0
 17 18  1  0  0  0  0
 17 19  1  0  0  0  0
 19 20  1  0  0  0  0
 19 21  1  0  0  0  0
 19 22  1  0  0  0  0
M  END
$$$$

  -OEChem-11182114133D

 22 21  0     1  0  0  0  0  0999 V2000
   -2.6181   -3.7304    1.0863 H   0  0  0  0  0  0  0  0  0  0  0  0
   -2.6111   -2.7388    0.6247 C   0  0  0  0  0  0  0  0  0  0  0  0
   -3.4343   -2.1526    1.0399 H   0  0  0  0  0  0  0  0  0  0  0  0
   -2.7581   -2.8522   -0.4519 H   0  0  0  0  0  0  0  0  0  0  0  0
   -1.2897   -2.0456    0.8989 C   0  0  0  0  0  0  0  0  0  0  0  0
   -0.4485   -2.5958    1.5869 O   0  0  0  0  0  0  0  0  0  0  0  0
   -1.0590   -0.7858    0.3817 N   0  0  0  0  0  0  0  0  0  0  0  0
   -1.7528   -0.4369   -0.2723 H   0  0  0  0  0  0  0  0  0  0  0  0
    0.2536   -0.1130    0.4186 C   0  0  1  0  0  0  0  0  0  0  0  0
    1.0430   -0.8359    0.6548 H   0  0  0  0  0  0  0  0  0  0  0  0
    0.5283    0.4484   -0.9785 C   0  0  0  0  0  0  0  0  0  0  0  0
   -0.2213    1.1984   -1.2490 H   0  0  0  0  0  0  0  0  0  0  0  0
    1.5161    0.9200   -1.0071 H   0  0  0  0  0  0  0  0  0  0  0  0
    0.5089   -0.3540   -1.7223 H   0  0  0  0  0  0  0  0  0  0  0  0
    0.3427    1.0115    1.4723 C   0  0  0  0  0  0  0  0  0  0  0  0
    1.4350    1.3971    1.8656 O   0  0  0  0  0  0  0  0  0  0  0  0
   -0.7873    1.7275    1.8258 N   0  0  0  0  0  0  0  0  0  0  0  0
   -1.6786    1.3212    1.5627 H   0  0  0  0  0  0  0  0  0  0  0  0
   -0.7674    2.8194    2.7915 C   0  0  0  0  0  0  0  0  0  0  0  0
   -0.0869    3.6115    2.4611 H   0  0  0  0  0  0  0  0  0  0  0  0
   -1.7682    3.2489    2.8978 H   0  0  0  0  0  0  0  0  0  0  0  0
   -0.4379    2.4576    3.7712 H   0  0  0  0  0  0  0  0  0  0  0  0
  1  2  1  0  0  0  0
  2  3  1  0  0  0  0
  2  4  1  0  0  0  0
  2  5  1  0  0  0  0
  5  6  2  0  0  0  0
  5  7  1  0  0  0  0
  7  8  1  0  0  0  0
  7  9  1  0  0  0  0
  9 10  1  0  0  0  0
  9 11  1  0  0  0  0
  9 15  1  0  0  0  0
 11 12  1  0  0  0  0
 11 13  1  0  0  0  0
 11 14  1  0  0  0  0
 15 16  2  0  0  0  0
 15 17  1  0  0  0  0
 17 18  1  0  0  0  0
 17 19  1  0  0  0  0
 19 20  1  0  0  0  0
 19 21  1  0  0  0  0
 19 22  1  0  0  0  0
M  END
$$$$

  -OEChem-11182114133D

 22 21  0     1  0  0  0  0  0999 V2000
   -2.6136   -3.7361    1.0619 H   0  0  0  0  0  0  0  0  0  0  0  0
   -2.6102   -2.7396    0.6106 C   0  0  0  0  0  0  0  0  0  0  0  0
   -3.4349   -2.1601    1.0323 H   0  0  0  0  0  0  0  0  0  0  0  0
   -2.7578   -2.8424   -0.4671 H   0  0  0  0  0  0  0  0  0  0  0  0
   -1.2908   -2.0447    0.8910 C   0  0  0  0  0  0  0  0  0  0  0  0
   -0.4551   -2.5881    1.5911 O   0  0  0  0  0  0  0  0  0  0  0  0
   -1.0583   -0.7842    0.3765 N   0  0  0  0  0  0  0  0  0  0  0  0
   -1.7524   -0.4283   -0.2739 H   0  0  0  0  0  0  0  0  0  0  0  0
    0.2550   -0.1114    0.4162 C   0  0  1  0  0  0  0  0  0  0  0  0
    1.0441   -0.8345    0.6522 H   0  0  0  0  0  0  0  0  0  0  0  0
    0.5253    0.4455   -0.9845 C   0  0  0  0  0  0  0  0  0  0  0  0
   -0.2146    1.2080   -1.2472 H   0  0  0  0  0  0  0  0  0  0  0  0
    1.5205    0.9006   -1.0243 H   0  0  0  0  0  0  0  0  0  0  0  0
    0.4853   -0.3564   -1.7281 H   0  0  0  0  0  0  0  0  0  0  0  0
    0.3467    1.0129    1.4716 C   0  0  0  0  0  0  0  0  0  0  0  0
    1.4177    1.5621    1.6920 O   0  0  0  0  0  0  0  0  0  0  0  0
   -0.8002    1.5208    2.0549 N   0  0  0  0  0  0  0  0  0  0  0  0
   -1.6425    0.9672    1.9373 H   0  0  0  0  0  0  0  0  0  0  0  0
   -0.7820    2.5730    3.0634 C   0  0  0  0  0  0  0  0  0  0  0  0
   -0.3012    3.4745    2.6690 H   0  0  0  0  0  0  0  0  0  0  0  0
   -1.8033    2.8304    3.3596 H   0  0  0  0  0  0  0  0  0  0  0  0
   -0.2345    2.2420    3.9522 H   0  0  0  0  0  0  0  0  0  0  0  0
  1  2  1  0  0  0  0
  2  3  1  0  0  0  0
  2  4  1  0  0  0  0
  2  5  1  0  0  0  0
  5  6  2  0  0  0  0
  5  7  1  0  0  0  0
  7  8  1  0  0  0  0
  7  9  1  0  0  0  0
  9 10  1  0  0  0  0
  9 11  1  0  0  0  0
  9 15  1  0  0  0  0
 11 12  1  0  0  0  0
 11 13  1  0  0  0  0
 11 14  1  0  0  0  0
 15 16  2  0  0  0  0
 15 17  1  0  0  0  0
 17 18  1  0  0  0  0
 17 19  1  0  0  0  0
 19 20  1  0  0  0  0
 19 21  1  0  0  0  0
 19 22  1  0  0  0  0
M  END
$$$$

  -OEChem-11182114133D

 22 21  0     1  0  0  0  0  0999 V2000
   -2.6071   -3.7390    1.0329 H   0  0  0  0  0  0  0  0  0  0  0  0
   -2.6092   -2.7371    0.5937 C   0  0  0  0  0  0  0  0  0  0  0  0
   -3.4410   -2.1689    1.0167 H   0  0  0  0  0  0  0  0  0  0  0  0
   -2.7496   -2.8286   -0.4861 H   0  0  0  0  0  0  0  0  0  0  0  0
   -1.2968   -2.0358    0.8893 C   0  0  0  0  0  0  0  0  0  0  0  0
   -0.4702   -2.5689    1.6079 O   0  0  0  0  0  0  0  0  0  0  0  0
   -1.0606   -0.7761    0.3761 N   0  0  0  0  0  0  0  0  0  0  0  0
   -1.7595   -0.4090   -0.2633 H   0  0  0  0  0  0  0  0  0  0  0  0
    0.2542   -0.1065    0.4145 C   0  0  1  0  0  0  0  0  0  0  0  0
    1.0409   -0.8310    0.6531 H   0  0  0  0  0  0  0  0  0  0  0  0
    0.5218    0.4380   -0.9925 C   0  0  0  0  0  0  0  0  0  0  0  0
   -0.2133    1.2048   -1.2559 H   0  0  0  0  0  0  0  0  0  0  0  0
    1.5204    0.8842   -1.0436 H   0  0  0  0  0  0  0  0  0  0  0  0
    0.4702   -0.3689   -1.7299 H   0  0  0  0  0  0  0  0  0  0  0  0
    0.3482    1.0173    1.4719 C   0  0  0  0  0  0  0  0  0  0  0  0
    1.3446    1.7252    1.5366 O   0  0  0  0  0  0  0  0  0  0  0  0
   -0.7376    1.3139    2.2754 N   0  0  0  0  0  0  0  0  0  0  0  0
   -1.4849    0.6265    2.2817 H   0  0  0  0  0  0  0  0  0  0  0  0
   -0.6978    2.3236    3.3259 C   0  0  0  0  0  0  0  0  0  0  0  0
   -0.4467    3.3036    2.9065 H   0  0  0  0  0  0  0  0  0  0  0  0
   -1.6735    2.3992    3.8155 H   0  0  0  0  0  0  0  0  0  0  0  0
    0.0509    2.0611    4.0807 H   0  0  0  0  0  0  0  0  0  0  0  0
  1  2  1  0  0  0  0
  2  3  1  0  0  0  0
  2  4  1  0  0  0  0
  2  5  1  0  0  0  0
  5  6  2  0  0  0  0
  5  7  1  0  0  0  0
  7  8  1  0  0  0  0
  7  9  1  0  0  0  0
  9 10  1  0  0  0  0
  9 11  1  0  0  0  0
  9 15  1  0  0  0  0
 11 12  1  0  0  0  0
 11 13  1  0  0  0  0
 11 14  1  0  0  0  0
 15 16  2  0  0  0  0
 15 17  1  0  0  0  0
 17 18  1  0  0  0  0
 17 19  1  0  0  0  0
 19 20  1  0  0  0  0
 19 21  1  0  0  0  0
 19 22  1  0  0  0  0
M  END
$$$$

  -OEChem-11182114133D

 22 21  0     1  0  0  0  0  0999 V2000
   -2.6267   -3.7087    1.0635 H   0  0  0  0  0  0  0  0  0  0  0  0
   -2.6154   -2.7185    0.5987 C   0  0  0  0  0  0  0  0  0  0  0  0
   -3.4425   -2.1304    1.0036 H   0  0  0  0  0  0  0  0  0  0  0  0
   -2.7526   -2.8357   -0.4791 H   0  0  0  0  0  0  0  0  0  0  0  0
   -1.2959   -2.0253    0.8817 C   0  0  0  0  0  0  0  0  0  0  0  0
   -0.4718   -2.5553    1.6059 O   0  0  0  0  0  0  0  0  0  0  0  0
   -1.0559   -0.7651    0.3731 N   0  0  0  0  0  0  0  0  0  0  0  0
   -1.7649   -0.3812   -0.2451 H   0  0  0  0  0  0  0  0  0  0  0  0
    0.2608   -0.0992    0.4058 C   0  0  1  0  0  0  0  0  0  0  0  0
    1.0460   -0.8256    0.6422 H   0  0  0  0  0  0  0  0  0  0  0  0
    0.5256    0.4392   -1.0053 C   0  0  0  0  0  0  0  0  0  0  0  0
   -0.2057    1.2101   -1.2673 H   0  0  0  0  0  0  0  0  0  0  0  0
    1.5268    0.8786   -1.0637 H   0  0  0  0  0  0  0  0  0  0  0  0
    0.4650   -0.3695   -1.7401 H   0  0  0  0  0  0  0  0  0  0  0  0
    0.3531    1.0186    1.4715 C   0  0  0  0  0  0  0  0  0  0  0  0
    1.2200    1.8805    1.4048 O   0  0  0  0  0  0  0  0  0  0  0  0
   -0.5984    1.1015    2.4713 N   0  0  0  0  0  0  0  0  0  0  0  0
   -1.2071    0.2937    2.5689 H   0  0  0  0  0  0  0  0  0  0  0  0
   -0.5361    2.0735    3.5554 C   0  0  0  0  0  0  0  0  0  0  0  0
   -0.5328    3.0934    3.1564 H   0  0  0  0  0  0  0  0  0  0  0  0
   -1.4051    1.9639    4.2112 H   0  0  0  0  0  0  0  0  0  0  0  0
    0.3705    1.9252    4.1515 H   0  0  0  0  0  0  0  0  0  0  0  0
  1  2  1  0  0  0  0
  2  3  1  0  0  0  0
  2  4  1  0  0  0  0
  2  5  1  0  0  0  0
  5  6  2  0  0  0  0
  5  7  1  0  0  0  0
  7  8  1  0  0  0  0
  7  9  1  0  0  0  0
  9 10  1  0  0  0  0
  9 11  1  0  0  0  0
  9 15  1  0  0  0  0
 11 12  1  0  0  0  0
 11 13  1  0  0  0  0
 11 14  1  0  0  0  0
 15 16  2  0  0  0  0
 15 17  1  0  0  0  0
 17 18  1  0  0  0  0
 17 19  1  0  0  0  0
 19 20  1  0  0  0  0
 19 21  1  0  0  0  0
 19 22  1  0  0  0  0
M  END
$$$$

  -OEChem-11182114133D

 22 21  0     1  0  0  0  0  0999 V2000
   -2.6348   -3.6864    1.0691 H   0  0  0  0  0  0  0  0  0  0  0  0
   -2.6216   -2.6934    0.6108 C   0  0  0  0  0  0  0  0  0  0  0  0
   -3.4410   -2.1024    1.0273 H   0  0  0  0  0  0  0  0  0  0  0  0
   -2.7701   -2.8025   -0.4663 H   0  0  0  0  0  0  0  0  0  0  0  0
   -1.2955   -2.0098    0.8858 C   0  0  0  0  0  0  0  0  0  0  0  0
   -0.4754   -2.5362    1.6180 O   0  0  0  0  0  0  0  0  0  0  0  0
   -1.0496   -0.7511    0.3785 N   0  0  0  0  0  0  0  0  0  0  0  0
   -1.7664   -0.3528   -0.2214 H   0  0  0  0  0  0  0  0  0  0  0  0
    0.2708   -0.0945    0.3993 C   0  0  1  0  0  0  0  0  0  0  0  0
    1.0540   -0.8245    0.6311 H   0  0  0  0  0  0  0  0  0  0  0  0
    0.5307    0.4381   -1.0152 C   0  0  0  0  0  0  0  0  0  0  0  0
   -0.1968    1.2137   -1.2745 H   0  0  0  0  0  0  0  0  0  0  0  0
    1.5347    0.8703   -1.0802 H   0  0  0  0  0  0  0  0  0  0  0  0
    0.4592   -0.3719   -1.7474 H   0  0  0  0  0  0  0  0  0  0  0  0
    0.3636    1.0164    1.4722 C   0  0  0  0  0  0  0  0  0  0  0  0
    1.0457    2.0186    1.2982 O   0  0  0  0  0  0  0  0  0  0  0  0
   -0.3851    0.9058    2.6290 N   0  0  0  0  0  0  0  0  0  0  0  0
   -0.8215    0.0007    2.7885 H   0  0  0  0  0  0  0  0  0  0  0  0
   -0.3044    1.8562    3.7306 C   0  0  0  0  0  0  0  0  0  0  0  0
   -0.5590    2.8646    3.3875 H   0  0  0  0  0  0  0  0  0  0  0  0
   -1.0050    1.5760    4.5230 H   0  0  0  0  0  0  0  0  0  0  0  0
    0.7071    1.8709    4.1496 H   0  0  0  0  0  0  0  0  0  0  0  0
  1  2  1  0  0  0  0
  2  3  1  0  0  0  0
  2  4  1  0  0  0  0
  2  5  1  0  0  0  0
  5  6  2  0  0  0  0
  5  7  1  0  0  0  0
  7  8  1  0  0  0  0
  7  9  1  0  0  0  0
  9 10  1  0  0  0  0
  9 11  1  0  0  0  0
  9 15  1  0  0  0  0
 11 12  1  0  0  0  0
 11 13  1  0  0  0  0
 11 14  1  0  0  0  0
 15 16  2  0  0  0  0
 15 17  1  0  0  0  0
 17 18  1  0  0  0  0
 17 19  1  0  0  0  0
 19 20  1  0  0  0  0
 19 21  1  0  0  0  0
 19 22  1  0  0  0  0
M  END
$$$$

  -OEChem-11182114133D

 22 21  0     1  0  0  0  0  0999 V2000
   -2.6425   -3.6534    1.1104 H   0  0  0  0  0  0  0  0  0  0  0  0
   -2.6238   -2.6682    0.6357 C   0  0  0  0  0  0  0  0  0  0  0  0
   -3.4392   -2.0654    1.0430 H   0  0  0  0  0  0  0  0  0  0  0  0
   -2.7738   -2.7939   -0.4393 H   0  0  0  0  0  0  0  0  0  0  0  0
   -1.2936   -1.9876    0.8983 C   0  0  0  0  0  0  0  0  0  0  0  0
   -0.4723   -2.5070    1.6357 O   0  0  0  0  0  0  0  0  0  0  0  0
   -1.0450   -0.7320    0.3857 N   0  0  0  0  0  0  0  0  0  0  0  0
   -1.7649   -0.3273   -0.2062 H   0  0  0  0  0  0  0  0  0  0  0  0
    0.2811   -0.0898    0.3911 C   0  0  1  0  0  0  0  0  0  0  0  0
    1.0623   -0.8238    0.6168 H   0  0  0  0  0  0  0  0  0  0  0  0
    0.5359    0.4393   -1.0259 C   0  0  0  0  0  0  0  0  0  0  0  0
   -0.1986    1.2069   -1.2893 H   0  0  0  0  0  0  0  0  0  0  0  0
    1.5356    0.8808   -1.0921 H   0  0  0  0  0  0  0  0  0  0  0  0
    0.4719   -0.3745   -1.7546 H   0  0  0  0  0  0  0  0  0  0  0  0
    0.3747    1.0154    1.4681 C   0  0  0  0  0  0  0  0  0  0  0  0
    0.8421    2.1213    1.2257 O   0  0  0  0  0  0  0  0  0  0  0  0
   -0.1162    0.7503    2.7325 N   0  0  0  0  0  0  0  0  0  0  0  0
   -0.3999   -0.2122    2.9099 H   0  0  0  0  0  0  0  0  0  0  0  0
   -0.0133    1.6805    3.8491 C   0  0  0  0  0  0  0  0  0  0  0  0
   -0.5112    2.6256    3.6081 H   0  0  0  0  0  0  0  0  0  0  0  0
   -0.4903    1.2569    4.7382 H   0  0  0  0  0  0  0  0  0  0  0  0
    1.0370    1.8846    4.0822 H   0  0  0  0  0  0  0  0  0  0  0  0
  1  2  1  0  0  0  0
  2  3  1  0  0  0  0
  2  4  1  0  0  0  0
  2  5  1  0  0  0  0
  5  6  2  0  0  0  0
  5  7  1  0  0  0  0
  7  8  1  0  0  0  0
  7  9  1  0  0  0  0
  9 10  1  0  0  0  0
  9 11  1  0  0  0  0
  9 15  1  0  0  0  0
 11 12  1  0  0  0  0
 11 13  1  0  0  0  0
 11 14  1  0  0  0  0
 15 16  2  0  0  0  0
 15 17  1  0  0  0  0
 17 18  1  0  0  0  0
 17 19  1  0  0  0  0
 19 20  1  0  0  0  0
 19 21  1  0  0  0  0
 19 22  1  0  0  0  0
M  END
$$$$

  -OEChem-11182114133D

 22 21  0     1  0  0  0  0  0999 V2000
   -2.6389   -3.6297    1.1230 H   0  0  0  0  0  0  0  0  0  0  0  0
   -2.6300   -2.6271    0.6860 C   0  0  0  0  0  0  0  0  0  0  0  0
   -3.4094   -2.0276    1.1627 H   0  0  0  0  0  0  0  0  0  0  0  0
   -2.8431   -2.7081   -0.3826 H   0  0  0  0  0  0  0  0  0  0  0  0
   -1.2754   -1.9782    0.8978 C   0  0  0  0  0  0  0  0  0  0  0  0
   -0.4335   -2.5236    1.5931 O   0  0  0  0  0  0  0  0  0  0  0  0
   -1.0211   -0.7241    0.3845 N   0  0  0  0  0  0  0  0  0  0  0  0
   -1.7601   -0.2859   -0.1581 H   0  0  0  0  0  0  0  0  0  0  0  0
    0.3089   -0.0944    0.3772 C   0  0  1  0  0  0  0  0  0  0  0  0
    1.0894   -0.8316    0.5943 H   0  0  0  0  0  0  0  0  0  0  0  0
    0.5567    0.4370   -1.0401 C   0  0  0  0  0  0  0  0  0  0  0  0
   -0.1880    1.1943   -1.3056 H   0  0  0  0  0  0  0  0  0  0  0  0
    1.5503    0.8917   -1.1057 H   0  0  0  0  0  0  0  0  0  0  0  0
    0.5030   -0.3787   -1.7674 H   0  0  0  0  0  0  0  0  0  0  0  0
    0.4051    1.0034    1.4590 C   0  0  0  0  0  0  0  0  0  0  0  0
    0.6194    2.1775    1.1834 O   0  0  0  0  0  0  0  0  0  0  0  0
    0.2138    0.6380    2.7776 N   0  0  0  0  0  0  0  0  0  0  0  0
    0.0490   -0.3520    2.9570 H   0  0  0  0  0  0  0  0  0  0  0  0
    0.2850    1.5683    3.8963 C   0  0  0  0  0  0  0  0  0  0  0  0
   -0.4707    2.3535    3.7901 H   0  0  0  0  0  0  0  0  0  0  0  0
    0.1057    1.0407    4.8381 H   0  0  0  0  0  0  0  0  0  0  0  0
    1.2745    2.0350    3.9437 H   0  0  0  0  0  0  0  0  0  0  0  0
  1  2  1  0  0  0  0
  2  3  1  0  0  0  0
  2  4  1  0  0  0  0
  2  5  1  0  0  0  0
  5  6  2  0  0  0  0
  5  7  1  0  0  0  0
  7  8  1  0  0  0  0
  7  9  1  0  0  0  0
  9 10  1  0  0  0  0
  9 11  1  0  0  0  0
  9 15  1  0  0  0  0
 11 12  1  0  0  0  0
 11 13  1  0  0  0  0
 11 14  1  0  0  0  0
 15 16  2  0  0  0  0
 15 17  1  0  0  0  0
 17 18  1  0  0  0  0
 17 19  1  0  0  0  0
 19 20  1  0  0  0  0
 19 21  1  0  0  0  0
 19 22  1  0  0  0  0
M  END
$$$$

  -OEChem-11182114133D

 22 21  0     1  0  0  0  0  0999 V2000
   -2.6461   -3.5984    1.1751 H   0  0  0  0  0  0  0  0  0  0  0  0
   -2.6318   -2.5971    0.7358 C   0  0  0  0  0  0  0  0  0  0  0  0
   -3.3749   -1.9784    1.2446 H   0  0  0  0  0  0  0  0  0  0  0  0
   -2.8942   -2.6743   -0.3220 H   0  0  0  0  0  0  0  0  0  0  0  0
   -1.2538   -1.9810    0.8857 C   0  0  0  0  0  0  0  0  0  0  0  0
   -0.3867   -2.5614    1.5196 O   0  0  0  0  0  0  0  0  0  0  0  0
   -0.9984   -0.7262    0.3735 N   0  0  0  0  0  0  0  0  0  0  0  0
   -1.7594   -0.2493   -0.1021 H   0  0  0  0  0  0  0  0  0  0  0  0
    0.3315   -0.0997    0.3608 C   0  0  1  0  0  0  0  0  0  0  0  0
    1.1145   -0.8371    0.5674 H   0  0  0  0  0  0  0  0  0  0  0  0
    0.5731    0.4429   -1.0531 C   0  0  0  0  0  0  0  0  0  0  0  0
   -0.1853    1.1866   -1.3185 H   0  0  0  0  0  0  0  0  0  0  0  0
    1.5578    0.9174   -1.1128 H   0  0  0  0  0  0  0  0  0  0  0  0
    0.5367   -0.3706   -1.7841 H   0  0  0  0  0  0  0  0  0  0  0  0
    0.4297    0.9947    1.4444 C   0  0  0  0  0  0  0  0  0  0  0  0
    0.3826    2.1882    1.1720 O   0  0  0  0  0  0  0  0  0  0  0  0
    0.5573    0.5997    2.7619 N   0  0  0  0  0  0  0  0  0  0  0  0
    0.5087   -0.4019    2.9447 H   0  0  0  0  0  0  0  0  0  0  0  0
    0.6027    1.5287    3.8832 C   0  0  0  0  0  0  0  0  0  0  0  0
   -0.3218    2.1131    3.9344 H   0  0  0  0  0  0  0  0  0  0  0  0
    0.7192    0.9807    4.8231 H   0  0  0  0  0  0  0  0  0  0  0  0
    1.4491    2.2155    3.7772 H   0  0  0  0  0  0  0  0  0  0  0  0
  1  2  1  0  0  0  0
  2  3  1  0  0  0  0
  2  4  1  0  0  0  0
  2  5  1  0  0  0  0
  5  6  2  0  0  0  0
  5  7  1  0  0  0  0
  7  8  1  0  0  0  0
  7  9  1  0  0  0  0
  9 10  1  0  0  0  0
  9 11  1  0  0  0  0
  9 15  1  0  0  0  0
 11 12  1  0  0  0  0
 11 13  1  0  0  0  0
 11 14  1  0  0  0  0
 15 16  2  0  0  0  0
 15 17  1  0  0  0  0
 17 18  1  0  0  0  0
 17 19  1  0  0  0  0
 19 20  1  0  0  0  0
 19 21  1  0  0  0  0
 19 22  1  0  0  0  0
M  END
$$$$

  -OEChem-11182114133D

 22 21  0     1  0  0  0  0  0999 V2000
   -2.6573   -3.5721    1.2187 H   0  0  0  0  0  0  0  0  0  0  0  0
   -2.6354   -2.5716    0.7774 C   0  0  0  0  0  0  0  0  0  0  0  0
   -3.3326   -1.9307    1.3226 H   0  0  0  0  0  0  0  0  0  0  0  0
   -2.9533   -2.6405   -0.2657 H   0  0  0  0  0  0  0  0  0  0  0  0
   -1.2339   -1.9964    0.8551 C   0  0  0  0  0  0  0  0  0  0  0  0
   -0.3438   -2.6217    1.4096 O   0  0  0  0  0  0  0  0  0  0  0  0
   -0.9769   -0.7397    0.3482 N   0  0  0  0  0  0  0  0  0  0  0  0
   -1.7608   -0.2142   -0.0294 H   0  0  0  0  0  0  0  0  0  0  0  0
    0.3494   -0.1081    0.3440 C   0  0  1  0  0  0  0  0  0  0  0  0
    1.1349   -0.8436    0.5469 H   0  0  0  0  0  0  0  0  0  0  0  0
    0.5930    0.4463   -1.0643 C   0  0  0  0  0  0  0  0  0  0  0  0
   -0.1734    1.1812   -1.3309 H   0  0  0  0  0  0  0  0  0  0  0  0
    1.5719    0.9333   -1.1150 H   0  0  0  0  0  0  0  0  0  0  0  0
    0.5710   -0.3636   -1.7998 H   0  0  0  0  0  0  0  0  0  0  0  0
    0.4412    0.9854    1.4284 C   0  0  0  0  0  0  0  0  0  0  0  0
    0.1155    2.1440    1.1985 O   0  0  0  0  0  0  0  0  0  0  0  0
    0.8740    0.6369    2.6934 N   0  0  0  0  0  0  0  0  0  0  0  0
    1.0036   -0.3569    2.8736 H   0  0  0  0  0  0  0  0  0  0  0  0
    0.9137    1.5696    3.8123 C   0  0  0  0  0  0  0  0  0  0  0  0
   -0.0930    1.9323    4.0449 H   0  0  0  0  0  0  0  0  0  0  0  0
    1.3192    1.0762    4.7009 H   0  0  0  0  0  0  0  0  0  0  0  0
    1.5514    2.4274    3.5734 H   0  0  0  0  0  0  0  0  0  0  0  0
  1  2  1  0  0  0  0
  2  3  1  0  0  0  0
  2  4  1  0  0  0  0
  2  5  1  0  0  0  0
  5  6  2  0  0  0  0
  5  7  1  0  0  0  0
  7  8  1  0  0  0  0
  7  9  1  0  0  0  0
  9 10  1  0  0  0  0
  9 11  1  0  0  0  0
  9 15  1  0  0  0  0
 11 12  1  0  0  0  0
 11 13  1  0  0  0  0
 11 14  1  0  0  0  0
 15 16  2  0  0  0  0
 15 17  1  0  0  0  0
 17 18  1  0  0  0  0
 17 19  1  0  0  0  0
 19 20  1  0  0  0  0
 19 21  1  0  0  0  0
 19 22  1  0  0  0  0
M  END
$$$$

  -OEChem-11182114133D

 22 21  0     1  0  0  0  0  0999 V2000
   -2.6595   -3.5454    1.2703 H   0  0  0  0  0  0  0  0  0  0  0  0
   -2.6357   -2.5456    0.8278 C   0  0  0  0  0  0  0  0  0  0  0  0
   -3.2790   -1.8853    1.4144 H   0  0  0  0  0  0  0  0  0  0  0  0
   -3.0191   -2.6038   -0.1936 H   0  0  0  0  0  0  0  0  0  0  0  0
   -1.2158   -2.0118    0.8184 C   0  0  0  0  0  0  0  0  0  0  0  0
   -0.3096   -2.6761    1.2962 O   0  0  0  0  0  0  0  0  0  0  0  0
   -0.9586   -0.7544    0.3128 N   0  0  0  0  0  0  0  0  0  0  0  0
   -1.7580   -0.1850    0.0468 H   0  0  0  0  0  0  0  0  0  0  0  0
    0.3651   -0.1180    0.3191 C   0  0  1  0  0  0  0  0  0  0  0  0
    1.1510   -0.8526    0.5235 H   0  0  0  0  0  0  0  0  0  0  0  0
    0.6182    0.4519   -1.0803 C   0  0  0  0  0  0  0  0  0  0  0  0
   -0.1466    1.1897   -1.3436 H   0  0  0  0  0  0  0  0  0  0  0  0
    1.5972    0.9396   -1.1191 H   0  0  0  0  0  0  0  0  0  0  0  0
    0.6004   -0.3501   -1.8246 H   0  0  0  0  0  0  0  0  0  0  0  0
    0.4460    0.9773    1.4017 C   0  0  0  0  0  0  0  0  0  0  0  0
   -0.1418    2.0431    1.2595 O   0  0  0  0  0  0  0  0  0  0  0  0
    1.1498    0.7362    2.5662 N   0  0  0  0  0  0  0  0  0  0  0  0
    1.4905   -0.2119    2.7074 H   0  0  0  0  0  0  0  0  0  0  0  0
    1.1832    1.6692    3.6850 C   0  0  0  0  0  0  0  0  0  0  0  0
    0.1757    1.8239    4.0851 H   0  0  0  0  0  0  0  0  0  0  0  0
    1.8182    1.2771    4.4852 H   0  0  0  0  0  0  0  0  0  0  0  0
    1.5887    2.6352    3.3659 H   0  0  0  0  0  0  0  0  0  0  0  0
  1  2  1  0  0  0  0
  2  3  1  0  0  0  0
  2  4  1  0  0  0  0
  2  5  1  0  0  0  0
  5  6  2  0  0  0  0
  5  7  1  0  0  0  0
  7  8  1  0  0  0  0
  7  9  1  0  0  0  0
  9 10  1  0  0  0  0
  9 11  1  0  0  0  0
  9 15  1  0  0  0  0
 11 12  1  0  0  0  0
 11 13  1  0  0  0  0
 11 14  1  0  0  0  0
 15 16  2  0  0  0  0
 15 17  1  0  0  0  0
 17 18  1  0  0  0  0
 17 19  1  0  0  0  0
 19 20  1  0  0  0  0
 19 21  1  0  0  0  0
 19 22  1  0  0  0  0
M  END
$$$$

  -OEChem-11182114133D

 22 21  0     1  0  0  0  0  0999 V2000
   -2.6605   -3.5339    1.2967 H   0  0  0  0  0  0  0  0  0  0  0  0
   -2.6355   -2.5341    0.8545 C   0  0  0  0  0  0  0  0  0  0  0  0
   -3.2426   -1.8628    1.4667 H   0  0  0  0  0  0  0  0  0  0  0  0
   -3.0594   -2.5830   -0.1514 H   0  0  0  0  0  0  0  0  0  0  0  0
   -1.2074   -2.0269    0.7892 C   0  0  0  0  0  0  0  0  0  0  0  0
   -0.2930   -2.7205    1.2059 O   0  0  0  0  0  0  0  0  0  0  0  0
   -0.9516   -0.7691    0.2840 N   0  0  0  0  0  0  0  0  0  0  0  0
   -1.7564   -0.1733    0.1039 H   0  0  0  0  0  0  0  0  0  0  0  0
    0.3691   -0.1268    0.3045 C   0  0  1  0  0  0  0  0  0  0  0  0
    1.1549   -0.8594    0.5151 H   0  0  0  0  0  0  0  0  0  0  0  0
    0.6298    0.4535   -1.0879 C   0  0  0  0  0  0  0  0  0  0  0  0
   -0.1351    1.1926   -1.3479 H   0  0  0  0  0  0  0  0  0  0  0  0
    1.6086    0.9420   -1.1191 H   0  0  0  0  0  0  0  0  0  0  0  0
    0.6156   -0.3426   -1.8387 H   0  0  0  0  0  0  0  0  0  0  0  0
    0.4377    0.9722    1.3840 C   0  0  0  0  0  0  0  0  0  0  0  0
   -0.3478    1.9126    1.3559 O   0  0  0  0  0  0  0  0  0  0  0  0
    1.3631    0.8858    2.4072 N   0  0  0  0  0  0  0  0  0  0  0  0
    1.9048    0.0277    2.4690 H   0  0  0  0  0  0  0  0  0  0  0  0
    1.4217    1.8356    3.5111 C   0  0  0  0  0  0  0  0  0  0  0  0
    0.4794    1.8337    4.0688 H   0  0  0  0  0  0  0  0  0  0  0  0
    2.2311    1.5680    4.1969 H   0  0  0  0  0  0  0  0  0  0  0  0
    1.6079    2.8477    3.1367 H   0  0  0  0  0  0  0  0  0  0  0  0
  1  2  1  0  0  0  0
  2  3  1  0  0  0  0
  2  4  1  0  0  0  0
  2  5  1  0  0  0  0
  5  6  2  0  0  0  0
  5  7  1  0  0  0  0
  7  8  1  0  0  0  0
  7  9  1  0  0  0  0
  9 10  1  0  0  0  0
  9 11  1  0  0  0  0
  9 15  1  0  0  0  0
 11 12  1  0  0  0  0
 11 13  1  0  0  0  0
 11 14  1  0  0  0  0
 15 16  2  0  0  0  0
 15 17  1  0  0  0  0
 17 18  1  0  0  0  0
 17 19  1  0  0  0  0
 19 20  1  0  0  0  0
 19 21  1  0  0  0  0
 19 22  1  0  0  0  0
M  END
$$$$

  -OEChem-11182114133D

 22 21  0     1  0  0  0  0  0999 V2000
   -2.6575   -3.5220    1.3256 H   0  0  0  0  0  0  0  0  0  0  0  0
   -2.6340   -2.5224    0.8829 C   0  0  0  0  0  0  0  0  0  0  0  0
   -3.2046   -1.8421    1.5199 H   0  0  0  0  0  0  0  0  0  0  0  0
   -3.0994   -2.5635   -0.1048 H   0  0  0  0  0  0  0  0  0  0  0  0
   -1.2018   -2.0380    0.7598 C   0  0  0  0  0  0  0  0  0  0  0  0
   -0.2828   -2.7519    1.1293 O   0  0  0  0  0  0  0  0  0  0  0  0
   -0.9491   -0.7802    0.2527 N   0  0  0  0  0  0  0  0  0  0  0  0
   -1.7548   -0.1675    0.1480 H   0  0  0  0  0  0  0  0  0  0  0  0
    0.3696   -0.1331    0.2895 C   0  0  1  0  0  0  0  0  0  0  0  0
    1.1539   -0.8639    0.5119 H   0  0  0  0  0  0  0  0  0  0  0  0
    0.6454    0.4528   -1.0967 C   0  0  0  0  0  0  0  0  0  0  0  0
   -0.1142    1.1965   -1.3590 H   0  0  0  0  0  0  0  0  0  0  0  0
    1.6267    0.9371   -1.1169 H   0  0  0  0  0  0  0  0  0  0  0  0
    0.6341   -0.3399   -1.8512 H   0  0  0  0  0  0  0  0  0  0  0  0
    0.4245    0.9709    1.3650 C   0  0  0  0  0  0  0  0  0  0  0  0
   -0.5047    1.7630    1.4769 O   0  0  0  0  0  0  0  0  0  0  0  0
    1.5116    1.0698    2.2132 N   0  0  0  0  0  0  0  0  0  0  0  0
    2.2117    0.3351    2.1604 H   0  0  0  0  0  0  0  0  0  0  0  0
    1.5894    2.0392    3.2986 C   0  0  0  0  0  0  0  0  0  0  0  0
    0.7676    1.8884    4.0065 H   0  0  0  0  0  0  0  0  0  0  0  0
    2.5354    1.9282    3.8371 H   0  0  0  0  0  0  0  0  0  0  0  0
    1.5338    3.0598    2.9056 H   0  0  0  0  0  0  0  0  0  0  0  0
  1  2  1  0  0  0  0
  2  3  1  0  0  0  0
  2  4  1  0  0  0  0
  2  5  1  0  0  0  0
  5  6  2  0  0  0  0
  5  7  1  0  0  0  0
  7  8  1  0  0  0  0
  7  9  1  0  0  0  0
  9 10  1  0  0  0  0
  9 11  1  0  0  0  0
  9 15  1  0  0  0  0
 11 12  1  0  0  0  0
 11 13  1  0  0  0  0
 11 14  1  0  0  0  0
 15 16  2  0  0  0  0
 15 17  1  0  0  0  0
 17 18  1  0  0  0  0
 17 19  1  0  0  0  0
 19 20  1  0  0  0  0
 19 21  1  0  0  0  0
 19 22  1  0  0  0  0
M  END
$$$$

  -OEChem-11182114133D

 22 21  0     1  0  0  0  0  0999 V2000
   -2.6512   -3.5134    1.3504 H   0  0  0  0  0  0  0  0  0  0  0  0
   -2.6325   -2.5162    0.9019 C   0  0  0  0  0  0  0  0  0  0  0  0
   -3.1741   -1.8268    1.5544 H   0  0  0  0  0  0  0  0  0  0  0  0
   -3.1314   -2.5567   -0.0693 H   0  0  0  0  0  0  0  0  0  0  0  0
   -1.1999   -2.0479    0.7292 C   0  0  0  0  0  0  0  0  0  0  0  0
   -0.2777   -2.7787    1.0551 O   0  0  0  0  0  0  0  0  0  0  0  0
   -0.9512   -0.7884    0.2237 N   0  0  0  0  0  0  0  0  0  0  0  0
   -1.7558   -0.1666    0.1795 H   0  0  0  0  0  0  0  0  0  0  0  0
    0.3657   -0.1378    0.2820 C   0  0  1  0  0  0  0  0  0  0  0  0
    1.1484   -0.8660    0.5186 H   0  0  0  0  0  0  0  0  0  0  0  0
    0.6576    0.4503   -1.0998 C   0  0  0  0  0  0  0  0  0  0  0  0
   -0.0976    1.1965   -1.3671 H   0  0  0  0  0  0  0  0  0  0  0  0
    1.6404    0.9314   -1.1103 H   0  0  0  0  0  0  0  0  0  0  0  0
    0.6511   -0.3404   -1.8563 H   0  0  0  0  0  0  0  0  0  0  0  0
    0.4054    0.9680    1.3573 C   0  0  0  0  0  0  0  0  0  0  0  0
   -0.6092    1.6046    1.6211 O   0  0  0  0  0  0  0  0  0  0  0  0
    1.5866    1.2696    2.0093 N   0  0  0  0  0  0  0  0  0  0  0  0
    2.3914    0.6800    1.8173 H   0  0  0  0  0  0  0  0  0  0  0  0
    1.6841    2.2761    3.0590 C   0  0  0  0  0  0  0  0  0  0  0  0
    1.0268    2.0207    3.8968 H   0  0  0  0  0  0  0  0  0  0  0  0
    2.7115    2.3367    3.4308 H   0  0  0  0  0  0  0  0  0  0  0  0
    1.3980    3.2604    2.6736 H   0  0  0  0  0  0  0  0  0  0  0  0
  1  2  1  0  0  0  0
  2  3  1  0  0  0  0
  2  4  1  0  0  0  0
  2  5  1  0  0  0  0
  5  6  2  0  0  0  0
  5  7  1  0  0  0  0
  7  8  1  0  0  0  0
  7  9  1  0  0  0  0
  9 10  1  0  0  0  0
  9 11  1  0  0  0  0
  9 15  1  0  0  0  0
 11 12  1  0  0  0  0
 11 13  1  0  0  0  0
 11 14  1  0  0  0  0
 15 16  2  0  0  0  0
 15 17  1  0  0  0  0
 17 18  1  0  0  0  0
 17 19  1  0  0  0  0
 19 20  1  0  0  0  0
 19 21  1  0  0  0  0
 19 22  1  0  0  0  0
M  END
$$$$

  -OEChem-11182114133D

 22 21  0     1  0  0  0  0  0999 V2000
   -2.6473   -3.5137    1.3557 H   0  0  0  0  0  0  0  0  0  0  0  0
   -2.6315   -2.5152    0.9100 C   0  0  0  0  0  0  0  0  0  0  0  0
   -3.1588   -1.8253    1.5736 H   0  0  0  0  0  0  0  0  0  0  0  0
   -3.1468   -2.5505   -0.0529 H   0  0  0  0  0  0  0  0  0  0  0  0
   -1.2000   -2.0526    0.7143 C   0  0  0  0  0  0  0  0  0  0  0  0
   -0.2759   -2.7917    1.0158 O   0  0  0  0  0  0  0  0  0  0  0  0
   -0.9555   -0.7931    0.2063 N   0  0  0  0  0  0  0  0  0  0  0  0
   -1.7606   -0.1706    0.1945 H   0  0  0  0  0  0  0  0  0  0  0  0
    0.3593   -0.1381    0.2817 C   0  0  1  0  0  0  0  0  0  0  0  0
    1.1413   -0.8621    0.5328 H   0  0  0  0  0  0  0  0  0  0  0  0
    0.6629    0.4414   -1.1019 C   0  0  0  0  0  0  0  0  0  0  0  0
   -0.0885    1.1882   -1.3782 H   0  0  0  0  0  0  0  0  0  0  0  0
    1.6475    0.9186   -1.1107 H   0  0  0  0  0  0  0  0  0  0  0  0
    0.6580   -0.3541   -1.8538 H   0  0  0  0  0  0  0  0  0  0  0  0
    0.3895    0.9742    1.3530 C   0  0  0  0  0  0  0  0  0  0  0  0
   -0.6572    1.4508    1.7795 O   0  0  0  0  0  0  0  0  0  0  0  0
    1.5956    1.4897    1.7915 N   0  0  0  0  0  0  0  0  0  0  0  0
    2.4455    1.0468    1.4545 H   0  0  0  0  0  0  0  0  0  0  0  0
    1.6967    2.5269    2.8109 C   0  0  0  0  0  0  0  0  0  0  0  0
    1.2409    2.1888    3.7476 H   0  0  0  0  0  0  0  0  0  0  0  0
    2.7468    2.7666    3.0039 H   0  0  0  0  0  0  0  0  0  0  0  0
    1.1895    3.4397    2.4808 H   0  0  0  0  0  0  0  0  0  0  0  0
  1  2  1  0  0  0  0
  2  3  1  0  0  0  0
  2  4  1  0  0  0  0
  2  5  1  0  0  0  0
  5  6  2  0  0  0  0
  5  7  1  0  0  0  0
  7  8  1  0  0  0  0
  7  9  1  0  0  0  0
  9 10  1  0  0  0  0
  9 11  1  0  0  0  0
  9 15  1  0  0  0  0
 11 12  1  0  0  0  0
 11 13  1  0  0  0  0
 11 14  1  0  0  0  0
 15 16  2  0  0  0  0
 15 17  1  0  0  0  0
 17 18  1  0  0  0  0
 17 19  1  0  0  0  0
 19 20  1  0  0  0  0
 19 21  1  0  0  0  0
 19 22  1  0  0  0  0
M  END
$$$$

  -OEChem-11182114133D

 22 21  0     1  0  0  0  0  0999 V2000
   -2.5942   -3.5114    1.3886 H   0  0  0  0  0  0  0  0  0  0  0  0
   -2.6011   -2.5103    0.9485 C   0  0  0  0  0  0  0  0  0  0  0  0
   -3.0872   -1.8234    1.6457 H   0  0  0  0  0  0  0  0  0  0  0  0
   -3.1703   -2.5379    0.0164 H   0  0  0  0  0  0  0  0  0  0  0  0
   -1.1820   -2.0485    0.6763 C   0  0  0  0  0  0  0  0  0  0  0  0
   -0.2438   -2.7954    0.9080 O   0  0  0  0  0  0  0  0  0  0  0  0
   -0.9641   -0.7836    0.1678 N   0  0  0  0  0  0  0  0  0  0  0  0
   -1.7718   -0.1688    0.2205 H   0  0  0  0  0  0  0  0  0  0  0  0
    0.3500   -0.1292    0.2637 C   0  0  1  0  0  0  0  0  0  0  0  0
    1.1518   -0.8752    0.2523 H   0  0  0  0  0  0  0  0  0  0  0  0
    0.5009    0.7542   -0.9785 C   0  0  0  0  0  0  0  0  0  0  0  0
   -0.2613    1.5401   -0.9857 H   0  0  0  0  0  0  0  0  0  0  0  0
    1.4878    1.2260   -0.9991 H   0  0  0  0  0  0  0  0  0  0  0  0
    0.3901    0.1520   -1.8859 H   0  0  0  0  0  0  0  0  0  0  0  0
    0.5024    0.7051    1.5582 C   0  0  0  0  0  0  0  0  0  0  0  0
   -0.4532    0.8703    2.3089 O   0  0  0  0  0  0  0  0  0  0  0  0
    1.6777    1.3885    1.8151 N   0  0  0  0  0  0  0  0  0  0  0  0
    2.4652    1.2132    1.1983 H   0  0  0  0  0  0  0  0  0  0  0  0
    1.8832    2.2056    3.0050 C   0  0  0  0  0  0  0  0  0  0  0  0
    1.7755    1.5981    3.9098 H   0  0  0  0  0  0  0  0  0  0  0  0
    2.8876    2.6395    2.9971 H   0  0  0  0  0  0  0  0  0  0  0  0
    1.1547    3.0225    3.0402 H   0  0  0  0  0  0  0  0  0  0  0  0
  1  2  1  0  0  0  0
  2  3  1  0  0  0  0
  2  4  1  0  0  0  0
  2  5  1  0  0  0  0
  5  6  2  0  0  0  0
  5  7  1  0  0  0  0
  7  8  1  0  0  0  0
  7  9  1  0  0  0  0
  9 10  1  0  0  0  0
  9 11  1  0  0  0  0
  9 15  1  0  0  0  0
 11 12  1  0  0  0  0
 11 13  1  0  0  0  0
 11 14  1  0  0  0  0
 15 16  2  0  0  0  0
 15 17  1  0  0  0  0
 17 18  1  0  0  0  0
 17 19  1  0  0  0  0
 19 20  1  0  0  0  0
 19 21  1  0  0  0  0
 19 22  1  0  0  0  0
M  END
$$$$

  -OEChem-11182114133D

 22 21  0     1  0  0  0  0  0999 V2000
   -2.5929   -3.5199    1.3631 H   0  0  0  0  0  0  0  0  0  0  0  0
   -2.5995   -2.5038    0.9589 C   0  0  0  0  0  0  0  0  0  0  0  0
   -3.0634   -1.8378    1.6907 H   0  0  0  0  0  0  0  0  0  0  0  0
   -3.1889   -2.4934    0.0391 H   0  0  0  0  0  0  0  0  0  0  0  0
   -1.1820   -2.0466    0.6717 C   0  0  0  0  0  0  0  0  0  0  0  0
   -0.2458   -2.8023    0.8818 O   0  0  0  0  0  0  0  0  0  0  0  0
   -0.9649   -0.7819    0.1608 N   0  0  0  0  0  0  0  0  0  0  0  0
   -1.7740   -0.1696    0.2136 H   0  0  0  0  0  0  0  0  0  0  0  0
    0.3494   -0.1280    0.2646 C   0  0  1  0  0  0  0  0  0  0  0  0
    1.1510   -0.8743    0.2669 H   0  0  0  0  0  0  0  0  0  0  0  0
    0.5101    0.7346   -0.9923 C   0  0  0  0  0  0  0  0  0  0  0  0
   -0.2381    1.5335   -1.0085 H   0  0  0  0  0  0  0  0  0  0  0  0
    1.5054    1.1869   -1.0284 H   0  0  0  0  0  0  0  0  0  0  0  0
    0.3834    0.1200   -1.8894 H   0  0  0  0  0  0  0  0  0  0  0  0
    0.4944    0.7101    1.5602 C   0  0  0  0  0  0  0  0  0  0  0  0
   -0.3722    0.6741    2.4267 O   0  0  0  0  0  0  0  0  0  0  0  0
    1.5180    1.6320    1.6941 N   0  0  0  0  0  0  0  0  0  0  0  0
    2.2349    1.6433    0.9753 H   0  0  0  0  0  0  0  0  0  0  0  0
    1.6882    2.4737    2.8725 C   0  0  0  0  0  0  0  0  0  0  0  0
    1.8210    1.8570    3.7677 H   0  0  0  0  0  0  0  0  0  0  0  0
    2.5699    3.1115    2.7580 H   0  0  0  0  0  0  0  0  0  0  0  0
    0.8133    3.1168    3.0140 H   0  0  0  0  0  0  0  0  0  0  0  0
  1  2  1  0  0  0  0
  2  3  1  0  0  0  0
  2  4  1  0  0  0  0
  2  5  1  0  0  0  0
  5  6  2  0  0  0  0
  5  7  1  0  0  0  0
  7  8  1  0  0  0  0
  7  9  1  0  0  0  0
  9 10  1  0  0  0  0
  9 11  1  0  0  0  0
  9 15  1  0  0  0  0
 11 12  1  0  0  0  0
 11 13  1  0  0  0  0
 11 14  1  0  0  0  0
 15 16  2  0  0  0  0
 15 17  1  0  0  0  0
 17 18  1  0  0  0  0
 17 19  1  0  0  0  0
 19 20  1  0  0  0  0
 19 21  1  0  0  0  0
 19 22  1  0  0  0  0
M  END
$$$$

  -OEChem-11182114133D

 22 21  0     1  0  0  0  0  0999 V2000
   -2.5912   -3.5174    1.3585 H   0  0  0  0  0  0  0  0  0  0  0  0
   -2.5963   -2.4921    0.9780 C   0  0  0  0  0  0  0  0  0  0  0  0
   -3.0297   -1.8375    1.7384 H   0  0  0  0  0  0  0  0  0  0  0  0
   -3.2123   -2.4532    0.0766 H   0  0  0  0  0  0  0  0  0  0  0  0
   -1.1812   -2.0466    0.6612 C   0  0  0  0  0  0  0  0  0  0  0  0
   -0.2493   -2.8162    0.8364 O   0  0  0  0  0  0  0  0  0  0  0  0
   -0.9636   -0.7807    0.1524 N   0  0  0  0  0  0  0  0  0  0  0  0
   -1.7734   -0.1701    0.2040 H   0  0  0  0  0  0  0  0  0  0  0  0
    0.3514   -0.1276    0.2615 C   0  0  1  0  0  0  0  0  0  0  0  0
    1.1512   -0.8758    0.2738 H   0  0  0  0  0  0  0  0  0  0  0  0
    0.5274    0.7196   -1.0046 C   0  0  0  0  0  0  0  0  0  0  0  0
   -0.2038    1.5340   -1.0281 H   0  0  0  0  0  0  0  0  0  0  0  0
    1.5333    1.1477   -1.0470 H   0  0  0  0  0  0  0  0  0  0  0  0
    0.3860    0.0989   -1.8953 H   0  0  0  0  0  0  0  0  0  0  0  0
    0.4903    0.7086    1.5609 C   0  0  0  0  0  0  0  0  0  0  0  0
   -0.2347    0.4851    2.5232 O   0  0  0  0  0  0  0  0  0  0  0  0
    1.2985    1.8321    1.6049 N   0  0  0  0  0  0  0  0  0  0  0  0
    1.8889    2.0171    0.8001 H   0  0  0  0  0  0  0  0  0  0  0  0
    1.4125    2.6936    2.7762 C   0  0  0  0  0  0  0  0  0  0  0  0
    1.7752    2.1232    3.6378 H   0  0  0  0  0  0  0  0  0  0  0  0
    2.1162    3.5081    2.5802 H   0  0  0  0  0  0  0  0  0  0  0  0
    0.4401    3.1304    3.0269 H   0  0  0  0  0  0  0  0  0  0  0  0
  1  2  1  0  0  0  0
  2  3  1  0  0  0  0
  2  4  1  0  0  0  0
  2  5  1  0  0  0  0
  5  6  2  0  0  0  0
  5  7  1  0  0  0  0
  7  8  1  0  0  0  0
  7  9  1  0  0  0  0
  9 10  1  0  0  0  0
  9 11  1  0  0  0  0
  9 15  1  0  0  0  0
 11 12  1  0  0  0  0
 11 13  1  0  0  0  0
 11 14  1  0  0  0  0
 15 16  2  0  0  0  0
 15 17  1  0  0  0  0
 17 18  1  0  0  0  0
 17 19  1  0  0  0  0
 19 20  1  0  0  0  0
 19 21  1  0  0  0  0
 19 22  1  0  0  0  0
M  END
$$$$

  -OEChem-11182114133D

 22 21  0     1  0  0  0  0  0999 V2000
   -2.5989   -3.5309    1.3263 H   0  0  0  0  0  0  0  0  0  0  0  0
   -2.6001   -2.4960    0.9727 C   0  0  0  0  0  0  0  0  0  0  0  0
   -3.0355   -1.8606    1.7480 H   0  0  0  0  0  0  0  0  0  0  0  0
   -3.2120   -2.4327    0.0698 H   0  0  0  0  0  0  0  0  0  0  0  0
   -1.1827   -2.0450    0.6740 C   0  0  0  0  0  0  0  0  0  0  0  0
   -0.2528   -2.8176    0.8446 O   0  0  0  0  0  0  0  0  0  0  0  0
   -0.9637   -0.7794    0.1636 N   0  0  0  0  0  0  0  0  0  0  0  0
   -1.7783   -0.1742    0.1875 H   0  0  0  0  0  0  0  0  0  0  0  0
    0.3490   -0.1214    0.2718 C   0  0  1  0  0  0  0  0  0  0  0  0
    1.1493   -0.8690    0.2969 H   0  0  0  0  0  0  0  0  0  0  0  0
    0.5347    0.7067   -1.0058 C   0  0  0  0  0  0  0  0  0  0  0  0
   -0.2059    1.5111   -1.0567 H   0  0  0  0  0  0  0  0  0  0  0  0
    1.5367    1.1448   -1.0391 H   0  0  0  0  0  0  0  0  0  0  0  0
    0.4151    0.0682   -1.8871 H   0  0  0  0  0  0  0  0  0  0  0  0
    0.4845    0.7195    1.5690 C   0  0  0  0  0  0  0  0  0  0  0  0
   -0.0337    0.3384    2.6106 O   0  0  0  0  0  0  0  0  0  0  0  0
    1.0251    1.9947    1.5453 N   0  0  0  0  0  0  0  0  0  0  0  0
    1.4326    2.3146    0.6725 H   0  0  0  0  0  0  0  0  0  0  0  0
    1.1059    2.8571    2.7188 C   0  0  0  0  0  0  0  0  0  0  0  0
    1.6826    2.3711    3.5129 H   0  0  0  0  0  0  0  0  0  0  0  0
    1.5986    3.7998    2.4622 H   0  0  0  0  0  0  0  0  0  0  0  0
    0.1040    3.0833    3.0987 H   0  0  0  0  0  0  0  0  0  0  0  0
  1  2  1  0  0  0  0
  2  3  1  0  0  0  0
  2  4  1  0  0  0  0
  2  5  1  0  0  0  0
  5  6  2  0  0  0  0
  5  7  1  0  0  0  0
  7  8  1  0  0  0  0
  7  9  1  0  0  0  0
  9 10  1  0  0  0  0
  9 11  1  0  0  0  0
  9 15  1  0  0  0  0
 11 12  1  0  0  0  0
 11 13  1  0  0  0  0
 11 14  1  0  0  0  0
 15 16  2  0  0  0  0
 15 17  1  0  0  0  0
 17 18  1  0  0  0  0
 17 19  1  0  0  0  0
 19 20  1  0  0  0  0
 19 21  1  0  0  0  0
 19 22  1  0  0  0  0
M  END
$$$$

  -OEChem-11182114133D

 22 21  0     1  0  0  0  0  0999 V2000
   -2.6012   -3.5163    1.3554 H   0  0  0  0  0  0  0  0  0  0  0  0
   -2.6033   -2.4920    0.9723 C   0  0  0  0  0  0  0  0  0  0  0  0
   -3.0525   -1.8381    1.7236 H   0  0  0  0  0  0  0  0  0  0  0  0
   -3.2036   -2.4579    0.0602 H   0  0  0  0  0  0  0  0  0  0  0  0
   -1.1844   -2.0420    0.6797 C   0  0  0  0  0  0  0  0  0  0  0  0
   -0.2572   -2.8169    0.8501 O   0  0  0  0  0  0  0  0  0  0  0  0
   -0.9627   -0.7768    0.1692 N   0  0  0  0  0  0  0  0  0  0  0  0
   -1.7800   -0.1753    0.1653 H   0  0  0  0  0  0  0  0  0  0  0  0
    0.3489   -0.1167    0.2764 C   0  0  1  0  0  0  0  0  0  0  0  0
    1.1495   -0.8638    0.3104 H   0  0  0  0  0  0  0  0  0  0  0  0
    0.5444    0.7038   -1.0047 C   0  0  0  0  0  0  0  0  0  0  0  0
   -0.2192    1.4835   -1.0882 H   0  0  0  0  0  0  0  0  0  0  0  0
    1.5333    1.1728   -1.0128 H   0  0  0  0  0  0  0  0  0  0  0  0
    0.4704    0.0519   -1.8812 H   0  0  0  0  0  0  0  0  0  0  0  0
    0.4773    0.7241    1.5732 C   0  0  0  0  0  0  0  0  0  0  0  0
    0.2058    0.2299    2.6587 O   0  0  0  0  0  0  0  0  0  0  0  0
    0.7174    2.0876    1.5264 N   0  0  0  0  0  0  0  0  0  0  0  0
    0.9153    2.4980    0.6193 H   0  0  0  0  0  0  0  0  0  0  0  0
    0.7645    2.9373    2.7110 C   0  0  0  0  0  0  0  0  0  0  0  0
    1.5469    2.5958    3.3972 H   0  0  0  0  0  0  0  0  0  0  0  0
    0.9817    3.9715    2.4270 H   0  0  0  0  0  0  0  0  0  0  0  0
   -0.1968    2.9177    3.2353 H   0  0  0  0  0  0  0  0  0  0  0  0
  1  2  1  0  0  0  0
  2  3  1  0  0  0  0
  2  4  1  0  0  0  0
  2  5  1  0  0  0  0
  5  6  2  0  0  0  0
  5  7  1  0  0  0  0
  7  8  1  0  0  0  0
  7  9  1  0  0  0  0
  9 10  1  0  0  0  0
  9 11  1  0  0  0  0
  9 15  1  0  0  0  0
 11 12  1  0  0  0  0
 11 13  1  0  0  0  0
 11 14  1  0  0  0  0
 15 16  2  0  0  0  0
 15 17  1  0  0  0  0
 17 18  1  0  0  0  0
 17 19  1  0  0  0  0
 19 20  1  0  0  0  0
 19 21  1  0  0  0  0
 19 22  1  0  0  0  0
M  END
$$$$

  -OEChem-11182114133D

 22 21  0     1  0  0  0  0  0999 V2000
   -2.6162   -3.5357    1.3187 H   0  0  0  0  0  0  0  0  0  0  0  0
   -2.6139   -2.5081    0.9444 C   0  0  0  0  0  0  0  0  0  0  0  0
   -3.0945   -1.8642    1.6848 H   0  0  0  0  0  0  0  0  0  0  0  0
   -3.1826   -2.4717    0.0124 H   0  0  0  0  0  0  0  0  0  0  0  0
   -1.1894   -2.0444    0.7032 C   0  0  0  0  0  0  0  0  0  0  0  0
   -0.2624   -2.8095    0.9102 O   0  0  0  0  0  0  0  0  0  0  0  0
   -0.9634   -0.7803    0.1919 N   0  0  0  0  0  0  0  0  0  0  0  0
   -1.7853   -0.1878    0.1371 H   0  0  0  0  0  0  0  0  0  0  0  0
    0.3445   -0.1123    0.2951 C   0  0  1  0  0  0  0  0  0  0  0  0
    1.1486   -0.8563    0.3321 H   0  0  0  0  0  0  0  0  0  0  0  0
    0.5403    0.7086   -0.9855 C   0  0  0  0  0  0  0  0  0  0  0  0
   -0.2499    1.4577   -1.0953 H   0  0  0  0  0  0  0  0  0  0  0  0
    1.5100    1.2165   -0.9686 H   0  0  0  0  0  0  0  0  0  0  0  0
    0.5148    0.0496   -1.8594 H   0  0  0  0  0  0  0  0  0  0  0  0
    0.4683    0.7324    1.5876 C   0  0  0  0  0  0  0  0  0  0  0  0
    0.4996    0.1893    2.6820 O   0  0  0  0  0  0  0  0  0  0  0  0
    0.3905    2.1149    1.5500 N   0  0  0  0  0  0  0  0  0  0  0  0
    0.3548    2.5583    0.6378 H   0  0  0  0  0  0  0  0  0  0  0  0
    0.4354    2.9535    2.7423 C   0  0  0  0  0  0  0  0  0  0  0  0
    1.3721    2.7952    3.2872 H   0  0  0  0  0  0  0  0  0  0  0  0
    0.3710    4.0098    2.4647 H   0  0  0  0  0  0  0  0  0  0  0  0
   -0.4025    2.7191    3.4073 H   0  0  0  0  0  0  0  0  0  0  0  0
  1  2  1  0  0  0  0
  2  3  1  0  0  0  0
  2  4  1  0  0  0  0
  2  5  1  0  0  0  0
  5  6  2  0  0  0  0
  5  7  1  0  0  0  0
  7  8  1  0  0  0  0
  7  9  1  0  0  0  0
  9 10  1  0  0  0  0
  9 11  1  0  0  0  0
  9 15  1  0  0  0  0
 11 12  1  0  0  0  0
 11 13  1  0  0  0  0
 11 14  1  0  0  0  0
 15 16  2  0  0  0  0
 15 17  1  0  0  0  0
 17 18  1  0  0  0  0
 17 19  1  0  0  0  0
 19 20  1  0  0  0  0
 19 21  1  0  0  0  0
 19 22  1  0  0  0  0
M  END
$$$$

  -OEChem-11182114133D

 22 21  0     1  0  0  0  0  0999 V2000
   -2.6352   -3.5497    1.3198 H   0  0  0  0  0  0  0  0  0  0  0  0
   -2.6308   -2.5464    0.8842 C   0  0  0  0  0  0  0  0  0  0  0  0
   -3.1871   -1.8761    1.5437 H   0  0  0  0  0  0  0  0  0  0  0  0
   -3.1238   -2.5834   -0.0901 H   0  0  0  0  0  0  0  0  0  0  0  0
   -1.2045   -2.0532    0.7266 C   0  0  0  0  0  0  0  0  0  0  0  0
   -0.2773   -2.7942    1.0033 O   0  0  0  0  0  0  0  0  0  0  0  0
   -0.9740   -0.7874    0.2218 N   0  0  0  0  0  0  0  0  0  0  0  0
   -1.7993   -0.2111    0.0953 H   0  0  0  0  0  0  0  0  0  0  0  0
    0.3290   -0.1093    0.3250 C   0  0  1  0  0  0  0  0  0  0  0  0
    1.1370   -0.8494    0.3571 H   0  0  0  0  0  0  0  0  0  0  0  0
    0.5218    0.7231   -0.9477 C   0  0  0  0  0  0  0  0  0  0  0  0
   -0.2852    1.4520   -1.0678 H   0  0  0  0  0  0  0  0  0  0  0  0
    1.4767    1.2572   -0.9111 H   0  0  0  0  0  0  0  0  0  0  0  0
    0.5286    0.0683   -1.8249 H   0  0  0  0  0  0  0  0  0  0  0  0
    0.4519    0.7348    1.6160 C   0  0  0  0  0  0  0  0  0  0  0  0
    0.8311    0.2277    2.6608 O   0  0  0  0  0  0  0  0  0  0  0  0
    0.0633    2.0643    1.6336 N   0  0  0  0  0  0  0  0  0  0  0  0
   -0.2162    2.4824    0.7524 H   0  0  0  0  0  0  0  0  0  0  0  0
    0.1513    2.9078    2.8202 C   0  0  0  0  0  0  0  0  0  0  0  0
    1.1923    3.0013    3.1472 H   0  0  0  0  0  0  0  0  0  0  0  0
   -0.2351    3.9083    2.6035 H   0  0  0  0  0  0  0  0  0  0  0  0
   -0.4377    2.4809    3.6391 H   0  0  0  0  0  0  0  0  0  0  0  0
  1  2  1  0  0  0  0
  2  3  1  0  0  0  0
  2  4  1  0  0  0  0
  2  5  1  0  0  0  0
  5  6  2  0  0  0  0
  5  7  1  0  0  0  0
  7  8  1  0  0  0  0
  7  9  1  0  0  0  0
  9 10  1  0  0  0  0
  9 11  1  0  0  0  0
  9 15  1  0  0  0  0
 11 12  1  0  0  0  0
 11 13  1  0  0  0  0
 11 14  1  0  0  0  0
 15 16  2  0  0  0  0
 15 17  1  0  0  0  0
 17 18  1  0  0  0  0
 17 19  1  0  0  0  0
 19 20  1  0  0  0  0
 19 21  1  0  0  0  0
 19 22  1  0  0  0  0
M  END
$$$$

  -OEChem-11182114133D

 22 21  0     1  0  0  0  0  0999 V2000
   -2.6533   -3.6086    1.2323 H   0  0  0  0  0  0  0  0  0  0  0  0
   -2.6439   -2.6028    0.8025 C   0  0  0  0  0  0  0  0  0  0  0  0
   -3.2782   -1.9552    1.4122 H   0  0  0  0  0  0  0  0  0  0  0  0
   -3.0475   -2.6501   -0.2117 H   0  0  0  0  0  0  0  0  0  0  0  0
   -1.2266   -2.0621    0.7728 C   0  0  0  0  0  0  0  0  0  0  0  0
   -0.3079   -2.7579    1.1671 O   0  0  0  0  0  0  0  0  0  0  0  0
   -0.9910   -0.7959    0.2727 N   0  0  0  0  0  0  0  0  0  0  0  0
   -1.8086   -0.2559    0.0104 H   0  0  0  0  0  0  0  0  0  0  0  0
    0.3096   -0.1105    0.3614 C   0  0  1  0  0  0  0  0  0  0  0  0
    1.1178   -0.8511    0.3760 H   0  0  0  0  0  0  0  0  0  0  0  0
    0.4875    0.7367   -0.9023 C   0  0  0  0  0  0  0  0  0  0  0  0
   -0.3107    1.4788   -0.9963 H   0  0  0  0  0  0  0  0  0  0  0  0
    1.4494    1.2589   -0.8733 H   0  0  0  0  0  0  0  0  0  0  0  0
    0.4714    0.0951   -1.7889 H   0  0  0  0  0  0  0  0  0  0  0  0
    0.4529    0.7343    1.6482 C   0  0  0  0  0  0  0  0  0  0  0  0
    1.1863    0.3738    2.5565 O   0  0  0  0  0  0  0  0  0  0  0  0
   -0.2098    1.9441    1.7722 N   0  0  0  0  0  0  0  0  0  0  0  0
   -0.7775    2.2514    0.9900 H   0  0  0  0  0  0  0  0  0  0  0  0
   -0.0824    2.8095    2.9389 C   0  0  0  0  0  0  0  0  0  0  0  0
    0.9581    3.1247    3.0708 H   0  0  0  0  0  0  0  0  0  0  0  0
   -0.7017    3.7032    2.8170 H   0  0  0  0  0  0  0  0  0  0  0  0
   -0.4080    2.2841    3.8430 H   0  0  0  0  0  0  0  0  0  0  0  0
  1  2  1  0  0  0  0
  2  3  1  0  0  0  0
  2  4  1  0  0  0  0
  2  5  1  0  0  0  0
  5  6  2  0  0  0  0
  5  7  1  0  0  0  0
  7  8  1  0  0  0  0
  7  9  1  0  0  0  0
  9 10  1  0  0  0  0
  9 11  1  0  0  0  0
  9 15  1  0  0  0  0
 11 12  1  0  0  0  0
 11 13  1  0  0  0  0
 11 14  1  0  0  0  0
 15 16  2  0  0  0  0
 15 17  1  0  0  0  0
 17 18  1  0  0  0  0
 17 19  1  0  0  0  0
 19 20  1  0  0  0  0
 19 21  1  0  0  0  0
 19 22  1  0  0  0  0
M  END
$$$$

  -OEChem-11182114133D

 22 21  0     1  0  0  0  0  0999 V2000
   -2.6470   -3.6875    1.1072 H   0  0  0  0  0  0  0  0  0  0  0  0
   -2.6450   -2.6764    0.6899 C   0  0  0  0  0  0  0  0  0  0  0  0
   -3.3960   -2.0791    1.2123 H   0  0  0  0  0  0  0  0  0  0  0  0
   -2.9049   -2.7342   -0.3696 H   0  0  0  0  0  0  0  0  0  0  0  0
   -1.2743   -2.0474    0.8561 C   0  0  0  0  0  0  0  0  0  0  0  0
   -0.3935   -2.6612    1.4307 O   0  0  0  0  0  0  0  0  0  0  0  0
   -1.0339   -0.7861    0.3471 N   0  0  0  0  0  0  0  0  0  0  0  0
   -1.7870   -0.3512   -0.1754 H   0  0  0  0  0  0  0  0  0  0  0  0
    0.2750   -0.1125    0.4030 C   0  0  1  0  0  0  0  0  0  0  0  0
    1.0729   -0.8645    0.3931 H   0  0  0  0  0  0  0  0  0  0  0  0
    0.4279    0.7441   -0.8564 C   0  0  0  0  0  0  0  0  0  0  0  0
   -0.3512    1.5108   -0.9059 H   0  0  0  0  0  0  0  0  0  0  0  0
    1.4041    1.2399   -0.8564 H   0  0  0  0  0  0  0  0  0  0  0  0
    0.3605    0.1175   -1.7511 H   0  0  0  0  0  0  0  0  0  0  0  0
    0.4706    0.7379    1.6776 C   0  0  0  0  0  0  0  0  0  0  0  0
    1.4733    0.6051    2.3646 O   0  0  0  0  0  0  0  0  0  0  0  0
   -0.3913    1.7852    1.9553 N   0  0  0  0  0  0  0  0  0  0  0  0
   -1.2204    1.8708    1.3782 H   0  0  0  0  0  0  0  0  0  0  0  0
   -0.2320    2.6678    3.1047 C   0  0  0  0  0  0  0  0  0  0  0  0
    0.7370    3.1769    3.0659 H   0  0  0  0  0  0  0  0  0  0  0  0
   -1.0198    3.4270    3.1114 H   0  0  0  0  0  0  0  0  0  0  0  0
   -0.2926    2.0963    4.0369 H   0  0  0  0  0  0  0  0  0  0  0  0
  1  2  1  0  0  0  0
  2  3  1  0  0  0  0
  2  4  1  0  0  0  0
  2  5  1  0  0  0  0
  5  6  2  0  0  0  0
  5  7  1  0  0  0  0
  7  8  1  0  0  0  0
  7  9  1  0  0  0  0
  9 10  1  0  0  0  0
  9 11  1  0  0  0  0
  9 15  1  0  0  0  0
 11 12  1  0  0  0  0
 11 13  1  0  0  0  0
 11 14  1  0  0  0  0
 15 16  2  0  0  0  0
 15 17  1  0  0  0  0
 17 18  1  0  0  0  0
 17 19  1  0  0  0  0
 19 20  1  0  0  0  0
 19 21  1  0  0  0  0
 19 22  1  0  0  0  0
M  END
$$$$

  -OEChem-11182114133D

 22 21  0     1  0  0  0  0  0999 V2000
   -2.6363   -3.7131    1.0633 H   0  0  0  0  0  0  0  0  0  0  0  0
   -2.6370   -2.7076    0.6326 C   0  0  0  0  0  0  0  0  0  0  0  0
   -3.4419   -2.1290    1.0920 H   0  0  0  0  0  0  0  0  0  0  0  0
   -2.8194   -2.7873   -0.4418 H   0  0  0  0  0  0  0  0  0  0  0  0
   -1.3024   -2.0317    0.8857 C   0  0  0  0  0  0  0  0  0  0  0  0
   -0.4524   -2.5972    1.5496 O   0  0  0  0  0  0  0  0  0  0  0  0
   -1.0619   -0.7732    0.3704 N   0  0  0  0  0  0  0  0  0  0  0  0
   -1.7656   -0.3989   -0.2581 H   0  0  0  0  0  0  0  0  0  0  0  0
    0.2564   -0.1161    0.4161 C   0  0  1  0  0  0  0  0  0  0  0  0
    1.0450   -0.8777    0.3948 H   0  0  0  0  0  0  0  0  0  0  0  0
    0.4011    0.7485   -0.8385 C   0  0  0  0  0  0  0  0  0  0  0  0
   -0.3582    1.5363   -0.8574 H   0  0  0  0  0  0  0  0  0  0  0  0
    1.3895    1.2194   -0.8577 H   0  0  0  0  0  0  0  0  0  0  0  0
    0.2950    0.1351   -1.7385 H   0  0  0  0  0  0  0  0  0  0  0  0
    0.4804    0.7332    1.6854 C   0  0  0  0  0  0  0  0  0  0  0  0
    1.5972    0.8203    2.1765 O   0  0  0  0  0  0  0  0  0  0  0  0
   -0.5165    1.5795    2.1381 N   0  0  0  0  0  0  0  0  0  0  0  0
   -1.4436    1.4363    1.7528 H   0  0  0  0  0  0  0  0  0  0  0  0
   -0.3596    2.4432    3.3021 C   0  0  0  0  0  0  0  0  0  0  0  0
    0.4826    3.1291    3.1607 H   0  0  0  0  0  0  0  0  0  0  0  0
   -1.2648    3.0380    3.4565 H   0  0  0  0  0  0  0  0  0  0  0  0
   -0.1790    1.8445    4.2012 H   0  0  0  0  0  0  0  0  0  0  0  0
  1  2  1  0  0  0  0
  2  3  1  0  0  0  0
  2  4  1  0  0  0  0
  2  5  1  0  0  0  0
  5  6  2  0  0  0  0
  5  7  1  0  0  0  0
  7  8  1  0  0  0  0
  7  9  1  0  0  0  0
  9 10  1  0  0  0  0
  9 11  1  0  0  0  0
  9 15  1  0  0  0  0
 11 12  1  0  0  0  0
 11 13  1  0  0  0  0
 11 14  1  0  0  0  0
 15 16  2  0  0  0  0
 15 17  1  0  0  0  0
 17 18  1  0  0  0  0
 17 19  1  0  0  0  0
 19 20  1  0  0  0  0
 19 21  1  0  0  0  0
 19 22  1  0  0  0  0
M  END
$$$$

  -OEChem-11182114133D

 22 21  0     1  0  0  0  0  0999 V2000
   -2.6345   -3.7201    1.0387 H   0  0  0  0  0  0  0  0  0  0  0  0
   -2.6353   -2.7157    0.6052 C   0  0  0  0  0  0  0  0  0  0  0  0
   -3.4564   -2.1437    1.0439 H   0  0  0  0  0  0  0  0  0  0  0  0
   -2.7924   -2.7994   -0.4728 H   0  0  0  0  0  0  0  0  0  0  0  0
   -1.3133   -2.0263    0.8862 C   0  0  0  0  0  0  0  0  0  0  0  0
   -0.4774   -2.5743    1.5821 O   0  0  0  0  0  0  0  0  0  0  0  0
   -1.0699   -0.7686    0.3713 N   0  0  0  0  0  0  0  0  0  0  0  0
   -1.7581   -0.4048   -0.2809 H   0  0  0  0  0  0  0  0  0  0  0  0
    0.2529   -0.1190    0.4180 C   0  0  1  0  0  0  0  0  0  0  0  0
    1.0385   -0.8834    0.3920 H   0  0  0  0  0  0  0  0  0  0  0  0
    0.3921    0.7494   -0.8348 C   0  0  0  0  0  0  0  0  0  0  0  0
   -0.3594    1.5451   -0.8389 H   0  0  0  0  0  0  0  0  0  0  0  0
    1.3849    1.2105   -0.8650 H   0  0  0  0  0  0  0  0  0  0  0  0
    0.2683    0.1421   -1.7366 H   0  0  0  0  0  0  0  0  0  0  0  0
    0.4874    0.7289    1.6868 C   0  0  0  0  0  0  0  0  0  0  0  0
    1.6264    1.0241    2.0226 O   0  0  0  0  0  0  0  0  0  0  0  0
   -0.5791    1.3398    2.3216 N   0  0  0  0  0  0  0  0  0  0  0  0
   -1.5014    0.9953    2.0770 H   0  0  0  0  0  0  0  0  0  0  0  0
   -0.4272    2.1668    3.5122 C   0  0  0  0  0  0  0  0  0  0  0  0
    0.2408    3.0108    3.3105 H   0  0  0  0  0  0  0  0  0  0  0  0
   -1.3979    2.5643    3.8232 H   0  0  0  0  0  0  0  0  0  0  0  0
   -0.0117    1.5779    4.3366 H   0  0  0  0  0  0  0  0  0  0  0  0
  1  2  1  0  0  0  0
  2  3  1  0  0  0  0
  2  4  1  0  0  0  0
  2  5  1  0  0  0  0
  5  6  2  0  0  0  0
  5  7  1  0  0  0  0
  7  8  1  0  0  0  0
  7  9  1  0  0  0  0
  9 10  1  0  0  0  0
  9 11  1  0  0  0  0
  9 15  1  0  0  0  0
 11 12  1  0  0  0  0
 11 13  1  0  0  0  0
 11 14  1  0  0  0  0
 15 16  2  0  0  0  0
 15 17  1  0  0  0  0
 17 18  1  0  0  0  0
 17 19  1  0  0  0  0
 19 20  1  0  0  0  0
 19 21  1  0  0  0  0
 19 22  1  0  0  0  0
M  END
$$$$

  -OEChem-11182114133D

 22 21  0     1  0  0  0  0  0999 V2000
   -2.6453   -3.7118    1.0381 H   0  0  0  0  0  0  0  0  0  0  0  0
   -2.6352   -2.7165    0.5845 C   0  0  0  0  0  0  0  0  0  0  0  0
   -3.4642   -2.1348    0.9945 H   0  0  0  0  0  0  0  0  0  0  0  0
   -2.7703   -2.8223   -0.4946 H   0  0  0  0  0  0  0  0  0  0  0  0
   -1.3183   -2.0231    0.8788 C   0  0  0  0  0  0  0  0  0  0  0  0
   -0.4926   -2.5599    1.5955 O   0  0  0  0  0  0  0  0  0  0  0  0
   -1.0726   -0.7652    0.3662 N   0  0  0  0  0  0  0  0  0  0  0  0
   -1.7601   -0.3964   -0.2843 H   0  0  0  0  0  0  0  0  0  0  0  0
    0.2505   -0.1155    0.4168 C   0  0  1  0  0  0  0  0  0  0  0  0
    1.0357   -0.8798    0.3924 H   0  0  0  0  0  0  0  0  0  0  0  0
    0.3858    0.7479   -0.8407 C   0  0  0  0  0  0  0  0  0  0  0  0
   -0.3639    1.5453   -0.8437 H   0  0  0  0  0  0  0  0  0  0  0  0
    1.3791    1.2071   -0.8789 H   0  0  0  0  0  0  0  0  0  0  0  0
    0.2562    0.1373   -1.7395 H   0  0  0  0  0  0  0  0  0  0  0  0
    0.4886    0.7336    1.6857 C   0  0  0  0  0  0  0  0  0  0  0  0
    1.5904    1.2237    1.8953 O   0  0  0  0  0  0  0  0  0  0  0  0
   -0.5712    1.0916    2.4989 N   0  0  0  0  0  0  0  0  0  0  0  0
   -1.4281    0.5649    2.3637 H   0  0  0  0  0  0  0  0  0  0  0  0
   -0.4052    1.8651    3.7231 C   0  0  0  0  0  0  0  0  0  0  0  0
    0.0557    2.8343    3.5051 H   0  0  0  0  0  0  0  0  0  0  0  0
   -1.3773    2.0445    4.1920 H   0  0  0  0  0  0  0  0  0  0  0  0
    0.2297    1.3253    4.4334 H   0  0  0  0  0  0  0  0  0  0  0  0
  1  2  1  0  0  0  0
  2  3  1  0  0  0  0
  2  4  1  0  0  0  0
  2  5  1  0  0  0  0
  5  6  2  0  0  0  0
  5  7  1  0  0  0  0
  7  8  1  0  0  0  0
  7  9  1  0  0  0  0
  9 10  1  0  0  0  0
  9 11  1  0  0  0  0
  9 15  1  0  0  0  0
 11 12  1  0  0  0  0
 11 13  1  0  0  0  0
 11 14  1  0  0  0  0
 15 16  2  0  0  0  0
 15 17  1  0  0  0  0
 17 18  1  0  0  0  0
 17 19  1  0  0  0  0
 19 20  1  0  0  0  0
 19 21  1  0  0  0  0
 19 22  1  0  0  0  0
M  END
$$$$

  -OEChem-11182114133D

 22 21  0     1  0  0  0  0  0999 V2000
   -2.6602   -3.6950    1.0492 H   0  0  0  0  0  0  0  0  0  0  0  0
   -2.6355   -2.7129    0.5680 C   0  0  0  0  0  0  0  0  0  0  0  0
   -3.4732   -2.1177    0.9395 H   0  0  0  0  0  0  0  0  0  0  0  0
   -2.7429   -2.8485   -0.5109 H   0  0  0  0  0  0  0  0  0  0  0  0
   -1.3242   -2.0147    0.8752 C   0  0  0  0  0  0  0  0  0  0  0  0
   -0.5106   -2.5373    1.6161 O   0  0  0  0  0  0  0  0  0  0  0  0
   -1.0751   -0.7568    0.3661 N   0  0  0  0  0  0  0  0  0  0  0  0
   -1.7653   -0.3795   -0.2767 H   0  0  0  0  0  0  0  0  0  0  0  0
    0.2485   -0.1074    0.4156 C   0  0  1  0  0  0  0  0  0  0  0  0
    1.0326   -0.8727    0.3912 H   0  0  0  0  0  0  0  0  0  0  0  0
    0.3778    0.7486   -0.8487 C   0  0  0  0  0  0  0  0  0  0  0  0
   -0.3620    1.5552   -0.8448 H   0  0  0  0  0  0  0  0  0  0  0  0
    1.3759    1.1954   -0.9041 H   0  0  0  0  0  0  0  0  0  0  0  0
    0.2277    0.1356   -1.7426 H   0  0  0  0  0  0  0  0  0  0  0  0
    0.4899    0.7400    1.6872 C   0  0  0  0  0  0  0  0  0  0  0  0
    1.5026    1.4203    1.7918 O   0  0  0  0  0  0  0  0  0  0  0  0
   -0.4889    0.8392    2.6587 N   0  0  0  0  0  0  0  0  0  0  0  0
   -1.2234    0.1395    2.6085 H   0  0  0  0  0  0  0  0  0  0  0  0
   -0.2918    1.5595    3.9100 C   0  0  0  0  0  0  0  0  0  0  0  0
   -0.0491    2.6095    3.7144 H   0  0  0  0  0  0  0  0  0  0  0  0
   -1.2035    1.5242    4.5139 H   0  0  0  0  0  0  0  0  0  0  0  0
    0.5246    1.1099    4.4849 H   0  0  0  0  0  0  0  0  0  0  0  0
  1  2  1  0  0  0  0
  2  3  1  0  0  0  0
  2  4  1  0  0  0  0
  2  5  1  0  0  0  0
  5  6  2  0  0  0  0
  5  7  1  0  0  0  0
  7  8  1  0  0  0  0
  7  9  1  0  0  0  0
  9 10  1  0  0  0  0
  9 11  1  0  0  0  0
  9 15  1  0  0  0  0
 11 12  1  0  0  0  0
 11 13  1  0  0  0  0
 11 14  1  0  0  0  0
 15 16  2  0  0  0  0
 15 17  1  0  0  0  0
 17 18  1  0  0  0  0
 17 19  1  0  0  0  0
 19 20  1  0  0  0  0
 19 21  1  0  0  0  0
 19 22  1  0  0  0  0
M  END
$$$$

  -OEChem-11182114133D

 22 21  0     1  0  0  0  0  0999 V2000
   -2.6702   -3.6800    1.0484 H   0  0  0  0  0  0  0  0  0  0  0  0
   -2.6402   -2.7004    0.5627 C   0  0  0  0  0  0  0  0  0  0  0  0
   -3.4796   -2.1022    0.9252 H   0  0  0  0  0  0  0  0  0  0  0  0
   -2.7400   -2.8410   -0.5163 H   0  0  0  0  0  0  0  0  0  0  0  0
   -1.3304   -2.0024    0.8759 C   0  0  0  0  0  0  0  0  0  0  0  0
   -0.5289   -2.5114    1.6398 O   0  0  0  0  0  0  0  0  0  0  0  0
   -1.0771   -0.7443    0.3720 N   0  0  0  0  0  0  0  0  0  0  0  0
   -1.7707   -0.3588   -0.2621 H   0  0  0  0  0  0  0  0  0  0  0  0
    0.2493   -0.1008    0.4135 C   0  0  1  0  0  0  0  0  0  0  0  0
    1.0292   -0.8697    0.3834 H   0  0  0  0  0  0  0  0  0  0  0  0
    0.3733    0.7506   -0.8556 C   0  0  0  0  0  0  0  0  0  0  0  0
   -0.3578    1.5651   -0.8450 H   0  0  0  0  0  0  0  0  0  0  0  0
    1.3752    1.1866   -0.9250 H   0  0  0  0  0  0  0  0  0  0  0  0
    0.2062    0.1373   -1.7461 H   0  0  0  0  0  0  0  0  0  0  0  0
    0.4970    0.7374    1.6920 C   0  0  0  0  0  0  0  0  0  0  0  0
    1.3664    1.5998    1.7160 O   0  0  0  0  0  0  0  0  0  0  0  0
   -0.3280    0.5856    2.7908 N   0  0  0  0  0  0  0  0  0  0  0  0
   -0.8850   -0.2659    2.7944 H   0  0  0  0  0  0  0  0  0  0  0  0
   -0.1010    1.2759    4.0538 C   0  0  0  0  0  0  0  0  0  0  0  0
   -0.0947    2.3606    3.9029 H   0  0  0  0  0  0  0  0  0  0  0  0
   -0.8965    1.0332    4.7647 H   0  0  0  0  0  0  0  0  0  0  0  0
    0.8583    0.9747    4.4875 H   0  0  0  0  0  0  0  0  0  0  0  0
  1  2  1  0  0  0  0
  2  3  1  0  0  0  0
  2  4  1  0  0  0  0
  2  5  1  0  0  0  0
  5  6  2  0  0  0  0
  5  7  1  0  0  0  0
  7  8  1  0  0  0  0
  7  9  1  0  0  0  0
  9 10  1  0  0  0  0
  9 11  1  0  0  0  0
  9 15  1  0  0  0  0
 11 12  1  0  0  0  0
 11 13  1  0  0  0  0
 11 14  1  0  0  0  0
 15 16  2  0  0  0  0
 15 17  1  0  0  0  0
 17 18  1  0  0  0  0
 17 19  1  0  0  0  0
 19 20  1  0  0  0  0
 19 21  1  0  0  0  0
 19 22  1  0  0  0  0
M  END
$$$$

  -OEChem-11182114133D

 22 21  0     1  0  0  0  0  0999 V2000
   -2.6688   -3.6594    1.0702 H   0  0  0  0  0  0  0  0  0  0  0  0
   -2.6429   -2.6778    0.5885 C   0  0  0  0  0  0  0  0  0  0  0  0
   -3.4742   -2.0777    0.9668 H   0  0  0  0  0  0  0  0  0  0  0  0
   -2.7599   -2.8127   -0.4896 H   0  0  0  0  0  0  0  0  0  0  0  0
   -1.3259   -1.9862    0.8851 C   0  0  0  0  0  0  0  0  0  0  0  0
   -0.5215   -2.4916    1.6504 O   0  0  0  0  0  0  0  0  0  0  0  0
   -1.0705   -0.7298    0.3787 N   0  0  0  0  0  0  0  0  0  0  0  0
   -1.7758   -0.3304   -0.2335 H   0  0  0  0  0  0  0  0  0  0  0  0
    0.2583   -0.0924    0.4068 C   0  0  1  0  0  0  0  0  0  0  0  0
    1.0356   -0.8637    0.3755 H   0  0  0  0  0  0  0  0  0  0  0  0
    0.3802    0.7508   -0.8688 C   0  0  0  0  0  0  0  0  0  0  0  0
   -0.3479    1.5682   -0.8605 H   0  0  0  0  0  0  0  0  0  0  0  0
    1.3836    1.1825   -0.9445 H   0  0  0  0  0  0  0  0  0  0  0  0
    0.2068    0.1327   -1.7550 H   0  0  0  0  0  0  0  0  0  0  0  0
    0.5039    0.7397    1.6898 C   0  0  0  0  0  0  0  0  0  0  0  0
    1.1880    1.7557    1.6695 O   0  0  0  0  0  0  0  0  0  0  0  0
   -0.1100    0.3642    2.8698 N   0  0  0  0  0  0  0  0  0  0  0  0
   -0.4945   -0.5808    2.8729 H   0  0  0  0  0  0  0  0  0  0  0  0
    0.1448    1.0205    4.1453 C   0  0  0  0  0  0  0  0  0  0  0  0
   -0.0882    2.0886    4.0813 H   0  0  0  0  0  0  0  0  0  0  0  0
   -0.4803    0.5792    4.9276 H   0  0  0  0  0  0  0  0  0  0  0  0
    1.1953    0.9051    4.4316 H   0  0  0  0  0  0  0  0  0  0  0  0
  1  2  1  0  0  0  0
  2  3  1  0  0  0  0
  2  4  1  0  0  0  0
  2  5  1  0  0  0  0
  5  6  2  0  0  0  0
  5  7  1  0  0  0  0
  7  8  1  0  0  0  0
  7  9  1  0  0  0  0
  9 10  1  0  0  0  0
  9 11  1  0  0  0  0
  9 15  1  0  0  0  0
 11 12  1  0  0  0  0
 11 13  1  0  0  0  0
 11 14  1  0  0  0  0
 15 16  2  0  0  0  0
 15 17  1  0  0  0  0
 17 18  1  0  0  0  0
 17 19  1  0  0  0  0
 19 20  1  0  0  0  0
 19 21  1  0  0  0  0
 19 22  1  0  0  0  0
M  END
$$$$

  -OEChem-11182114133D

 22 21  0     1  0  0  0  0  0999 V2000
   -2.6589   -3.6414    1.1006 H   0  0  0  0  0  0  0  0  0  0  0  0
   -2.6446   -2.6489    0.6410 C   0  0  0  0  0  0  0  0  0  0  0  0
   -3.4473   -2.0478    1.0754 H   0  0  0  0  0  0  0  0  0  0  0  0
   -2.8186   -2.7569   -0.4324 H   0  0  0  0  0  0  0  0  0  0  0  0
   -1.3053   -1.9802    0.8858 C   0  0  0  0  0  0  0  0  0  0  0  0
   -0.4742   -2.5090    1.6070 O   0  0  0  0  0  0  0  0  0  0  0  0
   -1.0515   -0.7237    0.3777 N   0  0  0  0  0  0  0  0  0  0  0  0
   -1.7780   -0.2983   -0.1907 H   0  0  0  0  0  0  0  0  0  0  0  0
    0.2781   -0.0900    0.3943 C   0  0  1  0  0  0  0  0  0  0  0  0
    1.0559   -0.8604    0.3584 H   0  0  0  0  0  0  0  0  0  0  0  0
    0.3978    0.7530   -0.8818 C   0  0  0  0  0  0  0  0  0  0  0  0
   -0.3359    1.5655   -0.8769 H   0  0  0  0  0  0  0  0  0  0  0  0
    1.3983    1.1917   -0.9536 H   0  0  0  0  0  0  0  0  0  0  0  0
    0.2312    0.1328   -1.7677 H   0  0  0  0  0  0  0  0  0  0  0  0
    0.5184    0.7354    1.6815 C   0  0  0  0  0  0  0  0  0  0  0  0
    0.9878    1.8665    1.6476 O   0  0  0  0  0  0  0  0  0  0  0  0
    0.1678    0.1852    2.8994 N   0  0  0  0  0  0  0  0  0  0  0  0
   -0.1003   -0.8007    2.8794 H   0  0  0  0  0  0  0  0  0  0  0  0
    0.4251    0.8279    4.1808 C   0  0  0  0  0  0  0  0  0  0  0  0
   -0.0653    1.8060    4.2242 H   0  0  0  0  0  0  0  0  0  0  0  0
    0.0362    0.2110    4.9965 H   0  0  0  0  0  0  0  0  0  0  0  0
    1.5009    0.9657    4.3313 H   0  0  0  0  0  0  0  0  0  0  0  0
  1  2  1  0  0  0  0
  2  3  1  0  0  0  0
  2  4  1  0  0  0  0
  2  5  1  0  0  0  0
  5  6  2  0  0  0  0
  5  7  1  0  0  0  0
  7  8  1  0  0  0  0
  7  9  1  0  0  0  0
  9 10  1  0  0  0  0
  9 11  1  0  0  0  0
  9 15  1  0  0  0  0
 11 12  1  0  0  0  0
 11 13  1  0  0  0  0
 11 14  1  0  0  0  0
 15 16  2  0  0  0  0
 15 17  1  0  0  0  0
 17 18  1  0  0  0  0
 17 19  1  0  0  0  0
 19 20  1  0  0  0  0
 19 21  1  0  0  0  0
 19 22  1  0  0  0  0
M  END
$$$$

  -OEChem-11182114133D

 22 21  0     1  0  0  0  0  0999 V2000
   -2.6407   -3.6171    1.1406 H   0  0  0  0  0  0  0  0  0  0  0  0
   -2.6369   -2.6120    0.7094 C   0  0  0  0  0  0  0  0  0  0  0  0
   -3.4005   -2.0110    1.2094 H   0  0  0  0  0  0  0  0  0  0  0  0
   -2.8779   -2.6856   -0.3538 H   0  0  0  0  0  0  0  0  0  0  0  0
   -1.2736   -1.9720    0.8892 C   0  0  0  0  0  0  0  0  0  0  0  0
   -0.4121   -2.5298    1.5519 O   0  0  0  0  0  0  0  0  0  0  0  0
   -1.0227   -0.7163    0.3773 N   0  0  0  0  0  0  0  0  0  0  0  0
   -1.7754   -0.2547   -0.1251 H   0  0  0  0  0  0  0  0  0  0  0  0
    0.3095   -0.0924    0.3721 C   0  0  1  0  0  0  0  0  0  0  0  0
    1.0859   -0.8635    0.3218 H   0  0  0  0  0  0  0  0  0  0  0  0
    0.4145    0.7551   -0.9019 C   0  0  0  0  0  0  0  0  0  0  0  0
   -0.3333    1.5547   -0.8968 H   0  0  0  0  0  0  0  0  0  0  0  0
    1.4073    1.2113   -0.9722 H   0  0  0  0  0  0  0  0  0  0  0  0
    0.2579    0.1330   -1.7883 H   0  0  0  0  0  0  0  0  0  0  0  0
    0.5568    0.7235    1.6617 C   0  0  0  0  0  0  0  0  0  0  0  0
    0.7833    1.9274    1.6402 O   0  0  0  0  0  0  0  0  0  0  0  0
    0.5102    0.0613    2.8727 N   0  0  0  0  0  0  0  0  0  0  0  0
    0.3059   -0.9397    2.8335 H   0  0  0  0  0  0  0  0  0  0  0  0
    0.7149    0.7045    4.1631 C   0  0  0  0  0  0  0  0  0  0  0  0
   -0.0394    1.4809    4.3275 H   0  0  0  0  0  0  0  0  0  0  0  0
    0.6351   -0.0321    4.9684 H   0  0  0  0  0  0  0  0  0  0  0  0
    1.7086    1.1619    4.2099 H   0  0  0  0  0  0  0  0  0  0  0  0
  1  2  1  0  0  0  0
  2  3  1  0  0  0  0
  2  4  1  0  0  0  0
  2  5  1  0  0  0  0
  5  6  2  0  0  0  0
  5  7  1  0  0  0  0
  7  8  1  0  0  0  0
  7  9  1  0  0  0  0
  9 10  1  0  0  0  0
  9 11  1  0  0  0  0
  9 15  1  0  0  0  0
 11 12  1  0  0  0  0
 11 13  1  0  0  0  0
 11 14  1  0  0  0  0
 15 16  2  0  0  0  0
 15 17  1  0  0  0  0
 17 18  1  0  0  0  0
 17 19  1  0  0  0  0
 19 20  1  0  0  0  0
 19 21  1  0  0  0  0
 19 22  1  0  0  0  0
M  END
$$$$

  -OEChem-11182114133D

 22 21  0     1  0  0  0  0  0999 V2000
   -2.6234   -3.5857    1.2155 H   0  0  0  0  0  0  0  0  0  0  0  0
   -2.6220   -2.5859    0.7726 C   0  0  0  0  0  0  0  0  0  0  0  0
   -3.3533   -1.9669    1.2979 H   0  0  0  0  0  0  0  0  0  0  0  0
   -2.9099   -2.6673   -0.2782 H   0  0  0  0  0  0  0  0  0  0  0  0
   -1.2420   -1.9663    0.8856 C   0  0  0  0  0  0  0  0  0  0  0  0
   -0.3530   -2.5442    1.4934 O   0  0  0  0  0  0  0  0  0  0  0  0
   -0.9994   -0.7111    0.3681 N   0  0  0  0  0  0  0  0  0  0  0  0
   -1.7739   -0.2187   -0.0679 H   0  0  0  0  0  0  0  0  0  0  0  0
    0.3329   -0.0914    0.3484 C   0  0  1  0  0  0  0  0  0  0  0  0
    1.1106   -0.8605    0.2862 H   0  0  0  0  0  0  0  0  0  0  0  0
    0.4282    0.7638   -0.9209 C   0  0  0  0  0  0  0  0  0  0  0  0
   -0.3313    1.5521   -0.9151 H   0  0  0  0  0  0  0  0  0  0  0  0
    1.4140    1.2350   -0.9858 H   0  0  0  0  0  0  0  0  0  0  0  0
    0.2823    0.1436   -1.8104 H   0  0  0  0  0  0  0  0  0  0  0  0
    0.5821    0.7208    1.6377 C   0  0  0  0  0  0  0  0  0  0  0  0
    0.5523    1.9457    1.6546 O   0  0  0  0  0  0  0  0  0  0  0  0
    0.8513    0.0249    2.7996 N   0  0  0  0  0  0  0  0  0  0  0  0
    0.7291   -0.9885    2.7515 H   0  0  0  0  0  0  0  0  0  0  0  0
    1.0181    0.6602    4.0995 C   0  0  0  0  0  0  0  0  0  0  0  0
    0.1020    1.1848    4.3898 H   0  0  0  0  0  0  0  0  0  0  0  0
    1.2439   -0.0925    4.8610 H   0  0  0  0  0  0  0  0  0  0  0  0
    1.8433    1.3794    4.0708 H   0  0  0  0  0  0  0  0  0  0  0  0
  1  2  1  0  0  0  0
  2  3  1  0  0  0  0
  2  4  1  0  0  0  0
  2  5  1  0  0  0  0
  5  6  2  0  0  0  0
  5  7  1  0  0  0  0
  7  8  1  0  0  0  0
  7  9  1  0  0  0  0
  9 10  1  0  0  0  0
  9 11  1  0  0  0  0
  9 15  1  0  0  0  0
 11 12  1  0  0  0  0
 11 13  1  0  0  0  0
 11 14  1  0  0  0  0
 15 16  2  0  0  0  0
 15 17  1  0  0  0  0
 17 18  1  0  0  0  0
 17 19  1  0  0  0  0
 19 20  1  0  0  0  0
 19 21  1  0  0  0  0
 19 22  1  0  0  0  0
M  END
$$$$

  -OEChem-11182114133D

 22 21  0     1  0  0  0  0  0999 V2000
   -2.6128   -3.5629    1.2703 H   0  0  0  0  0  0  0  0  0  0  0  0
   -2.6124   -2.5647    0.8237 C   0  0  0  0  0  0  0  0  0  0  0  0
   -3.2917   -1.9249    1.3922 H   0  0  0  0  0  0  0  0  0  0  0  0
   -2.9690   -2.6400   -0.2064 H   0  0  0  0  0  0  0  0  0  0  0  0
   -1.2116   -1.9832    0.8454 C   0  0  0  0  0  0  0  0  0  0  0  0
   -0.2948   -2.6016    1.3657 O   0  0  0  0  0  0  0  0  0  0  0  0
   -0.9767   -0.7250    0.3315 N   0  0  0  0  0  0  0  0  0  0  0  0
   -1.7767   -0.1809    0.0203 H   0  0  0  0  0  0  0  0  0  0  0  0
    0.3494   -0.0955    0.3242 C   0  0  1  0  0  0  0  0  0  0  0  0
    1.1354   -0.8557    0.2601 H   0  0  0  0  0  0  0  0  0  0  0  0
    0.4453    0.7706   -0.9371 C   0  0  0  0  0  0  0  0  0  0  0  0
   -0.3302    1.5435   -0.9375 H   0  0  0  0  0  0  0  0  0  0  0  0
    1.4225    1.2614   -0.9856 H   0  0  0  0  0  0  0  0  0  0  0  0
    0.3232    0.1531   -1.8321 H   0  0  0  0  0  0  0  0  0  0  0  0
    0.5803    0.7165    1.6161 C   0  0  0  0  0  0  0  0  0  0  0  0
    0.2782    1.9015    1.6937 O   0  0  0  0  0  0  0  0  0  0  0  0
    1.1471    0.0799    2.7031 N   0  0  0  0  0  0  0  0  0  0  0  0
    1.2024   -0.9368    2.6439 H   0  0  0  0  0  0  0  0  0  0  0  0
    1.3127    0.7171    4.0030 C   0  0  0  0  0  0  0  0  0  0  0  0
    0.3402    1.0036    4.4166 H   0  0  0  0  0  0  0  0  0  0  0  0
    1.7983    0.0286    4.7014 H   0  0  0  0  0  0  0  0  0  0  0  0
    1.9360    1.6132    3.9137 H   0  0  0  0  0  0  0  0  0  0  0  0
  1  2  1  0  0  0  0
  2  3  1  0  0  0  0
  2  4  1  0  0  0  0
  2  5  1  0  0  0  0
  5  6  2  0  0  0  0
  5  7  1  0  0  0  0
  7  8  1  0  0  0  0
  7  9  1  0  0  0  0
  9 10  1  0  0  0  0
  9 11  1  0  0  0  0
  9 15  1  0  0  0  0
 11 12  1  0  0  0  0
 11 13  1  0  0  0  0
 11 14  1  0  0  0  0
 15 16  2  0  0  0  0
 15 17  1  0  0  0  0
 17 18  1  0  0  0  0
 17 19  1  0  0  0  0
 19 20  1  0  0  0  0
 19 21  1  0  0  0  0
 19 22  1  0  0  0  0
M  END
$$$$

  -OEChem-11182114133D

 22 21  0     1  0  0  0  0  0999 V2000
   -2.6021   -3.5363    1.3312 H   0  0  0  0  0  0  0  0  0  0  0  0
   -2.6042   -2.5401    0.8800 C   0  0  0  0  0  0  0  0  0  0  0  0
   -3.2185   -1.8773    1.4943 H   0  0  0  0  0  0  0  0  0  0  0  0
   -3.0390   -2.6073   -0.1200 H   0  0  0  0  0  0  0  0  0  0  0  0
   -1.1884   -2.0027    0.7934 C   0  0  0  0  0  0  0  0  0  0  0  0
   -0.2539   -2.6636    1.2206 O   0  0  0  0  0  0  0  0  0  0  0  0
   -0.9594   -0.7416    0.2832 N   0  0  0  0  0  0  0  0  0  0  0  0
   -1.7714   -0.1554    0.1087 H   0  0  0  0  0  0  0  0  0  0  0  0
    0.3628   -0.1042    0.2922 C   0  0  1  0  0  0  0  0  0  0  0  0
    1.1541   -0.8587    0.2279 H   0  0  0  0  0  0  0  0  0  0  0  0
    0.4683    0.7794   -0.9549 C   0  0  0  0  0  0  0  0  0  0  0  0
   -0.3117    1.5476   -0.9537 H   0  0  0  0  0  0  0  0  0  0  0  0
    1.4430    1.2763   -0.9848 H   0  0  0  0  0  0  0  0  0  0  0  0
    0.3602    0.1733   -1.8595 H   0  0  0  0  0  0  0  0  0  0  0  0
    0.5747    0.7077    1.5868 C   0  0  0  0  0  0  0  0  0  0  0  0
    0.0097    1.7826    1.7530 O   0  0  0  0  0  0  0  0  0  0  0  0
    1.4005    0.2077    2.5752 N   0  0  0  0  0  0  0  0  0  0  0  0
    1.6839   -0.7650    2.4742 H   0  0  0  0  0  0  0  0  0  0  0  0
    1.5609    0.8498    3.8735 C   0  0  0  0  0  0  0  0  0  0  0  0
    0.6034    0.8876    4.4035 H   0  0  0  0  0  0  0  0  0  0  0  0
    2.2750    0.2902    4.4854 H   0  0  0  0  0  0  0  0  0  0  0  0
    1.9377    1.8709    3.7519 H   0  0  0  0  0  0  0  0  0  0  0  0
  1  2  1  0  0  0  0
  2  3  1  0  0  0  0
  2  4  1  0  0  0  0
  2  5  1  0  0  0  0
  5  6  2  0  0  0  0
  5  7  1  0  0  0  0
  7  8  1  0  0  0  0
  7  9  1  0  0  0  0
  9 10  1  0  0  0  0
  9 11  1  0  0  0  0
  9 15  1  0  0  0  0
 11 12  1  0  0  0  0
 11 13  1  0  0  0  0
 11 14  1  0  0  0  0
 15 16  2  0  0  0  0
 15 17  1  0  0  0  0
 17 18  1  0  0  0  0
 17 19  1  0  0  0  0
 19 20  1  0  0  0  0
 19 21  1  0  0  0  0
 19 22  1  0  0  0  0
M  END
$$$$

  -OEChem-11182114133D

 22 21  0     1  0  0  0  0  0999 V2000
   -2.5975   -3.5252    1.3550 H   0  0  0  0  0  0  0  0  0  0  0  0
   -2.6005   -2.5270    0.9082 C   0  0  0  0  0  0  0  0  0  0  0  0
   -3.1721   -1.8547    1.5528 H   0  0  0  0  0  0  0  0  0  0  0  0
   -3.0829   -2.5804   -0.0707 H   0  0  0  0  0  0  0  0  0  0  0  0
   -1.1797   -2.0171    0.7586 C   0  0  0  0  0  0  0  0  0  0  0  0
   -0.2397   -2.7061    1.1245 O   0  0  0  0  0  0  0  0  0  0  0  0
   -0.9540   -0.7552    0.2487 N   0  0  0  0  0  0  0  0  0  0  0  0
   -1.7668   -0.1512    0.1564 H   0  0  0  0  0  0  0  0  0  0  0  0
    0.3651   -0.1115    0.2739 C   0  0  1  0  0  0  0  0  0  0  0  0
    1.1587   -0.8639    0.2162 H   0  0  0  0  0  0  0  0  0  0  0  0
    0.4779    0.7806   -0.9656 C   0  0  0  0  0  0  0  0  0  0  0  0
   -0.3011    1.5501   -0.9606 H   0  0  0  0  0  0  0  0  0  0  0  0
    1.4537    1.2758   -0.9891 H   0  0  0  0  0  0  0  0  0  0  0  0
    0.3710    0.1815   -1.8752 H   0  0  0  0  0  0  0  0  0  0  0  0
    0.5634    0.7058    1.5671 C   0  0  0  0  0  0  0  0  0  0  0  0
   -0.1975    1.6286    1.8354 O   0  0  0  0  0  0  0  0  0  0  0  0
    1.5969    0.3970    2.4313 N   0  0  0  0  0  0  0  0  0  0  0  0
    2.0903   -0.4750    2.2573 H   0  0  0  0  0  0  0  0  0  0  0  0
    1.7763    1.0551    3.7195 C   0  0  0  0  0  0  0  0  0  0  0  0
    0.9040    0.8881    4.3600 H   0  0  0  0  0  0  0  0  0  0  0  0
    2.6605    0.6577    4.2270 H   0  0  0  0  0  0  0  0  0  0  0  0
    1.9133    2.1332    3.5840 H   0  0  0  0  0  0  0  0  0  0  0  0
  1  2  1  0  0  0  0
  2  3  1  0  0  0  0
  2  4  1  0  0  0  0
  2  5  1  0  0  0  0
  5  6  2  0  0  0  0
  5  7  1  0  0  0  0
  7  8  1  0  0  0  0
  7  9  1  0  0  0  0
  9 10  1  0  0  0  0
  9 11  1  0  0  0  0
  9 15  1  0  0  0  0
 11 12  1  0  0  0  0
 11 13  1  0  0  0  0
 11 14  1  0  0  0  0
 15 16  2  0  0  0  0
 15 17  1  0  0  0  0
 17 18  1  0  0  0  0
 17 19  1  0  0  0  0
 19 20  1  0  0  0  0
 19 21  1  0  0  0  0
 19 22  1  0  0  0  0
M  END
$$$$

  -OEChem-11182114133D

 22 21  0     1  0  0  0  0  0999 V2000
   -2.5966   -3.5206    1.3704 H   0  0  0  0  0  0  0  0  0  0  0  0
   -2.6010   -2.5221    0.9240 C   0  0  0  0  0  0  0  0  0  0  0  0
   -3.1455   -1.8434    1.5852 H   0  0  0  0  0  0  0  0  0  0  0  0
   -3.1121   -2.5691   -0.0405 H   0  0  0  0  0  0  0  0  0  0  0  0
   -1.1792   -2.0287    0.7327 C   0  0  0  0  0  0  0  0  0  0  0  0
   -0.2381   -2.7374    1.0550 O   0  0  0  0  0  0  0  0  0  0  0  0
   -0.9556   -0.7664    0.2223 N   0  0  0  0  0  0  0  0  0  0  0  0
   -1.7663   -0.1533    0.1881 H   0  0  0  0  0  0  0  0  0  0  0  0
    0.3617   -0.1179    0.2641 C   0  0  1  0  0  0  0  0  0  0  0  0
    1.1572   -0.8688    0.2164 H   0  0  0  0  0  0  0  0  0  0  0  0
    0.4848    0.7792   -0.9693 C   0  0  0  0  0  0  0  0  0  0  0  0
   -0.2918    1.5510   -0.9633 H   0  0  0  0  0  0  0  0  0  0  0  0
    1.4622    1.2712   -0.9856 H   0  0  0  0  0  0  0  0  0  0  0  0
    0.3806    0.1851   -1.8824 H   0  0  0  0  0  0  0  0  0  0  0  0
    0.5476    0.7052    1.5557 C   0  0  0  0  0  0  0  0  0  0  0  0
   -0.3450    1.4536    1.9385 O   0  0  0  0  0  0  0  0  0  0  0  0
    1.7257    0.6239    2.2743 N   0  0  0  0  0  0  0  0  0  0  0  0
    2.3853   -0.0984    1.9988 H   0  0  0  0  0  0  0  0  0  0  0  0
    1.9302    1.3130    3.5421 C   0  0  0  0  0  0  0  0  0  0  0  0
    1.1931    0.9821    4.2812 H   0  0  0  0  0  0  0  0  0  0  0  0
    2.9306    1.1003    3.9309 H   0  0  0  0  0  0  0  0  0  0  0  0
    1.8354    2.3959    3.4094 H   0  0  0  0  0  0  0  0  0  0  0  0
  1  2  1  0  0  0  0
  2  3  1  0  0  0  0
  2  4  1  0  0  0  0
  2  5  1  0  0  0  0
  5  6  2  0  0  0  0
  5  7  1  0  0  0  0
  7  8  1  0  0  0  0
  7  9  1  0  0  0  0
  9 10  1  0  0  0  0
  9 11  1  0  0  0  0
  9 15  1  0  0  0  0
 11 12  1  0  0  0  0
 11 13  1  0  0  0  0
 11 14  1  0  0  0  0
 15 16  2  0  0  0  0
 15 17  1  0  0  0  0
 17 18  1  0  0  0  0
 17 19  1  0  0  0  0
 19 20  1  0  0  0  0
 19 21  1  0  0  0  0
 19 22  1  0  0  0  0
M  END
$$$$

  -OEChem-11182114133D

 22 21  0     1  0  0  0  0  0999 V2000
   -2.5949   -3.5171    1.3816 H   0  0  0  0  0  0  0  0  0  0  0  0
   -2.6016   -2.5194    0.9340 C   0  0  0  0  0  0  0  0  0  0  0  0
   -3.1243   -1.8356    1.6073 H   0  0  0  0  0  0  0  0  0  0  0  0
   -3.1362   -2.5633   -0.0177 H   0  0  0  0  0  0  0  0  0  0  0  0
   -1.1807   -2.0382    0.7085 C   0  0  0  0  0  0  0  0  0  0  0  0
   -0.2394   -2.7609    0.9972 O   0  0  0  0  0  0  0  0  0  0  0  0
   -0.9596   -0.7750    0.1988 N   0  0  0  0  0  0  0  0  0  0  0  0
   -1.7682   -0.1581    0.2062 H   0  0  0  0  0  0  0  0  0  0  0  0
    0.3563   -0.1236    0.2608 C   0  0  1  0  0  0  0  0  0  0  0  0
    1.1540   -0.8729    0.2250 H   0  0  0  0  0  0  0  0  0  0  0  0
    0.4909    0.7755   -0.9696 C   0  0  0  0  0  0  0  0  0  0  0  0
   -0.2841    1.5489   -0.9665 H   0  0  0  0  0  0  0  0  0  0  0  0
    1.4698    1.2649   -0.9790 H   0  0  0  0  0  0  0  0  0  0  0  0
    0.3909    0.1834   -1.8846 H   0  0  0  0  0  0  0  0  0  0  0  0
    0.5293    0.7035    1.5526 C   0  0  0  0  0  0  0  0  0  0  0  0
   -0.4371    1.2661    2.0559 O   0  0  0  0  0  0  0  0  0  0  0  0
    1.7816    0.8705    2.1143 N   0  0  0  0  0  0  0  0  0  0  0  0
    2.5435    0.3235    1.7241 H   0  0  0  0  0  0  0  0  0  0  0  0
    2.0054    1.6046    3.3535 C   0  0  0  0  0  0  0  0  0  0  0  0
    1.4467    1.1462    4.1763 H   0  0  0  0  0  0  0  0  0  0  0  0
    3.0689    1.5976    3.6109 H   0  0  0  0  0  0  0  0  0  0  0  0
    1.6836    2.6457    3.2456 H   0  0  0  0  0  0  0  0  0  0  0  0
  1  2  1  0  0  0  0
  2  3  1  0  0  0  0
  2  4  1  0  0  0  0
  2  5  1  0  0  0  0
  5  6  2  0  0  0  0
  5  7  1  0  0  0  0
  7  8  1  0  0  0  0
  7  9  1  0  0  0  0
  9 10  1  0  0  0  0
  9 11  1  0  0  0  0
  9 15  1  0  0  0  0
 11 12  1  0  0  0  0
 11 13  1  0  0  0  0
 11 14  1  0  0  0  0
 15 16  2  0  0  0  0
 15 17  1  0  0  0  0
 17 18  1  0  0  0  0
 17 19  1  0  0  0  0
 19 20  1  0  0  0  0
 19 21  1  0  0  0  0
 19 22  1  0  0  0  0
M  END
$$$$

  -OEChem-11182114133D

 22 21  0     1  0  0  0  0  0999 V2000
   -2.5948   -3.5152    1.3856 H   0  0  0  0  0  0  0  0  0  0  0  0
   -2.6027   -2.5168    0.9393 C   0  0  0  0  0  0  0  0  0  0  0  0
   -3.1094   -1.8305    1.6225 H   0  0  0  0  0  0  0  0  0  0  0  0
   -3.1531   -2.5556   -0.0037 H   0  0  0  0  0  0  0  0  0  0  0  0
   -1.1827   -2.0443    0.6911 C   0  0  0  0  0  0  0  0  0  0  0  0
   -0.2425   -2.7789    0.9521 O   0  0  0  0  0  0  0  0  0  0  0  0
   -0.9632   -0.7801    0.1822 N   0  0  0  0  0  0  0  0  0  0  0  0
   -1.7713   -0.1638    0.2162 H   0  0  0  0  0  0  0  0  0  0  0  0
    0.3516   -0.1267    0.2630 C   0  0  1  0  0  0  0  0  0  0  0  0
    1.1514   -0.8745    0.2408 H   0  0  0  0  0  0  0  0  0  0  0  0
    0.4957    0.7668   -0.9713 C   0  0  0  0  0  0  0  0  0  0  0  0
   -0.2761    1.5432   -0.9753 H   0  0  0  0  0  0  0  0  0  0  0  0
    1.4764    1.2519   -0.9814 H   0  0  0  0  0  0  0  0  0  0  0  0
    0.3965    0.1705   -1.8838 H   0  0  0  0  0  0  0  0  0  0  0  0
    0.5136    0.7044    1.5556 C   0  0  0  0  0  0  0  0  0  0  0  0
   -0.4732    1.0698    2.1858 O   0  0  0  0  0  0  0  0  0  0  0  0
    1.7665    1.1302    1.9579 N   0  0  0  0  0  0  0  0  0  0  0  0
    2.5684    0.7715    1.4482 H   0  0  0  0  0  0  0  0  0  0  0  0
    1.9922    1.9090    3.1693 C   0  0  0  0  0  0  0  0  0  0  0  0
    1.6468    1.3567    4.0496 H   0  0  0  0  0  0  0  0  0  0  0  0
    3.0590    2.1208    3.2903 H   0  0  0  0  0  0  0  0  0  0  0  0
    1.4551    2.8620    3.1176 H   0  0  0  0  0  0  0  0  0  0  0  0
  1  2  1  0  0  0  0
  2  3  1  0  0  0  0
  2  4  1  0  0  0  0
  2  5  1  0  0  0  0
  5  6  2  0  0  0  0
  5  7  1  0  0  0  0
  7  8  1  0  0  0  0
  7  9  1  0  0  0  0
  9 10  1  0  0  0  0
  9 11  1  0  0  0  0
  9 15  1  0  0  0  0
 11 12  1  0  0  0  0
 11 13  1  0  0  0  0
 11 14  1  0  0  0  0
 15 16  2  0  0  0  0
 15 17  1  0  0  0  0
 17 18  1  0  0  0  0
 17 19  1  0  0  0  0
 19 20  1  0  0  0  0
 19 21  1  0  0  0  0
 19 22  1  0  0  0  0
M  END
$$$$

  -OEChem-11182114133D

 22 21  0     1  0  0  0  0  0999 V2000
   -2.5444   -3.5457    1.3436 H   0  0  0  0  0  0  0  0  0  0  0  0
   -2.5701   -2.5163    0.9753 C   0  0  0  0  0  0  0  0  0  0  0  0
   -3.0071   -1.8777    1.7470 H   0  0  0  0  0  0  0  0  0  0  0  0
   -3.1950   -2.4775    0.0800 H   0  0  0  0  0  0  0  0  0  0  0  0
   -1.1661   -2.0429    0.6504 C   0  0  0  0  0  0  0  0  0  0  0  0
   -0.2143   -2.7889    0.8240 O   0  0  0  0  0  0  0  0  0  0  0  0
   -0.9708   -0.7723    0.1452 N   0  0  0  0  0  0  0  0  0  0  0  0
   -1.7808   -0.1651    0.2265 H   0  0  0  0  0  0  0  0  0  0  0  0
    0.3433   -0.1205    0.2521 C   0  0  1  0  0  0  0  0  0  0  0  0
    1.1306   -0.8297   -0.0251 H   0  0  0  0  0  0  0  0  0  0  0  0
    0.3563    1.0323   -0.7563 C   0  0  0  0  0  0  0  0  0  0  0  0
   -0.3926    1.7845   -0.4880 H   0  0  0  0  0  0  0  0  0  0  0  0
    1.3388    1.5133   -0.7802 H   0  0  0  0  0  0  0  0  0  0  0  0
    0.1330    0.6593   -1.7609 H   0  0  0  0  0  0  0  0  0  0  0  0
    0.6515    0.3921    1.6812 C   0  0  0  0  0  0  0  0  0  0  0  0
   -0.2167    0.3895    2.5474 O   0  0  0  0  0  0  0  0  0  0  0  0
    1.8511    1.0274    1.9494 N   0  0  0  0  0  0  0  0  0  0  0  0
    2.5691    0.9919    1.2324 H   0  0  0  0  0  0  0  0  0  0  0  0
    2.1902    1.5700    3.2595 C   0  0  0  0  0  0  0  0  0  0  0  0
    2.1873    0.7769    4.0146 H   0  0  0  0  0  0  0  0  0  0  0  0
    3.1862    2.0223    3.2359 H   0  0  0  0  0  0  0  0  0  0  0  0
    1.4689    2.3396    3.5540 H   0  0  0  0  0  0  0  0  0  0  0  0
  1  2  1  0  0  0  0
  2  3  1  0  0  0  0
  2  4  1  0  0  0  0
  2  5  1  0  0  0  0
  5  6  2  0  0  0  0
  5  7  1  0  0  0  0
  7  8  1  0  0  0  0
  7  9  1  0  0  0  0
  9 10  1  0  0  0  0
  9 11  1  0  0  0  0
  9 15  1  0  0  0  0
 11 12  1  0  0  0  0
 11 13  1  0  0  0  0
 11 14  1  0  0  0  0
 15 16  2  0  0  0  0
 15 17  1  0  0  0  0
 17 18  1  0  0  0  0
 17 19  1  0  0  0  0
 19 20  1  0  0  0  0
 19 21  1  0  0  0  0
 19 22  1  0  0  0  0
M  END
$$$$

  -OEChem-11182114133D

 22 21  0     1  0  0  0  0  0999 V2000
   -2.5453   -3.5457    1.3412 H   0  0  0  0  0  0  0  0  0  0  0  0
   -2.5710   -2.5136    0.9808 C   0  0  0  0  0  0  0  0  0  0  0  0
   -2.9973   -1.8792    1.7619 H   0  0  0  0  0  0  0  0  0  0  0  0
   -3.2049   -2.4657    0.0924 H   0  0  0  0  0  0  0  0  0  0  0  0
   -1.1682   -2.0440    0.6451 C   0  0  0  0  0  0  0  0  0  0  0  0
   -0.2210   -2.8026    0.7857 O   0  0  0  0  0  0  0  0  0  0  0  0
   -0.9716   -0.7717    0.1430 N   0  0  0  0  0  0  0  0  0  0  0  0
   -1.7830   -0.1667    0.2232 H   0  0  0  0  0  0  0  0  0  0  0  0
    0.3421   -0.1189    0.2591 C   0  0  1  0  0  0  0  0  0  0  0  0
    1.1309   -0.8308   -0.0073 H   0  0  0  0  0  0  0  0  0  0  0  0
    0.3609    1.0174   -0.7698 C   0  0  0  0  0  0  0  0  0  0  0  0
   -0.3734    1.7853   -0.5064 H   0  0  0  0  0  0  0  0  0  0  0  0
    1.3504    1.4815   -0.8175 H   0  0  0  0  0  0  0  0  0  0  0  0
    0.1196    0.6299   -1.7650 H   0  0  0  0  0  0  0  0  0  0  0  0
    0.6491    0.3962    1.6909 C   0  0  0  0  0  0  0  0  0  0  0  0
   -0.1216    0.1729    2.6179 O   0  0  0  0  0  0  0  0  0  0  0  0
    1.6841    1.2900    1.9076 N   0  0  0  0  0  0  0  0  0  0  0  0
    2.3181    1.4685    1.1351 H   0  0  0  0  0  0  0  0  0  0  0  0
    1.9889    1.8606    3.2147 C   0  0  0  0  0  0  0  0  0  0  0  0
    2.2156    1.0674    3.9350 H   0  0  0  0  0  0  0  0  0  0  0  0
    2.8567    2.5233    3.1456 H   0  0  0  0  0  0  0  0  0  0  0  0
    1.1393    2.4428    3.5869 H   0  0  0  0  0  0  0  0  0  0  0  0
  1  2  1  0  0  0  0
  2  3  1  0  0  0  0
  2  4  1  0  0  0  0
  2  5  1  0  0  0  0
  5  6  2  0  0  0  0
  5  7  1  0  0  0  0
  7  8  1  0  0  0  0
  7  9  1  0  0  0  0
  9 10  1  0  0  0  0
  9 11  1  0  0  0  0
  9 15  1  0  0  0  0
 11 12  1  0  0  0  0
 11 13  1  0  0  0  0
 11 14  1  0  0  0  0
 15 16  2  0  0  0  0
 15 17  1  0  0  0  0
 17 18  1  0  0  0  0
 17 19  1  0  0  0  0
 19 20  1  0  0  0  0
 19 21  1  0  0  0  0
 19 22  1  0  0  0  0
M  END
$$$$

  -OEChem-11182114133D

 22 21  0     1  0  0  0  0  0999 V2000
   -2.5402   -3.5277    1.3769 H   0  0  0  0  0  0  0  0  0  0  0  0
   -2.5670   -2.5017    0.9995 C   0  0  0  0  0  0  0  0  0  0  0  0
   -2.9762   -1.8530    1.7779 H   0  0  0  0  0  0  0  0  0  0  0  0
   -3.2160   -2.4649    0.1216 H   0  0  0  0  0  0  0  0  0  0  0  0
   -1.1678   -2.0453    0.6327 C   0  0  0  0  0  0  0  0  0  0  0  0
   -0.2290   -2.8204    0.7308 O   0  0  0  0  0  0  0  0  0  0  0  0
   -0.9693   -0.7709    0.1351 N   0  0  0  0  0  0  0  0  0  0  0  0
   -1.7821   -0.1680    0.2127 H   0  0  0  0  0  0  0  0  0  0  0  0
    0.3435   -0.1163    0.2591 C   0  0  1  0  0  0  0  0  0  0  0  0
    1.1332   -0.8312    0.0030 H   0  0  0  0  0  0  0  0  0  0  0  0
    0.3740    1.0061   -0.7856 C   0  0  0  0  0  0  0  0  0  0  0  0
   -0.3495    1.7875   -0.5323 H   0  0  0  0  0  0  0  0  0  0  0  0
    1.3703    1.4541   -0.8441 H   0  0  0  0  0  0  0  0  0  0  0  0
    0.1246    0.6077   -1.7743 H   0  0  0  0  0  0  0  0  0  0  0  0
    0.6466    0.3981    1.6944 C   0  0  0  0  0  0  0  0  0  0  0  0
    0.0302   -0.0332    2.6614 O   0  0  0  0  0  0  0  0  0  0  0  0
    1.4546    1.5055    1.8930 N   0  0  0  0  0  0  0  0  0  0  0  0
    1.9535    1.8715    1.0884 H   0  0  0  0  0  0  0  0  0  0  0  0
    1.7092    2.0899    3.2052 C   0  0  0  0  0  0  0  0  0  0  0  0
    2.1697    1.3518    3.8704 H   0  0  0  0  0  0  0  0  0  0  0  0
    2.3874    2.9437    3.1145 H   0  0  0  0  0  0  0  0  0  0  0  0
    0.7749    2.4383    3.6582 H   0  0  0  0  0  0  0  0  0  0  0  0
  1  2  1  0  0  0  0
  2  3  1  0  0  0  0
  2  4  1  0  0  0  0
  2  5  1  0  0  0  0
  5  6  2  0  0  0  0
  5  7  1  0  0  0  0
  7  8  1  0  0  0  0
  7  9  1  0  0  0  0
  9 10  1  0  0  0  0
  9 11  1  0  0  0  0
  9 15  1  0  0  0  0
 11 12  1  0  0  0  0
 11 13  1  0  0  0  0
 11 14  1  0  0  0  0
 15 16  2  0  0  0  0
 15 17  1  0  0  0  0
 17 18  1  0  0  0  0
 17 19  1  0  0  0  0
 19 20  1  0  0  0  0
 19 21  1  0  0  0  0
 19 22  1  0  0  0  0
M  END
$$$$

  -OEChem-11182114133D

 22 21  0     1  0  0  0  0  0999 V2000
   -2.5510   -3.5383    1.3390 H   0  0  0  0  0  0  0  0  0  0  0  0
   -2.5679   -2.4960    1.0083 C   0  0  0  0  0  0  0  0  0  0  0  0
   -2.9548   -1.8766    1.8211 H   0  0  0  0  0  0  0  0  0  0  0  0
   -3.2297   -2.4107    0.1434 H   0  0  0  0  0  0  0  0  0  0  0  0
   -1.1675   -2.0446    0.6395 C   0  0  0  0  0  0  0  0  0  0  0  0
   -0.2354   -2.8291    0.7192 O   0  0  0  0  0  0  0  0  0  0  0  0
   -0.9652   -0.7711    0.1403 N   0  0  0  0  0  0  0  0  0  0  0  0
   -1.7805   -0.1699    0.1993 H   0  0  0  0  0  0  0  0  0  0  0  0
    0.3460   -0.1129    0.2655 C   0  0  1  0  0  0  0  0  0  0  0  0
    1.1372   -0.8313    0.0238 H   0  0  0  0  0  0  0  0  0  0  0  0
    0.3890    0.9932   -0.7968 C   0  0  0  0  0  0  0  0  0  0  0  0
   -0.3440    1.7743   -0.5716 H   0  0  0  0  0  0  0  0  0  0  0  0
    1.3847    1.4447   -0.8428 H   0  0  0  0  0  0  0  0  0  0  0  0
    0.1613    0.5767   -1.7833 H   0  0  0  0  0  0  0  0  0  0  0  0
    0.6426    0.4069    1.7007 C   0  0  0  0  0  0  0  0  0  0  0  0
    0.2411   -0.1980    2.6861 O   0  0  0  0  0  0  0  0  0  0  0  0
    1.1759    1.6695    1.9036 N   0  0  0  0  0  0  0  0  0  0  0  0
    1.4818    2.1859    1.0852 H   0  0  0  0  0  0  0  0  0  0  0  0
    1.3869    2.2525    3.2240 C   0  0  0  0  0  0  0  0  0  0  0  0
    2.0487    1.6173    3.8222 H   0  0  0  0  0  0  0  0  0  0  0  0
    1.8474    3.2408    3.1324 H   0  0  0  0  0  0  0  0  0  0  0  0
    0.4335    2.3632    3.7513 H   0  0  0  0  0  0  0  0  0  0  0  0
  1  2  1  0  0  0  0
  2  3  1  0  0  0  0
  2  4  1  0  0  0  0
  2  5  1  0  0  0  0
  5  6  2  0  0  0  0
  5  7  1  0  0  0  0
  7  8  1  0  0  0  0
  7  9  1  0  0  0  0
  9 10  1  0  0  0  0
  9 11  1  0  0  0  0
  9 15  1  0  0  0  0
 11 12  1  0  0  0  0
 11 13  1  0  0  0  0
 11 14  1  0  0  0  0
 15 16  2  0  0  0  0
 15 17  1  0  0  0  0
 17 18  1  0  0  0  0
 17 19  1  0  0  0  0
 19 20  1  0  0  0  0
 19 21  1  0  0  0  0
 19 22  1  0  0  0  0
M  END
$$$$

  -OEChem-11182114133D

 22 21  0     1  0  0  0  0  0999 V2000
   -2.5624   -3.5277    1.3542 H   0  0  0  0  0  0  0  0  0  0  0  0
   -2.5770   -2.4936    0.9987 C   0  0  0  0  0  0  0  0  0  0  0  0
   -2.9874   -1.8577    1.7868 H   0  0  0  0  0  0  0  0  0  0  0  0
   -3.2174   -2.4325    0.1157 H   0  0  0  0  0  0  0  0  0  0  0  0
   -1.1703   -2.0437    0.6535 C   0  0  0  0  0  0  0  0  0  0  0  0
   -0.2432   -2.8327    0.7366 O   0  0  0  0  0  0  0  0  0  0  0  0
   -0.9621   -0.7719    0.1532 N   0  0  0  0  0  0  0  0  0  0  0  0
   -1.7811   -0.1739    0.1817 H   0  0  0  0  0  0  0  0  0  0  0  0
    0.3458   -0.1079    0.2783 C   0  0  1  0  0  0  0  0  0  0  0  0
    1.1406   -0.8263    0.0478 H   0  0  0  0  0  0  0  0  0  0  0  0
    0.3954    0.9875   -0.7943 C   0  0  0  0  0  0  0  0  0  0  0  0
   -0.3731    1.7455   -0.6127 H   0  0  0  0  0  0  0  0  0  0  0  0
    1.3768    1.4719   -0.8027 H   0  0  0  0  0  0  0  0  0  0  0  0
    0.2240    0.5509   -1.7835 H   0  0  0  0  0  0  0  0  0  0  0  0
    0.6346    0.4177    1.7117 C   0  0  0  0  0  0  0  0  0  0  0  0
    0.5050   -0.3076    2.6874 O   0  0  0  0  0  0  0  0  0  0  0  0
    0.8625    1.7646    1.9437 N   0  0  0  0  0  0  0  0  0  0  0  0
    0.9469    2.3717    1.1349 H   0  0  0  0  0  0  0  0  0  0  0  0
    1.0567    2.3307    3.2740 C   0  0  0  0  0  0  0  0  0  0  0  0
    1.9166    1.8651    3.7672 H   0  0  0  0  0  0  0  0  0  0  0  0
    1.2399    3.4071    3.2037 H   0  0  0  0  0  0  0  0  0  0  0  0
    0.1670    2.1711    3.8923 H   0  0  0  0  0  0  0  0  0  0  0  0
  1  2  1  0  0  0  0
  2  3  1  0  0  0  0
  2  4  1  0  0  0  0
  2  5  1  0  0  0  0
  5  6  2  0  0  0  0
  5  7  1  0  0  0  0
  7  8  1  0  0  0  0
  7  9  1  0  0  0  0
  9 10  1  0  0  0  0
  9 11  1  0  0  0  0
  9 15  1  0  0  0  0
 11 12  1  0  0  0  0
 11 13  1  0  0  0  0
 11 14  1  0  0  0  0
 15 16  2  0  0  0  0
 15 17  1  0  0  0  0
 17 18  1  0  0  0  0
 17 19  1  0  0  0  0
 19 20  1  0  0  0  0
 19 21  1  0  0  0  0
 19 22  1  0  0  0  0
M  END
$$$$

  -OEChem-11182114133D

 22 21  0     1  0  0  0  0  0999 V2000
   -2.5918   -3.5161    1.3849 H   0  0  0  0  0  0  0  0  0  0  0  0
   -2.6031   -2.5135    0.9481 C   0  0  0  0  0  0  0  0  0  0  0  0
   -3.0944   -1.8326    1.6472 H   0  0  0  0  0  0  0  0  0  0  0  0
   -3.1695   -2.5417    0.0143 H   0  0  0  0  0  0  0  0  0  0  0  0
   -1.1847   -2.0470    0.6802 C   0  0  0  0  0  0  0  0  0  0  0  0
   -0.2564   -2.8246    0.8206 O   0  0  0  0  0  0  0  0  0  0  0  0
   -0.9664   -0.7767    0.1807 N   0  0  0  0  0  0  0  0  0  0  0  0
   -1.7905   -0.1859    0.1467 H   0  0  0  0  0  0  0  0  0  0  0  0
    0.3375   -0.1047    0.3048 C   0  0  1  0  0  0  0  0  0  0  0  0
    1.1359   -0.8212    0.0795 H   0  0  0  0  0  0  0  0  0  0  0  0
    0.3901    0.9911   -0.7669 C   0  0  0  0  0  0  0  0  0  0  0  0
   -0.4055    1.7268   -0.6140 H   0  0  0  0  0  0  0  0  0  0  0  0
    1.3567    1.5043   -0.7397 H   0  0  0  0  0  0  0  0  0  0  0  0
    0.2657    0.5493   -1.7608 H   0  0  0  0  0  0  0  0  0  0  0  0
    0.6193    0.4265    1.7353 C   0  0  0  0  0  0  0  0  0  0  0  0
    0.8204   -0.3391    2.6657 O   0  0  0  0  0  0  0  0  0  0  0  0
    0.5320    1.7797    2.0204 N   0  0  0  0  0  0  0  0  0  0  0  0
    0.3805    2.4131    1.2423 H   0  0  0  0  0  0  0  0  0  0  0  0
    0.7572    2.3361    3.3497 C   0  0  0  0  0  0  0  0  0  0  0  0
    1.7815    2.1350    3.6805 H   0  0  0  0  0  0  0  0  0  0  0  0
    0.6036    3.4193    3.3379 H   0  0  0  0  0  0  0  0  0  0  0  0
    0.0613    1.8974    4.0726 H   0  0  0  0  0  0  0  0  0  0  0  0
  1  2  1  0  0  0  0
  2  3  1  0  0  0  0
  2  4  1  0  0  0  0
  2  5  1  0  0  0  0
  5  6  2  0  0  0  0
  5  7  1  0  0  0  0
  7  8  1  0  0  0  0
  7  9  1  0  0  0  0
  9 10  1  0  0  0  0
  9 11  1  0  0  0  0
  9 15  1  0  0  0  0
 11 12  1  0  0  0  0
 11 13  1  0  0  0  0
 11 14  1  0  0  0  0
 15 16  2  0  0  0  0
 15 17  1  0  0  0  0
 17 18  1  0  0  0  0
 17 19  1  0  0  0  0
 19 20  1  0  0  0  0
 19 21  1  0  0  0  0
 19 22  1  0  0  0  0
M  END
$$$$

  -OEChem-11182114133D

 22 21  0     1  0  0  0  0  0999 V2000
   -2.6419   -3.5639    1.2852 H   0  0  0  0  0  0  0  0  0  0  0  0
   -2.6369   -2.5556    0.8613 C   0  0  0  0  0  0  0  0  0  0  0  0
   -3.2022   -1.8949    1.5227 H   0  0  0  0  0  0  0  0  0  0  0  0
   -3.1196   -2.5830   -0.1185 H   0  0  0  0  0  0  0  0  0  0  0  0
   -1.2106   -2.0566    0.7237 C   0  0  0  0  0  0  0  0  0  0  0  0
   -0.2838   -2.7985    0.9952 O   0  0  0  0  0  0  0  0  0  0  0  0
   -0.9768   -0.7878    0.2288 N   0  0  0  0  0  0  0  0  0  0  0  0
   -1.8009   -0.2165    0.0757 H   0  0  0  0  0  0  0  0  0  0  0  0
    0.3243   -0.1083    0.3440 C   0  0  1  0  0  0  0  0  0  0  0  0
    1.1228   -0.8230    0.1119 H   0  0  0  0  0  0  0  0  0  0  0  0
    0.3706    0.9947   -0.7193 C   0  0  0  0  0  0  0  0  0  0  0  0
   -0.4410    1.7143   -0.5761 H   0  0  0  0  0  0  0  0  0  0  0  0
    1.3259    1.5273   -0.6709 H   0  0  0  0  0  0  0  0  0  0  0  0
    0.2726    0.5568   -1.7177 H   0  0  0  0  0  0  0  0  0  0  0  0
    0.6136    0.4266    1.7692 C   0  0  0  0  0  0  0  0  0  0  0  0
    1.2014   -0.2560    2.5942 O   0  0  0  0  0  0  0  0  0  0  0  0
    0.2282    1.7064    2.1338 N   0  0  0  0  0  0  0  0  0  0  0  0
   -0.2198    2.2804    1.4277 H   0  0  0  0  0  0  0  0  0  0  0  0
    0.5007    2.2826    3.4454 C   0  0  0  0  0  0  0  0  0  0  0  0
    1.5801    2.3541    3.6156 H   0  0  0  0  0  0  0  0  0  0  0  0
    0.0720    3.2868    3.5144 H   0  0  0  0  0  0  0  0  0  0  0  0
    0.0602    1.6649    4.2352 H   0  0  0  0  0  0  0  0  0  0  0  0
  1  2  1  0  0  0  0
  2  3  1  0  0  0  0
  2  4  1  0  0  0  0
  2  5  1  0  0  0  0
  5  6  2  0  0  0  0
  5  7  1  0  0  0  0
  7  8  1  0  0  0  0
  7  9  1  0  0  0  0
  9 10  1  0  0  0  0
  9 11  1  0  0  0  0
  9 15  1  0  0  0  0
 11 12  1  0  0  0  0
 11 13  1  0  0  0  0
 11 14  1  0  0  0  0
 15 16  2  0  0  0  0
 15 17  1  0  0  0  0
 17 18  1  0  0  0  0
 17 19  1  0  0  0  0
 19 20  1  0  0  0  0
 19 21  1  0  0  0  0
 19 22  1  0  0  0  0
M  END
$$$$

  -OEChem-11182114133D

 22 21  0     1  0  0  0  0  0999 V2000
   -2.6787   -3.6340    1.1538 H   0  0  0  0  0  0  0  0  0  0  0  0
   -2.6640   -2.6224    0.7379 C   0  0  0  0  0  0  0  0  0  0  0  0
   -3.3472   -1.9957    1.3160 H   0  0  0  0  0  0  0  0  0  0  0  0
   -3.0046   -2.6642   -0.2994 H   0  0  0  0  0  0  0  0  0  0  0  0
   -1.2587   -2.0536    0.8007 C   0  0  0  0  0  0  0  0  0  0  0  0
   -0.3562   -2.7240    1.2668 O   0  0  0  0  0  0  0  0  0  0  0  0
   -1.0098   -0.7887    0.3051 N   0  0  0  0  0  0  0  0  0  0  0  0
   -1.8019   -0.2793   -0.0721 H   0  0  0  0  0  0  0  0  0  0  0  0
    0.2960   -0.1136    0.3903 C   0  0  1  0  0  0  0  0  0  0  0  0
    1.0818   -0.8348    0.1360 H   0  0  0  0  0  0  0  0  0  0  0  0
    0.3293    0.9996   -0.6619 C   0  0  0  0  0  0  0  0  0  0  0  0
   -0.4616    1.7341   -0.4832 H   0  0  0  0  0  0  0  0  0  0  0  0
    1.2957    1.5136   -0.6351 H   0  0  0  0  0  0  0  0  0  0  0  0
    0.1929    0.5772   -1.6624 H   0  0  0  0  0  0  0  0  0  0  0  0
    0.6253    0.4235    1.8039 C   0  0  0  0  0  0  0  0  0  0  0  0
    1.5479   -0.0473    2.4528 O   0  0  0  0  0  0  0  0  0  0  0  0
   -0.0018    1.5619    2.2824 N   0  0  0  0  0  0  0  0  0  0  0  0
   -0.7499    1.9545    1.7219 H   0  0  0  0  0  0  0  0  0  0  0  0
    0.3155    2.1702    3.5690 C   0  0  0  0  0  0  0  0  0  0  0  0
    1.3636    2.4866    3.5953 H   0  0  0  0  0  0  0  0  0  0  0  0
   -0.3146    3.0485    3.7383 H   0  0  0  0  0  0  0  0  0  0  0  0
    0.1423    1.4578    4.3825 H   0  0  0  0  0  0  0  0  0  0  0  0
  1  2  1  0  0  0  0
  2  3  1  0  0  0  0
  2  4  1  0  0  0  0
  2  5  1  0  0  0  0
  5  6  2  0  0  0  0
  5  7  1  0  0  0  0
  7  8  1  0  0  0  0
  7  9  1  0  0  0  0
  9 10  1  0  0  0  0
  9 11  1  0  0  0  0
  9 15  1  0  0  0  0
 11 12  1  0  0  0  0
 11 13  1  0  0  0  0
 11 14  1  0  0  0  0
 15 16  2  0  0  0  0
 15 17  1  0  0  0  0
 17 18  1  0  0  0  0
 17 19  1  0  0  0  0
 19 20  1  0  0  0  0
 19 21  1  0  0  0  0
 19 22  1  0  0  0  0
M  END
$$$$

  -OEChem-11182114133D

 22 21  0     1  0  0  0  0  0999 V2000
   -2.6726   -3.6702    1.0848 H   0  0  0  0  0  0  0  0  0  0  0  0
   -2.6649   -2.6582    0.6697 C   0  0  0  0  0  0  0  0  0  0  0  0
   -3.4248   -2.0626    1.1811 H   0  0  0  0  0  0  0  0  0  0  0  0
   -2.9069   -2.7138   -0.3942 H   0  0  0  0  0  0  0  0  0  0  0  0
   -1.2979   -2.0283    0.8599 C   0  0  0  0  0  0  0  0  0  0  0  0
   -0.4300   -2.6328    1.4623 O   0  0  0  0  0  0  0  0  0  0  0  0
   -1.0451   -0.7698    0.3514 N   0  0  0  0  0  0  0  0  0  0  0  0
   -1.7768   -0.3458   -0.2099 H   0  0  0  0  0  0  0  0  0  0  0  0
    0.2732   -0.1159    0.4069 C   0  0  1  0  0  0  0  0  0  0  0  0
    1.0416   -0.8490    0.1337 H   0  0  0  0  0  0  0  0  0  0  0  0
    0.2999    1.0069   -0.6335 C   0  0  0  0  0  0  0  0  0  0  0  0
   -0.4661    1.7578   -0.4176 H   0  0  0  0  0  0  0  0  0  0  0  0
    1.2784    1.4982   -0.6302 H   0  0  0  0  0  0  0  0  0  0  0  0
    0.1222    0.6016   -1.6344 H   0  0  0  0  0  0  0  0  0  0  0  0
    0.6421    0.4205    1.8086 C   0  0  0  0  0  0  0  0  0  0  0  0
    1.7427    0.1874    2.2886 O   0  0  0  0  0  0  0  0  0  0  0  0
   -0.1611    1.3687    2.4184 N   0  0  0  0  0  0  0  0  0  0  0  0
   -1.0825    1.5124    2.0198 H   0  0  0  0  0  0  0  0  0  0  0  0
    0.1469    1.9564    3.7164 C   0  0  0  0  0  0  0  0  0  0  0  0
    1.1158    2.4659    3.6872 H   0  0  0  0  0  0  0  0  0  0  0  0
   -0.6182    2.6885    3.9915 H   0  0  0  0  0  0  0  0  0  0  0  0
    0.1798    1.1811    4.4891 H   0  0  0  0  0  0  0  0  0  0  0  0
  1  2  1  0  0  0  0
  2  3  1  0  0  0  0
  2  4  1  0  0  0  0
  2  5  1  0  0  0  0
  5  6  2  0  0  0  0
  5  7  1  0  0  0  0
  7  8  1  0  0  0  0
  7  9  1  0  0  0  0
  9 10  1  0  0  0  0
  9 11  1  0  0  0  0
  9 15  1  0  0  0  0
 11 12  1  0  0  0  0
 11 13  1  0  0  0  0
 11 14  1  0  0  0  0
 15 16  2  0  0  0  0
 15 17  1  0  0  0  0
 17 18  1  0  0  0  0
 17 19  1  0  0  0  0
 19 20  1  0  0  0  0
 19 21  1  0  0  0  0
 19 22  1  0  0  0  0
M  END
$$$$

  -OEChem-11182114133D

 22 21  0     1  0  0  0  0  0999 V2000
   -2.6777   -3.6801    1.0606 H   0  0  0  0  0  0  0  0  0  0  0  0
   -2.6647   -2.6766    0.6254 C   0  0  0  0  0  0  0  0  0  0  0  0
   -3.4599   -2.0840    1.0839 H   0  0  0  0  0  0  0  0  0  0  0  0
   -2.8511   -2.7582   -0.4481 H   0  0  0  0  0  0  0  0  0  0  0  0
   -1.3197   -2.0193    0.8725 C   0  0  0  0  0  0  0  0  0  0  0  0
   -0.4726   -2.5956    1.5304 O   0  0  0  0  0  0  0  0  0  0  0  0
   -1.0644   -0.7617    0.3627 N   0  0  0  0  0  0  0  0  0  0  0  0
   -1.7638   -0.3723   -0.2618 H   0  0  0  0  0  0  0  0  0  0  0  0
    0.2614   -0.1213    0.4149 C   0  0  1  0  0  0  0  0  0  0  0  0
    1.0217   -0.8585    0.1316 H   0  0  0  0  0  0  0  0  0  0  0  0
    0.2862    1.0120   -0.6135 C   0  0  0  0  0  0  0  0  0  0  0  0
   -0.4533    1.7790   -0.3632 H   0  0  0  0  0  0  0  0  0  0  0  0
    1.2765    1.4788   -0.6336 H   0  0  0  0  0  0  0  0  0  0  0  0
    0.0682    0.6246   -1.6133 H   0  0  0  0  0  0  0  0  0  0  0  0
    0.6487    0.4110    1.8121 C   0  0  0  0  0  0  0  0  0  0  0  0
    1.8212    0.4139    2.1621 O   0  0  0  0  0  0  0  0  0  0  0  0
   -0.2749    1.1199    2.5596 N   0  0  0  0  0  0  0  0  0  0  0  0
   -1.2448    1.0329    2.2755 H   0  0  0  0  0  0  0  0  0  0  0  0
    0.0293    1.6849    3.8685 C   0  0  0  0  0  0  0  0  0  0  0  0
    0.8598    2.3953    3.7967 H   0  0  0  0  0  0  0  0  0  0  0  0
   -0.8426    2.2148    4.2637 H   0  0  0  0  0  0  0  0  0  0  0  0
    0.3038    0.8924    4.5727 H   0  0  0  0  0  0  0  0  0  0  0  0
  1  2  1  0  0  0  0
  2  3  1  0  0  0  0
  2  4  1  0  0  0  0
  2  5  1  0  0  0  0
  5  6  2  0  0  0  0
  5  7  1  0  0  0  0
  7  8  1  0  0  0  0
  7  9  1  0  0  0  0
  9 10  1  0  0  0  0
  9 11  1  0  0  0  0
  9 15  1  0  0  0  0
 11 12  1  0  0  0  0
 11 13  1  0  0  0  0
 11 14  1  0  0  0  0
 15 16  2  0  0  0  0
 15 17  1  0  0  0  0
 17 18  1  0  0  0  0
 17 19  1  0  0  0  0
 19 20  1  0  0  0  0
 19 21  1  0  0  0  0
 19 22  1  0  0  0  0
M  END
$$$$

  -OEChem-11182114133D

 22 21  0     1  0  0  0  0  0999 V2000
   -2.7001   -3.6660    1.0744 H   0  0  0  0  0  0  0  0  0  0  0  0
   -2.6661   -2.6836    0.5944 C   0  0  0  0  0  0  0  0  0  0  0  0
   -3.4816   -2.0720    0.9877 H   0  0  0  0  0  0  0  0  0  0  0  0
   -2.8027   -2.8146   -0.4818 H   0  0  0  0  0  0  0  0  0  0  0  0
   -1.3331   -2.0138    0.8715 C   0  0  0  0  0  0  0  0  0  0  0  0
   -0.5004   -2.5737    1.5613 O   0  0  0  0  0  0  0  0  0  0  0  0
   -1.0737   -0.7571    0.3622 N   0  0  0  0  0  0  0  0  0  0  0  0
   -1.7610   -0.3750   -0.2803 H   0  0  0  0  0  0  0  0  0  0  0  0
    0.2555   -0.1220    0.4167 C   0  0  1  0  0  0  0  0  0  0  0  0
    1.0138   -0.8596    0.1298 H   0  0  0  0  0  0  0  0  0  0  0  0
    0.2738    1.0142   -0.6089 C   0  0  0  0  0  0  0  0  0  0  0  0
   -0.4661    1.7785   -0.3513 H   0  0  0  0  0  0  0  0  0  0  0  0
    1.2626    1.4842   -0.6331 H   0  0  0  0  0  0  0  0  0  0  0  0
    0.0516    0.6302   -1.6091 H   0  0  0  0  0  0  0  0  0  0  0  0
    0.6533    0.4117    1.8111 C   0  0  0  0  0  0  0  0  0  0  0  0
    1.8296    0.6377    2.0628 O   0  0  0  0  0  0  0  0  0  0  0  0
   -0.3188    0.8504    2.6916 N   0  0  0  0  0  0  0  0  0  0  0  0
   -1.2666    0.5487    2.4915 H   0  0  0  0  0  0  0  0  0  0  0  0
   -0.0090    1.3645    4.0196 C   0  0  0  0  0  0  0  0  0  0  0  0
    0.6438    2.2408    3.9486 H   0  0  0  0  0  0  0  0  0  0  0  0
   -0.9277    1.6611    4.5344 H   0  0  0  0  0  0  0  0  0  0  0  0
    0.4940    0.5982    4.6189 H   0  0  0  0  0  0  0  0  0  0  0  0
  1  2  1  0  0  0  0
  2  3  1  0  0  0  0
  2  4  1  0  0  0  0
  2  5  1  0  0  0  0
  5  6  2  0  0  0  0
  5  7  1  0  0  0  0
  7  8  1  0  0  0  0
  7  9  1  0  0  0  0
  9 10  1  0  0  0  0
  9 11  1  0  0  0  0
  9 15  1  0  0  0  0
 11 12  1  0  0  0  0
 11 13  1  0  0  0  0
 11 14  1  0  0  0  0
 15 16  2  0  0  0  0
 15 17  1  0  0  0  0
 17 18  1  0  0  0  0
 17 19  1  0  0  0  0
 19 20  1  0  0  0  0
 19 21  1  0  0  0  0
 19 22  1  0  0  0  0
M  END
$$$$

  -OEChem-11182114133D

 22 21  0     1  0  0  0  0  0999 V2000
   -2.7135   -3.6578    1.0668 H   0  0  0  0  0  0  0  0  0  0  0  0
   -2.6690   -2.6843    0.5700 C   0  0  0  0  0  0  0  0  0  0  0  0
   -3.4921   -2.0653    0.9350 H   0  0  0  0  0  0  0  0  0  0  0  0
   -2.7831   -2.8340   -0.5063 H   0  0  0  0  0  0  0  0  0  0  0  0
   -1.3413   -2.0108    0.8619 C   0  0  0  0  0  0  0  0  0  0  0  0
   -0.5212   -2.5591    1.5761 O   0  0  0  0  0  0  0  0  0  0  0  0
   -1.0769   -0.7540    0.3569 N   0  0  0  0  0  0  0  0  0  0  0  0
   -1.7636   -0.3639   -0.2818 H   0  0  0  0  0  0  0  0  0  0  0  0
    0.2518   -0.1169    0.4188 C   0  0  1  0  0  0  0  0  0  0  0  0
    1.0113   -0.8537    0.1340 H   0  0  0  0  0  0  0  0  0  0  0  0
    0.2653    1.0144   -0.6133 C   0  0  0  0  0  0  0  0  0  0  0  0
   -0.4651    1.7853   -0.3481 H   0  0  0  0  0  0  0  0  0  0  0  0
    1.2569    1.4771   -0.6549 H   0  0  0  0  0  0  0  0  0  0  0  0
    0.0263    0.6282   -1.6087 H   0  0  0  0  0  0  0  0  0  0  0  0
    0.6525    0.4200    1.8134 C   0  0  0  0  0  0  0  0  0  0  0  0
    1.7787    0.8659    1.9922 O   0  0  0  0  0  0  0  0  0  0  0  0
   -0.2961    0.5718    2.8081 N   0  0  0  0  0  0  0  0  0  0  0  0
   -1.1537    0.0461    2.6722 H   0  0  0  0  0  0  0  0  0  0  0  0
    0.0367    1.0272    4.1520 C   0  0  0  0  0  0  0  0  0  0  0  0
    0.5012    2.0183    4.1181 H   0  0  0  0  0  0  0  0  0  0  0  0
   -0.8682    1.0935    4.7635 H   0  0  0  0  0  0  0  0  0  0  0  0
    0.7308    0.3290    4.6312 H   0  0  0  0  0  0  0  0  0  0  0  0
  1  2  1  0  0  0  0
  2  3  1  0  0  0  0
  2  4  1  0  0  0  0
  2  5  1  0  0  0  0
  5  6  2  0  0  0  0
  5  7  1  0  0  0  0
  7  8  1  0  0  0  0
  7  9  1  0  0  0  0
  9 10  1  0  0  0  0
  9 11  1  0  0  0  0
  9 15  1  0  0  0  0
 11 12  1  0  0  0  0
 11 13  1  0  0  0  0
 11 14  1  0  0  0  0
 15 16  2  0  0  0  0
 15 17  1  0  0  0  0
 17 18  1  0  0  0  0
 17 19  1  0  0  0  0
 19 20  1  0  0  0  0
 19 21  1  0  0  0  0
 19 22  1  0  0  0  0
M  END
$$$$

  -OEChem-11182114133D

 22 21  0     1  0  0  0  0  0999 V2000
   -2.7027   -3.6876    0.9597 H   0  0  0  0  0  0  0  0  0  0  0  0
   -2.6803   -2.6779    0.5398 C   0  0  0  0  0  0  0  0  0  0  0  0
   -3.5019   -2.0992    0.9687 H   0  0  0  0  0  0  0  0  0  0  0  0
   -2.8165   -2.7456   -0.5422 H   0  0  0  0  0  0  0  0  0  0  0  0
   -1.3555   -2.0104    0.8558 C   0  0  0  0  0  0  0  0  0  0  0  0
   -0.5592   -2.5483    1.6047 O   0  0  0  0  0  0  0  0  0  0  0  0
   -1.0777   -0.7546    0.3585 N   0  0  0  0  0  0  0  0  0  0  0  0
   -1.7641   -0.3524   -0.2729 H   0  0  0  0  0  0  0  0  0  0  0  0
    0.2510   -0.1175    0.4278 C   0  0  1  0  0  0  0  0  0  0  0  0
    1.0098   -0.8561    0.1471 H   0  0  0  0  0  0  0  0  0  0  0  0
    0.2615    1.0053   -0.6155 C   0  0  0  0  0  0  0  0  0  0  0  0
   -0.4566    1.7860   -0.3453 H   0  0  0  0  0  0  0  0  0  0  0  0
    1.2569    1.4574   -0.6777 H   0  0  0  0  0  0  0  0  0  0  0  0
    0.0028    0.6133   -1.6039 H   0  0  0  0  0  0  0  0  0  0  0  0
    0.6537    0.4198    1.8245 C   0  0  0  0  0  0  0  0  0  0  0  0
    1.6764    1.0818    1.9522 O   0  0  0  0  0  0  0  0  0  0  0  0
   -0.1988    0.2896    2.9050 N   0  0  0  0  0  0  0  0  0  0  0  0
   -0.8895   -0.4504    2.8077 H   0  0  0  0  0  0  0  0  0  0  0  0
    0.1688    0.7145    4.2497 C   0  0  0  0  0  0  0  0  0  0  0  0
    0.3911    1.7866    4.2667 H   0  0  0  0  0  0  0  0  0  0  0  0
   -0.6551    0.5235    4.9436 H   0  0  0  0  0  0  0  0  0  0  0  0
    1.0508    0.1660    4.5965 H   0  0  0  0  0  0  0  0  0  0  0  0
  1  2  1  0  0  0  0
  2  3  1  0  0  0  0
  2  4  1  0  0  0  0
  2  5  1  0  0  0  0
  5  6  2  0  0  0  0
  5  7  1  0  0  0  0
  7  8  1  0  0  0  0
  7  9  1  0  0  0  0
  9 10  1  0  0  0  0
  9 11  1  0  0  0  0
  9 15  1  0  0  0  0
 11 12  1  0  0  0  0
 11 13  1  0  0  0  0
 11 14  1  0  0  0  0
 15 16  2  0  0  0  0
 15 17  1  0  0  0  0
 17 18  1  0  0  0  0
 17 19  1  0  0  0  0
 19 20  1  0  0  0  0
 19 21  1  0  0  0  0
 19 22  1  0  0  0  0
M  END
$$$$

  -OEChem-11182114133D

 22 21  0     1  0  0  0  0  0999 V2000
   -2.7356   -3.6568    0.9991 H   0  0  0  0  0  0  0  0  0  0  0  0
   -2.6904   -2.6628    0.5448 C   0  0  0  0  0  0  0  0  0  0  0  0
   -3.5003   -2.0523    0.9518 H   0  0  0  0  0  0  0  0  0  0  0  0
   -2.8262   -2.7641   -0.5348 H   0  0  0  0  0  0  0  0  0  0  0  0
   -1.3518   -2.0140    0.8410 C   0  0  0  0  0  0  0  0  0  0  0  0
   -0.5468   -2.5702    1.5685 O   0  0  0  0  0  0  0  0  0  0  0  0
   -1.0704   -0.7537    0.3576 N   0  0  0  0  0  0  0  0  0  0  0  0
   -1.7773   -0.3212   -0.2296 H   0  0  0  0  0  0  0  0  0  0  0  0
    0.2552   -0.1097    0.4273 C   0  0  1  0  0  0  0  0  0  0  0  0
    1.0164   -0.8441    0.1423 H   0  0  0  0  0  0  0  0  0  0  0  0
    0.2563    1.0101   -0.6209 C   0  0  0  0  0  0  0  0  0  0  0  0
   -0.4626    1.7898   -0.3496 H   0  0  0  0  0  0  0  0  0  0  0  0
    1.2495    1.4656   -0.6923 H   0  0  0  0  0  0  0  0  0  0  0  0
   -0.0073    0.6139   -1.6063 H   0  0  0  0  0  0  0  0  0  0  0  0
    0.6591    0.4176    1.8301 C   0  0  0  0  0  0  0  0  0  0  0  0
    1.5299    1.2720    1.9426 O   0  0  0  0  0  0  0  0  0  0  0  0
   -0.0267    0.0125    2.9598 N   0  0  0  0  0  0  0  0  0  0  0  0
   -0.5322   -0.8664    2.8469 H   0  0  0  0  0  0  0  0  0  0  0  0
    0.3684    0.4087    4.3052 C   0  0  0  0  0  0  0  0  0  0  0  0
    0.3638    1.4996    4.4015 H   0  0  0  0  0  0  0  0  0  0  0  0
   -0.3299   -0.0033    5.0399 H   0  0  0  0  0  0  0  0  0  0  0  0
    1.3734    0.0388    4.5335 H   0  0  0  0  0  0  0  0  0  0  0  0
  1  2  1  0  0  0  0
  2  3  1  0  0  0  0
  2  4  1  0  0  0  0
  2  5  1  0  0  0  0
  5  6  2  0  0  0  0
  5  7  1  0  0  0  0
  7  8  1  0  0  0  0
  7  9  1  0  0  0  0
  9 10  1  0  0  0  0
  9 11  1  0  0  0  0
  9 15  1  0  0  0  0
 11 12  1  0  0  0  0
 11 13  1  0  0  0  0
 11 14  1  0  0  0  0
 15 16  2  0  0  0  0
 15 17  1  0  0  0  0
 17 18  1  0  0  0  0
 17 19  1  0  0  0  0
 19 20  1  0  0  0  0
 19 21  1  0  0  0  0
 19 22  1  0  0  0  0
M  END
$$$$

  -OEChem-11182114133D

 22 21  0     1  0  0  0  0  0999 V2000
   -2.7249   -3.6547    0.9951 H   0  0  0  0  0  0  0  0  0  0  0  0
   -2.6960   -2.6373    0.5947 C   0  0  0  0  0  0  0  0  0  0  0  0
   -3.4583   -2.0386    1.0992 H   0  0  0  0  0  0  0  0  0  0  0  0
   -2.9197   -2.6751   -0.4742 H   0  0  0  0  0  0  0  0  0  0  0  0
   -1.3254   -2.0268    0.8179 C   0  0  0  0  0  0  0  0  0  0  0  0
   -0.4847   -2.6266    1.4678 O   0  0  0  0  0  0  0  0  0  0  0  0
   -1.0456   -0.7622    0.3431 N   0  0  0  0  0  0  0  0  0  0  0  0
   -1.7884   -0.2837   -0.1577 H   0  0  0  0  0  0  0  0  0  0  0  0
    0.2736   -0.1068    0.4176 C   0  0  1  0  0  0  0  0  0  0  0  0
    1.0412   -0.8360    0.1372 H   0  0  0  0  0  0  0  0  0  0  0  0
    0.2753    1.0074   -0.6372 C   0  0  0  0  0  0  0  0  0  0  0  0
   -0.4468    1.7866   -0.3735 H   0  0  0  0  0  0  0  0  0  0  0  0
    1.2676    1.4651   -0.7068 H   0  0  0  0  0  0  0  0  0  0  0  0
    0.0167    0.6047   -1.6212 H   0  0  0  0  0  0  0  0  0  0  0  0
    0.6622    0.4158    1.8274 C   0  0  0  0  0  0  0  0  0  0  0  0
    1.3401    1.4281    1.9570 O   0  0  0  0  0  0  0  0  0  0  0  0
    0.1953   -0.2190    2.9627 N   0  0  0  0  0  0  0  0  0  0  0  0
   -0.1717   -1.1599    2.8065 H   0  0  0  0  0  0  0  0  0  0  0  0
    0.6036    0.1541    4.3106 C   0  0  0  0  0  0  0  0  0  0  0  0
    0.3352    1.1951    4.5187 H   0  0  0  0  0  0  0  0  0  0  0  0
    0.1032   -0.4834    5.0458 H   0  0  0  0  0  0  0  0  0  0  0  0
    1.6860    0.0383    4.4292 H   0  0  0  0  0  0  0  0  0  0  0  0
  1  2  1  0  0  0  0
  2  3  1  0  0  0  0
  2  4  1  0  0  0  0
  2  5  1  0  0  0  0
  5  6  2  0  0  0  0
  5  7  1  0  0  0  0
  7  8  1  0  0  0  0
  7  9  1  0  0  0  0
  9 10  1  0  0  0  0
  9 11  1  0  0  0  0
  9 15  1  0  0  0  0
 11 12  1  0  0  0  0
 11 13  1  0  0  0  0
 11 14  1  0  0  0  0
 15 16  2  0  0  0  0
 15 17  1  0  0  0  0
 17 18  1  0  0  0  0
 17 19  1  0  0  0  0
 19 20  1  0  0  0  0
 19 21  1  0  0  0  0
 19 22  1  0  0  0  0
M  END
$$$$

  -OEChem-11182114133D

 22 21  0     1  0  0  0  0  0999 V2000
   -2.7102   -3.6293    1.0667 H   0  0  0  0  0  0  0  0  0  0  0  0
   -2.6841   -2.6120    0.6660 C   0  0  0  0  0  0  0  0  0  0  0  0
   -3.3988   -1.9975    1.2189 H   0  0  0  0  0  0  0  0  0  0  0  0
   -2.9763   -2.6418   -0.3864 H   0  0  0  0  0  0  0  0  0  0  0  0
   -1.2889   -2.0325    0.8008 C   0  0  0  0  0  0  0  0  0  0  0  0
   -0.4120   -2.6689    1.3641 O   0  0  0  0  0  0  0  0  0  0  0  0
   -1.0199   -0.7637    0.3295 N   0  0  0  0  0  0  0  0  0  0  0  0
   -1.7949   -0.2473   -0.0761 H   0  0  0  0  0  0  0  0  0  0  0  0
    0.2959   -0.1030    0.3965 C   0  0  1  0  0  0  0  0  0  0  0  0
    1.0672   -0.8260    0.1105 H   0  0  0  0  0  0  0  0  0  0  0  0
    0.2917    1.0144   -0.6551 C   0  0  0  0  0  0  0  0  0  0  0  0
   -0.4380    1.7869   -0.3926 H   0  0  0  0  0  0  0  0  0  0  0  0
    1.2806    1.4800   -0.7180 H   0  0  0  0  0  0  0  0  0  0  0  0
    0.0399    0.6125   -1.6413 H   0  0  0  0  0  0  0  0  0  0  0  0
    0.6758    0.4080    1.8123 C   0  0  0  0  0  0  0  0  0  0  0  0
    1.1264    1.5344    1.9839 O   0  0  0  0  0  0  0  0  0  0  0  0
    0.4760   -0.4006    2.9143 N   0  0  0  0  0  0  0  0  0  0  0  0
    0.2106   -1.3679    2.7130 H   0  0  0  0  0  0  0  0  0  0  0  0
    0.8716   -0.0402    4.2687 C   0  0  0  0  0  0  0  0  0  0  0  0
    0.3618    0.8755    4.5858 H   0  0  0  0  0  0  0  0  0  0  0  0
    0.6053   -0.8418    4.9642 H   0  0  0  0  0  0  0  0  0  0  0  0
    1.9532    0.1211    4.3220 H   0  0  0  0  0  0  0  0  0  0  0  0
  1  2  1  0  0  0  0
  2  3  1  0  0  0  0
  2  4  1  0  0  0  0
  2  5  1  0  0  0  0
  5  6  2  0  0  0  0
  5  7  1  0  0  0  0
  7  8  1  0  0  0  0
  7  9  1  0  0  0  0
  9 10  1  0  0  0  0
  9 11  1  0  0  0  0
  9 15  1  0  0  0  0
 11 12  1  0  0  0  0
 11 13  1  0  0  0  0
 11 14  1  0  0  0  0
 15 16  2  0  0  0  0
 15 17  1  0  0  0  0
 17 18  1  0  0  0  0
 17 19  1  0  0  0  0
 19 20  1  0  0  0  0
 19 21  1  0  0  0  0
 19 22  1  0  0  0  0
M  END
$$$$

  -OEChem-11182114133D

 22 21  0     1  0  0  0  0  0999 V2000
   -2.6747   -3.6012    1.1597 H   0  0  0  0  0  0  0  0  0  0  0  0
   -2.6573   -2.5904    0.7425 C   0  0  0  0  0  0  0  0  0  0  0  0
   -3.3373   -1.9598    1.3203 H   0  0  0  0  0  0  0  0  0  0  0  0
   -3.0014   -2.6324   -0.2937 H   0  0  0  0  0  0  0  0  0  0  0  0
   -1.2508   -2.0251    0.7994 C   0  0  0  0  0  0  0  0  0  0  0  0
   -0.3464   -2.6790    1.2964 O   0  0  0  0  0  0  0  0  0  0  0  0
   -0.9976   -0.7544    0.3240 N   0  0  0  0  0  0  0  0  0  0  0  0
   -1.7923   -0.2147   -0.0067 H   0  0  0  0  0  0  0  0  0  0  0  0
    0.3202   -0.0992    0.3673 C   0  0  1  0  0  0  0  0  0  0  0  0
    1.0877   -0.8188    0.0625 H   0  0  0  0  0  0  0  0  0  0  0  0
    0.3007    1.0274   -0.6736 C   0  0  0  0  0  0  0  0  0  0  0  0
   -0.4426    1.7857   -0.4074 H   0  0  0  0  0  0  0  0  0  0  0  0
    1.2818    1.5100   -0.7281 H   0  0  0  0  0  0  0  0  0  0  0  0
    0.0580    0.6293   -1.6635 H   0  0  0  0  0  0  0  0  0  0  0  0
    0.7105    0.3976    1.7833 C   0  0  0  0  0  0  0  0  0  0  0  0
    0.9286    1.5816    2.0116 O   0  0  0  0  0  0  0  0  0  0  0  0
    0.8108   -0.5114    2.8179 N   0  0  0  0  0  0  0  0  0  0  0  0
    0.5883   -1.4838    2.5887 H   0  0  0  0  0  0  0  0  0  0  0  0
    1.1549   -0.1578    4.1881 C   0  0  0  0  0  0  0  0  0  0  0  0
    0.4224    0.5452    4.5978 H   0  0  0  0  0  0  0  0  0  0  0  0
    1.1648   -1.0532    4.8169 H   0  0  0  0  0  0  0  0  0  0  0  0
    2.1473    0.3029    4.2269 H   0  0  0  0  0  0  0  0  0  0  0  0
  1  2  1  0  0  0  0
  2  3  1  0  0  0  0
  2  4  1  0  0  0  0
  2  5  1  0  0  0  0
  5  6  2  0  0  0  0
  5  7  1  0  0  0  0
  7  8  1  0  0  0  0
  7  9  1  0  0  0  0
  9 10  1  0  0  0  0
  9 11  1  0  0  0  0
  9 15  1  0  0  0  0
 11 12  1  0  0  0  0
 11 13  1  0  0  0  0
 11 14  1  0  0  0  0
 15 16  2  0  0  0  0
 15 17  1  0  0  0  0
 17 18  1  0  0  0  0
 17 19  1  0  0  0  0
 19 20  1  0  0  0  0
 19 21  1  0  0  0  0
 19 22  1  0  0  0  0
M  END
$$$$

  -OEChem-11182114133D

 22 21  0     1  0  0  0  0  0999 V2000
   -2.6175   -3.5762    1.2541 H   0  0  0  0  0  0  0  0  0  0  0  0
   -2.6184   -2.5710    0.8231 C   0  0  0  0  0  0  0  0  0  0  0  0
   -3.2695   -1.9315    1.4239 H   0  0  0  0  0  0  0  0  0  0  0  0
   -3.0105   -2.6257   -0.1954 H   0  0  0  0  0  0  0  0  0  0  0  0
   -1.2098   -2.0081    0.8065 C   0  0  0  0  0  0  0  0  0  0  0  0
   -0.2808   -2.6619    1.2578 O   0  0  0  0  0  0  0  0  0  0  0  0
   -0.9774   -0.7390    0.3164 N   0  0  0  0  0  0  0  0  0  0  0  0
   -1.7861   -0.1825    0.0543 H   0  0  0  0  0  0  0  0  0  0  0  0
    0.3425   -0.0914    0.3334 C   0  0  1  0  0  0  0  0  0  0  0  0
    1.1060   -0.8094    0.0147 H   0  0  0  0  0  0  0  0  0  0  0  0
    0.3132    1.0420   -0.6994 C   0  0  0  0  0  0  0  0  0  0  0  0
   -0.4415    1.7891   -0.4328 H   0  0  0  0  0  0  0  0  0  0  0  0
    1.2885    1.5374   -0.7449 H   0  0  0  0  0  0  0  0  0  0  0  0
    0.0800    0.6471   -1.6930 H   0  0  0  0  0  0  0  0  0  0  0  0
    0.7369    0.3985    1.7478 C   0  0  0  0  0  0  0  0  0  0  0  0
    0.7085    1.5858    2.0495 O   0  0  0  0  0  0  0  0  0  0  0  0
    1.1381   -0.5304    2.6875 N   0  0  0  0  0  0  0  0  0  0  0  0
    0.9758   -1.5090    2.4367 H   0  0  0  0  0  0  0  0  0  0  0  0
    1.4305   -0.1967    4.0747 C   0  0  0  0  0  0  0  0  0  0  0  0
    0.5420    0.2141    4.5652 H   0  0  0  0  0  0  0  0  0  0  0  0
    1.7459   -1.0920    4.6190 H   0  0  0  0  0  0  0  0  0  0  0  0
    2.2373    0.5416    4.1294 H   0  0  0  0  0  0  0  0  0  0  0  0
  1  2  1  0  0  0  0
  2  3  1  0  0  0  0
  2  4  1  0  0  0  0
  2  5  1  0  0  0  0
  5  6  2  0  0  0  0
  5  7  1  0  0  0  0
  7  8  1  0  0  0  0
  7  9  1  0  0  0  0
  9 10  1  0  0  0  0
  9 11  1  0  0  0  0
  9 15  1  0  0  0  0
 11 12  1  0  0  0  0
 11 13  1  0  0  0  0
 11 14  1  0  0  0  0
 15 16  2  0  0  0  0
 15 17  1  0  0  0  0
 17 18  1  0  0  0  0
 17 19  1  0  0  0  0
 19 20  1  0  0  0  0
 19 21  1  0  0  0  0
 19 22  1  0  0  0  0
M  END
$$$$

  -OEChem-11182114133D

 22 21  0     1  0  0  0  0  0999 V2000
   -2.5612   -3.5566    1.3317 H   0  0  0  0  0  0  0  0  0  0  0  0
   -2.5809   -2.5595    0.8830 C   0  0  0  0  0  0  0  0  0  0  0  0
   -3.2017   -1.9076    1.5023 H   0  0  0  0  0  0  0  0  0  0  0  0
   -3.0213   -2.6316   -0.1144 H   0  0  0  0  0  0  0  0  0  0  0  0
   -1.1738   -2.0004    0.7897 C   0  0  0  0  0  0  0  0  0  0  0  0
   -0.2224   -2.6535    1.1945 O   0  0  0  0  0  0  0  0  0  0  0  0
   -0.9649   -0.7318    0.2876 N   0  0  0  0  0  0  0  0  0  0  0  0
   -1.7845   -0.1569    0.1133 H   0  0  0  0  0  0  0  0  0  0  0  0
    0.3533   -0.0852    0.3014 C   0  0  1  0  0  0  0  0  0  0  0  0
    1.1201   -0.7978   -0.0213 H   0  0  0  0  0  0  0  0  0  0  0  0
    0.3245    1.0580   -0.7197 C   0  0  0  0  0  0  0  0  0  0  0  0
   -0.4431    1.7934   -0.4574 H   0  0  0  0  0  0  0  0  0  0  0  0
    1.2941    1.5655   -0.7458 H   0  0  0  0  0  0  0  0  0  0  0  0
    0.1096    0.6699   -1.7200 H   0  0  0  0  0  0  0  0  0  0  0  0
    0.7283    0.4025    1.7194 C   0  0  0  0  0  0  0  0  0  0  0  0
    0.4509    1.5336    2.1008 O   0  0  0  0  0  0  0  0  0  0  0  0
    1.4091   -0.4563    2.5596 N   0  0  0  0  0  0  0  0  0  0  0  0
    1.3875   -1.4392    2.2823 H   0  0  0  0  0  0  0  0  0  0  0  0
    1.7033   -0.1343    3.9496 C   0  0  0  0  0  0  0  0  0  0  0  0
    0.7766    0.0228    4.5111 H   0  0  0  0  0  0  0  0  0  0  0  0
    2.2589   -0.9530    4.4169 H   0  0  0  0  0  0  0  0  0  0  0  0
    2.3122    0.7738    4.0123 H   0  0  0  0  0  0  0  0  0  0  0  0
  1  2  1  0  0  0  0
  2  3  1  0  0  0  0
  2  4  1  0  0  0  0
  2  5  1  0  0  0  0
  5  6  2  0  0  0  0
  5  7  1  0  0  0  0
  7  8  1  0  0  0  0
  7  9  1  0  0  0  0
  9 10  1  0  0  0  0
  9 11  1  0  0  0  0
  9 15  1  0  0  0  0
 11 12  1  0  0  0  0
 11 13  1  0  0  0  0
 11 14  1  0  0  0  0
 15 16  2  0  0  0  0
 15 17  1  0  0  0  0
 17 18  1  0  0  0  0
 17 19  1  0  0  0  0
 19 20  1  0  0  0  0
 19 21  1  0  0  0  0
 19 22  1  0  0  0  0
M  END
$$$$

  -OEChem-11182114133D

 22 21  0     1  0  0  0  0  0999 V2000
   -2.5324   -3.5448    1.3690 H   0  0  0  0  0  0  0  0  0  0  0  0
   -2.5641   -2.5477    0.9208 C   0  0  0  0  0  0  0  0  0  0  0  0
   -3.1453   -1.8886    1.5704 H   0  0  0  0  0  0  0  0  0  0  0  0
   -3.0552   -2.6146   -0.0530 H   0  0  0  0  0  0  0  0  0  0  0  0
   -1.1574   -2.0042    0.7561 C   0  0  0  0  0  0  0  0  0  0  0  0
   -0.1941   -2.6730    1.1021 O   0  0  0  0  0  0  0  0  0  0  0  0
   -0.9610   -0.7346    0.2517 N   0  0  0  0  0  0  0  0  0  0  0  0
   -1.7828   -0.1433    0.1628 H   0  0  0  0  0  0  0  0  0  0  0  0
    0.3552   -0.0858    0.2760 C   0  0  1  0  0  0  0  0  0  0  0  0
    1.1255   -0.7944   -0.0469 H   0  0  0  0  0  0  0  0  0  0  0  0
    0.3331    1.0662   -0.7338 C   0  0  0  0  0  0  0  0  0  0  0  0
   -0.4386    1.7974   -0.4722 H   0  0  0  0  0  0  0  0  0  0  0  0
    1.3016    1.5758   -0.7471 H   0  0  0  0  0  0  0  0  0  0  0  0
    0.1279    0.6857   -1.7390 H   0  0  0  0  0  0  0  0  0  0  0  0
    0.7155    0.4024    1.6965 C   0  0  0  0  0  0  0  0  0  0  0  0
    0.2009    1.4130    2.1615 O   0  0  0  0  0  0  0  0  0  0  0  0
    1.6448   -0.2990    2.4399 N   0  0  0  0  0  0  0  0  0  0  0  0
    1.8429   -1.2432    2.1125 H   0  0  0  0  0  0  0  0  0  0  0  0
    1.9517    0.0291    3.8262 C   0  0  0  0  0  0  0  0  0  0  0  0
    1.0571   -0.0676    4.4500 H   0  0  0  0  0  0  0  0  0  0  0  0
    2.7202   -0.6471    4.2129 H   0  0  0  0  0  0  0  0  0  0  0  0
    2.3263    1.0552    3.9036 H   0  0  0  0  0  0  0  0  0  0  0  0
  1  2  1  0  0  0  0
  2  3  1  0  0  0  0
  2  4  1  0  0  0  0
  2  5  1  0  0  0  0
  5  6  2  0  0  0  0
  5  7  1  0  0  0  0
  7  8  1  0  0  0  0
  7  9  1  0  0  0  0
  9 10  1  0  0  0  0
  9 11  1  0  0  0  0
  9 15  1  0  0  0  0
 11 12  1  0  0  0  0
 11 13  1  0  0  0  0
 11 14  1  0  0  0  0
 15 16  2  0  0  0  0
 15 17  1  0  0  0  0
 17 18  1  0  0  0  0
 17 19  1  0  0  0  0
 19 20  1  0  0  0  0
 19 21  1  0  0  0  0
 19 22  1  0  0  0  0
M  END
$$$$

  -OEChem-11182114133D

 22 21  0     1  0  0  0  0  0999 V2000
   -2.5229   -3.5353    1.3902 H   0  0  0  0  0  0  0  0  0  0  0  0
   -2.5578   -2.5360    0.9472 C   0  0  0  0  0  0  0  0  0  0  0  0
   -3.1028   -1.8713    1.6219 H   0  0  0  0  0  0  0  0  0  0  0  0
   -3.0873   -2.5915   -0.0068 H   0  0  0  0  0  0  0  0  0  0  0  0
   -1.1514   -2.0118    0.7291 C   0  0  0  0  0  0  0  0  0  0  0  0
   -0.1859   -2.6989    1.0278 O   0  0  0  0  0  0  0  0  0  0  0  0
   -0.9598   -0.7433    0.2206 N   0  0  0  0  0  0  0  0  0  0  0  0
   -1.7791   -0.1425    0.1977 H   0  0  0  0  0  0  0  0  0  0  0  0
    0.3546   -0.0910    0.2556 C   0  0  1  0  0  0  0  0  0  0  0  0
    1.1278   -0.7984   -0.0626 H   0  0  0  0  0  0  0  0  0  0  0  0
    0.3373    1.0675   -0.7457 C   0  0  0  0  0  0  0  0  0  0  0  0
   -0.4312    1.7998   -0.4771 H   0  0  0  0  0  0  0  0  0  0  0  0
    1.3078    1.5732   -0.7570 H   0  0  0  0  0  0  0  0  0  0  0  0
    0.1286    0.6953   -1.7535 H   0  0  0  0  0  0  0  0  0  0  0  0
    0.7042    0.4053    1.6755 C   0  0  0  0  0  0  0  0  0  0  0  0
   -0.0011    1.2434    2.2264 O   0  0  0  0  0  0  0  0  0  0  0  0
    1.8293   -0.0738    2.3193 N   0  0  0  0  0  0  0  0  0  0  0  0
    2.2542   -0.9053    1.9163 H   0  0  0  0  0  0  0  0  0  0  0  0
    2.1485    0.2649    3.7002 C   0  0  0  0  0  0  0  0  0  0  0  0
    1.3487   -0.0668    4.3705 H   0  0  0  0  0  0  0  0  0  0  0  0
    3.0801   -0.2228    4.0029 H   0  0  0  0  0  0  0  0  0  0  0  0
    2.2753    1.3470    3.8103 H   0  0  0  0  0  0  0  0  0  0  0  0
  1  2  1  0  0  0  0
  2  3  1  0  0  0  0
  2  4  1  0  0  0  0
  2  5  1  0  0  0  0
  5  6  2  0  0  0  0
  5  7  1  0  0  0  0
  7  8  1  0  0  0  0
  7  9  1  0  0  0  0
  9 10  1  0  0  0  0
  9 11  1  0  0  0  0
  9 15  1  0  0  0  0
 11 12  1  0  0  0  0
 11 13  1  0  0  0  0
 11 14  1  0  0  0  0
 15 16  2  0  0  0  0
 15 17  1  0  0  0  0
 17 18  1  0  0  0  0
 17 19  1  0  0  0  0
 19 20  1  0  0  0  0
 19 21  1  0  0  0  0
 19 22  1  0  0  0  0
M  END
$$$$

  -OEChem-11182114133D

 22 21  0     1  0  0  0  0  0999 V2000
   -2.5204   -3.5280    1.4060 H   0  0  0  0  0  0  0  0  0  0  0  0
   -2.5578   -2.5296    0.9613 C   0  0  0  0  0  0  0  0  0  0  0  0
   -3.0760   -1.8574    1.6497 H   0  0  0  0  0  0  0  0  0  0  0  0
   -3.1158   -2.5819    0.0233 H   0  0  0  0  0  0  0  0  0  0  0  0
   -1.1526   -2.0211    0.7011 C   0  0  0  0  0  0  0  0  0  0  0  0
   -0.1879   -2.7247    0.9603 O   0  0  0  0  0  0  0  0  0  0  0  0
   -0.9633   -0.7524    0.1919 N   0  0  0  0  0  0  0  0  0  0  0  0
   -1.7788   -0.1464    0.2171 H   0  0  0  0  0  0  0  0  0  0  0  0
    0.3501   -0.0981    0.2446 C   0  0  1  0  0  0  0  0  0  0  0  0
    1.1268   -0.8053   -0.0654 H   0  0  0  0  0  0  0  0  0  0  0  0
    0.3413    1.0652   -0.7495 C   0  0  0  0  0  0  0  0  0  0  0  0
   -0.4249    1.7984   -0.4772 H   0  0  0  0  0  0  0  0  0  0  0  0
    1.3141    1.5668   -0.7558 H   0  0  0  0  0  0  0  0  0  0  0  0
    0.1331    0.7001   -1.7600 H   0  0  0  0  0  0  0  0  0  0  0  0
    0.6858    0.4030    1.6662 C   0  0  0  0  0  0  0  0  0  0  0  0
   -0.1448    1.0444    2.3007 O   0  0  0  0  0  0  0  0  0  0  0  0
    1.9386    0.1837    2.2075 N   0  0  0  0  0  0  0  0  0  0  0  0
    2.5367   -0.4771    1.7195 H   0  0  0  0  0  0  0  0  0  0  0  0
    2.2853    0.5603    3.5720 C   0  0  0  0  0  0  0  0  0  0  0  0
    1.6333    0.0487    4.2877 H   0  0  0  0  0  0  0  0  0  0  0  0
    3.3218    0.2844    3.7884 H   0  0  0  0  0  0  0  0  0  0  0  0
    2.1811    1.6416    3.7097 H   0  0  0  0  0  0  0  0  0  0  0  0
  1  2  1  0  0  0  0
  2  3  1  0  0  0  0
  2  4  1  0  0  0  0
  2  5  1  0  0  0  0
  5  6  2  0  0  0  0
  5  7  1  0  0  0  0
  7  8  1  0  0  0  0
  7  9  1  0  0  0  0
  9 10  1  0  0  0  0
  9 11  1  0  0  0  0
  9 15  1  0  0  0  0
 11 12  1  0  0  0  0
 11 13  1  0  0  0  0
 11 14  1  0  0  0  0
 15 16  2  0  0  0  0
 15 17  1  0  0  0  0
 17 18  1  0  0  0  0
 17 19  1  0  0  0  0
 19 20  1  0  0  0  0
 19 21  1  0  0  0  0
 19 22  1  0  0  0  0
M  END
$$$$

  -OEChem-11182114133D

 22 21  0     1  0  0  0  0  0999 V2000
   -2.5301   -3.5380    1.3749 H   0  0  0  0  0  0  0  0  0  0  0  0
   -2.5630   -2.5236    0.9677 C   0  0  0  0  0  0  0  0  0  0  0  0
   -3.0474   -1.8677    1.6954 H   0  0  0  0  0  0  0  0  0  0  0  0
   -3.1495   -2.5321    0.0460 H   0  0  0  0  0  0  0  0  0  0  0  0
   -1.1576   -2.0295    0.6829 C   0  0  0  0  0  0  0  0  0  0  0  0
   -0.1969   -2.7473    0.9163 O   0  0  0  0  0  0  0  0  0  0  0  0
   -0.9669   -0.7617    0.1713 N   0  0  0  0  0  0  0  0  0  0  0  0
   -1.7788   -0.1532    0.2283 H   0  0  0  0  0  0  0  0  0  0  0  0
    0.3467   -0.1076    0.2420 C   0  0  1  0  0  0  0  0  0  0  0  0
    1.1266   -0.8165   -0.0554 H   0  0  0  0  0  0  0  0  0  0  0  0
    0.3476    1.0542   -0.7535 C   0  0  0  0  0  0  0  0  0  0  0  0
   -0.4124    1.7936   -0.4807 H   0  0  0  0  0  0  0  0  0  0  0  0
    1.3245    1.5477   -0.7617 H   0  0  0  0  0  0  0  0  0  0  0  0
    0.1353    0.6896   -1.7634 H   0  0  0  0  0  0  0  0  0  0  0  0
    0.6703    0.4014    1.6645 C   0  0  0  0  0  0  0  0  0  0  0  0
   -0.2269    0.8341    2.3801 O   0  0  0  0  0  0  0  0  0  0  0  0
    1.9796    0.4653    2.1045 N   0  0  0  0  0  0  0  0  0  0  0  0
    2.6823    0.0062    1.5325 H   0  0  0  0  0  0  0  0  0  0  0  0
    2.3419    0.8932    3.4500 C   0  0  0  0  0  0  0  0  0  0  0  0
    1.8964    0.2268    4.1961 H   0  0  0  0  0  0  0  0  0  0  0  0
    3.4289    0.8747    3.5735 H   0  0  0  0  0  0  0  0  0  0  0  0
    1.9919    1.9142    3.6351 H   0  0  0  0  0  0  0  0  0  0  0  0
  1  2  1  0  0  0  0
  2  3  1  0  0  0  0
  2  4  1  0  0  0  0
  2  5  1  0  0  0  0
  5  6  2  0  0  0  0
  5  7  1  0  0  0  0
  7  8  1  0  0  0  0
  7  9  1  0  0  0  0
  9 10  1  0  0  0  0
  9 11  1  0  0  0  0
  9 15  1  0  0  0  0
 11 12  1  0  0  0  0
 11 13  1  0  0  0  0
 11 14  1  0  0  0  0
 15 16  2  0  0  0  0
 15 17  1  0  0  0  0
 17 18  1  0  0  0  0
 17 19  1  0  0  0  0
 19 20  1  0  0  0  0
 19 21  1  0  0  0  0
 19 22  1  0  0  0  0
M  END
$$$$

  -OEChem-11182114133D

 22 21  0     1  0  0  0  0  0999 V2000
   -2.5437   -3.5491    1.3423 H   0  0  0  0  0  0  0  0  0  0  0  0
   -2.5711   -2.5227    0.9660 C   0  0  0  0  0  0  0  0  0  0  0  0
   -3.0322   -1.8830    1.7227 H   0  0  0  0  0  0  0  0  0  0  0  0
   -3.1757   -2.4967    0.0565 H   0  0  0  0  0  0  0  0  0  0  0  0
   -1.1652   -2.0374    0.6680 C   0  0  0  0  0  0  0  0  0  0  0  0
   -0.2087   -2.7681    0.8775 O   0  0  0  0  0  0  0  0  0  0  0  0
   -0.9707   -0.7688    0.1587 N   0  0  0  0  0  0  0  0  0  0  0  0
   -1.7814   -0.1601    0.2266 H   0  0  0  0  0  0  0  0  0  0  0  0
    0.3433   -0.1162    0.2493 C   0  0  1  0  0  0  0  0  0  0  0  0
    1.1267   -0.8263   -0.0369 H   0  0  0  0  0  0  0  0  0  0  0  0
    0.3522    1.0426   -0.7508 C   0  0  0  0  0  0  0  0  0  0  0  0
   -0.4055    1.7861   -0.4834 H   0  0  0  0  0  0  0  0  0  0  0  0
    1.3306    1.5327   -0.7603 H   0  0  0  0  0  0  0  0  0  0  0  0
    0.1408    0.6750   -1.7598 H   0  0  0  0  0  0  0  0  0  0  0  0
    0.6583    0.3965    1.6744 C   0  0  0  0  0  0  0  0  0  0  0  0
   -0.2499    0.6166    2.4690 O   0  0  0  0  0  0  0  0  0  0  0  0
    1.9510    0.7492    2.0177 N   0  0  0  0  0  0  0  0  0  0  0  0
    2.6899    0.5010    1.3667 H   0  0  0  0  0  0  0  0  0  0  0  0
    2.3158    1.2424    3.3403 C   0  0  0  0  0  0  0  0  0  0  0  0
    2.0924    0.4902    4.1043 H   0  0  0  0  0  0  0  0  0  0  0  0
    3.3858    1.4680    3.3781 H   0  0  0  0  0  0  0  0  0  0  0  0
    1.7626    2.1581    3.5744 H   0  0  0  0  0  0  0  0  0  0  0  0
  1  2  1  0  0  0  0
  2  3  1  0  0  0  0
  2  4  1  0  0  0  0
  2  5  1  0  0  0  0
  5  6  2  0  0  0  0
  5  7  1  0  0  0  0
  7  8  1  0  0  0  0
  7  9  1  0  0  0  0
  9 10  1  0  0  0  0
  9 11  1  0  0  0  0
  9 15  1  0  0  0  0
 11 12  1  0  0  0  0
 11 13  1  0  0  0  0
 11 14  1  0  0  0  0
 15 16  2  0  0  0  0
 15 17  1  0  0  0  0
 17 18  1  0  0  0  0
 17 19  1  0  0  0  0
 19 20  1  0  0  0  0
 19 21  1  0  0  0  0
 19 22  1  0  0  0  0
M  END
$$$$

  -OEChem-11182114133D

 22 21  0     1  0  0  0  0  0999 V2000
   -2.5132   -3.5675    1.3155 H   0  0  0  0  0  0  0  0  0  0  0  0
   -2.5481   -2.5255    0.9856 C   0  0  0  0  0  0  0  0  0  0  0  0
   -2.9359   -1.9116    1.8024 H   0  0  0  0  0  0  0  0  0  0  0  0
   -3.2197   -2.4485    0.1274 H   0  0  0  0  0  0  0  0  0  0  0  0
   -1.1584   -2.0529    0.6037 C   0  0  0  0  0  0  0  0  0  0  0  0
   -0.2071   -2.8161    0.6796 O   0  0  0  0  0  0  0  0  0  0  0  0
   -0.9727   -0.7715    0.1209 N   0  0  0  0  0  0  0  0  0  0  0  0
   -1.7838   -0.1709    0.2288 H   0  0  0  0  0  0  0  0  0  0  0  0
    0.3394   -0.1187    0.2534 C   0  0  1  0  0  0  0  0  0  0  0  0
    1.0876   -0.7235   -0.2702 H   0  0  0  0  0  0  0  0  0  0  0  0
    0.2338    1.2415   -0.4436 C   0  0  0  0  0  0  0  0  0  0  0  0
   -0.4796    1.8858    0.0805 H   0  0  0  0  0  0  0  0  0  0  0  0
    1.2062    1.7428   -0.4617 H   0  0  0  0  0  0  0  0  0  0  0  0
   -0.1040    1.1129   -1.4769 H   0  0  0  0  0  0  0  0  0  0  0  0
    0.8218    0.0517    1.7189 C   0  0  0  0  0  0  0  0  0  0  0  0
    0.0506   -0.1177    2.6576 O   0  0  0  0  0  0  0  0  0  0  0  0
    2.0436    0.6485    1.9779 N   0  0  0  0  0  0  0  0  0  0  0  0
    2.6792    0.7678    1.1953 H   0  0  0  0  0  0  0  0  0  0  0  0
    2.5291    0.9214    3.3256 C   0  0  0  0  0  0  0  0  0  0  0  0
    2.6062   -0.0079    3.9001 H   0  0  0  0  0  0  0  0  0  0  0  0
    3.5188    1.3863    3.2845 H   0  0  0  0  0  0  0  0  0  0  0  0
    1.8496    1.6035    3.8476 H   0  0  0  0  0  0  0  0  0  0  0  0
  1  2  1  0  0  0  0
  2  3  1  0  0  0  0
  2  4  1  0  0  0  0
  2  5  1  0  0  0  0
  5  6  2  0  0  0  0
  5  7  1  0  0  0  0
  7  8  1  0  0  0  0
  7  9  1  0  0  0  0
  9 10  1  0  0  0  0
  9 11  1  0  0  0  0
  9 15  1  0  0  0  0
 11 12  1  0  0  0  0
 11 13  1  0  0  0  0
 11 14  1  0  0  0  0
 15 16  2  0  0  0  0
 15 17  1  0  0  0  0
 17 18  1  0  0  0  0
 17 19  1  0  0  0  0
 19 20  1  0  0  0  0
 19 21  1  0  0  0  0
 19 22  1  0  0  0  0
M  END
$$$$

  -OEChem-11182114133D

 22 21  0     1  0  0  0  0  0999 V2000
   -2.5258   -3.5744    1.2847 H   0  0  0  0  0  0  0  0  0  0  0  0
   -2.5503   -2.5211    0.9922 C   0  0  0  0  0  0  0  0  0  0  0  0
   -2.9087   -1.9300    1.8386 H   0  0  0  0  0  0  0  0  0  0  0  0
   -3.2396   -2.4035    0.1529 H   0  0  0  0  0  0  0  0  0  0  0  0
   -1.1612   -2.0588    0.5959 C   0  0  0  0  0  0  0  0  0  0  0  0
   -0.2211   -2.8385    0.6295 O   0  0  0  0  0  0  0  0  0  0  0  0
   -0.9692   -0.7751    0.1200 N   0  0  0  0  0  0  0  0  0  0  0  0
   -1.7801   -0.1750    0.2291 H   0  0  0  0  0  0  0  0  0  0  0  0
    0.3424   -0.1214    0.2639 C   0  0  1  0  0  0  0  0  0  0  0  0
    1.0934   -0.7307   -0.2507 H   0  0  0  0  0  0  0  0  0  0  0  0
    0.2375    1.2271   -0.4587 C   0  0  0  0  0  0  0  0  0  0  0  0
   -0.4573    1.8902    0.0668 H   0  0  0  0  0  0  0  0  0  0  0  0
    1.2142    1.7166   -0.5122 H   0  0  0  0  0  0  0  0  0  0  0  0
   -0.1243    1.0812   -1.4815 H   0  0  0  0  0  0  0  0  0  0  0  0
    0.8295    0.0534    1.7314 C   0  0  0  0  0  0  0  0  0  0  0  0
    0.1575   -0.3444    2.6765 O   0  0  0  0  0  0  0  0  0  0  0  0
    1.8793    0.9113    2.0149 N   0  0  0  0  0  0  0  0  0  0  0  0
    2.4256    1.2555    1.2317 H   0  0  0  0  0  0  0  0  0  0  0  0
    2.3230    1.2170    3.3704 C   0  0  0  0  0  0  0  0  0  0  0  0
    2.6159    0.3005    3.8935 H   0  0  0  0  0  0  0  0  0  0  0  0
    3.1850    1.8903    3.3438 H   0  0  0  0  0  0  0  0  0  0  0  0
    1.5216    1.7044    3.9355 H   0  0  0  0  0  0  0  0  0  0  0  0
  1  2  1  0  0  0  0
  2  3  1  0  0  0  0
  2  4  1  0  0  0  0
  2  5  1  0  0  0  0
  5  6  2  0  0  0  0
  5  7  1  0  0  0  0
  7  8  1  0  0  0  0
  7  9  1  0  0  0  0
  9 10  1  0  0  0  0
  9 11  1  0  0  0  0
  9 15  1  0  0  0  0
 11 12  1  0  0  0  0
 11 13  1  0  0  0  0
 11 14  1  0  0  0  0
 15 16  2  0  0  0  0
 15 17  1  0  0  0  0
 17 18  1  0  0  0  0
 17 19  1  0  0  0  0
 19 20  1  0  0  0  0
 19 21  1  0  0  0  0
 19 22  1  0  0  0  0
M  END
$$$$

  -OEChem-11182114133D

 22 21  0     1  0  0  0  0  0999 V2000
   -2.5270   -3.5624    1.3102 H   0  0  0  0  0  0  0  0  0  0  0  0
   -2.5498   -2.5129    1.0039 C   0  0  0  0  0  0  0  0  0  0  0  0
   -2.8987   -1.9095    1.8456 H   0  0  0  0  0  0  0  0  0  0  0  0
   -3.2449   -2.4031    0.1683 H   0  0  0  0  0  0  0  0  0  0  0  0
   -1.1619   -2.0621    0.5904 C   0  0  0  0  0  0  0  0  0  0  0  0
   -0.2356   -2.8581    0.5806 O   0  0  0  0  0  0  0  0  0  0  0  0
   -0.9643   -0.7772    0.1199 N   0  0  0  0  0  0  0  0  0  0  0  0
   -1.7777   -0.1792    0.2198 H   0  0  0  0  0  0  0  0  0  0  0  0
    0.3446   -0.1184    0.2732 C   0  0  1  0  0  0  0  0  0  0  0  0
    1.0993   -0.7324   -0.2303 H   0  0  0  0  0  0  0  0  0  0  0  0
    0.2436    1.2165   -0.4766 C   0  0  0  0  0  0  0  0  0  0  0  0
   -0.4504    1.8920    0.0338 H   0  0  0  0  0  0  0  0  0  0  0  0
    1.2223    1.7009   -0.5413 H   0  0  0  0  0  0  0  0  0  0  0  0
   -0.1174    1.0507   -1.4968 H   0  0  0  0  0  0  0  0  0  0  0  0
    0.8334    0.0640    1.7421 C   0  0  0  0  0  0  0  0  0  0  0  0
    0.3255   -0.5529    2.6703 O   0  0  0  0  0  0  0  0  0  0  0  0
    1.6503    1.1321    2.0771 N   0  0  0  0  0  0  0  0  0  0  0  0
    2.0524    1.6695    1.3159 H   0  0  0  0  0  0  0  0  0  0  0  0
    2.0539    1.4402    3.4448 C   0  0  0  0  0  0  0  0  0  0  0  0
    2.5717    0.5856    3.8932 H   0  0  0  0  0  0  0  0  0  0  0  0
    2.7319    2.2989    3.4559 H   0  0  0  0  0  0  0  0  0  0  0  0
    1.1792    1.6830    4.0573 H   0  0  0  0  0  0  0  0  0  0  0  0
  1  2  1  0  0  0  0
  2  3  1  0  0  0  0
  2  4  1  0  0  0  0
  2  5  1  0  0  0  0
  5  6  2  0  0  0  0
  5  7  1  0  0  0  0
  7  8  1  0  0  0  0
  7  9  1  0  0  0  0
  9 10  1  0  0  0  0
  9 11  1  0  0  0  0
  9 15  1  0  0  0  0
 11 12  1  0  0  0  0
 11 13  1  0  0  0  0
 11 14  1  0  0  0  0
 15 16  2  0  0  0  0
 15 17  1  0  0  0  0
 17 18  1  0  0  0  0
 17 19  1  0  0  0  0
 19 20  1  0  0  0  0
 19 21  1  0  0  0  0
 19 22  1  0  0  0  0
M  END
$$$$

  -OEChem-11182114133D

 22 21  0     1  0  0  0  0  0999 V2000
   -2.5369   -3.5557    1.3163 H   0  0  0  0  0  0  0  0  0  0  0  0
   -2.5539   -2.5058    1.0103 C   0  0  0  0  0  0  0  0  0  0  0  0
   -2.9003   -1.9011    1.8519 H   0  0  0  0  0  0  0  0  0  0  0  0
   -3.2481   -2.3924    0.1745 H   0  0  0  0  0  0  0  0  0  0  0  0
   -1.1634   -2.0632    0.5969 C   0  0  0  0  0  0  0  0  0  0  0  0
   -0.2505   -2.8725    0.5592 O   0  0  0  0  0  0  0  0  0  0  0  0
   -0.9586   -0.7796    0.1264 N   0  0  0  0  0  0  0  0  0  0  0  0
   -1.7750   -0.1832    0.2083 H   0  0  0  0  0  0  0  0  0  0  0  0
    0.3458   -0.1123    0.2848 C   0  0  1  0  0  0  0  0  0  0  0  0
    1.1063   -0.7334   -0.2013 H   0  0  0  0  0  0  0  0  0  0  0  0
    0.2568    1.2062   -0.4955 C   0  0  0  0  0  0  0  0  0  0  0  0
   -0.4479    1.8926   -0.0153 H   0  0  0  0  0  0  0  0  0  0  0  0
    1.2379    1.6877   -0.5521 H   0  0  0  0  0  0  0  0  0  0  0  0
   -0.0842    1.0164   -1.5186 H   0  0  0  0  0  0  0  0  0  0  0  0
    0.8280    0.0817    1.7554 C   0  0  0  0  0  0  0  0  0  0  0  0
    0.5655   -0.7258    2.6358 O   0  0  0  0  0  0  0  0  0  0  0  0
    1.3653    1.2928    2.1633 N   0  0  0  0  0  0  0  0  0  0  0  0
    1.5554    1.9856    1.4466 H   0  0  0  0  0  0  0  0  0  0  0  0
    1.7454    1.5848    3.5415 C   0  0  0  0  0  0  0  0  0  0  0  0
    2.4849    0.8594    3.8974 H   0  0  0  0  0  0  0  0  0  0  0  0
    2.1834    2.5853    3.6094 H   0  0  0  0  0  0  0  0  0  0  0  0
    0.8694    1.5460    4.1976 H   0  0  0  0  0  0  0  0  0  0  0  0
  1  2  1  0  0  0  0
  2  3  1  0  0  0  0
  2  4  1  0  0  0  0
  2  5  1  0  0  0  0
  5  6  2  0  0  0  0
  5  7  1  0  0  0  0
  7  8  1  0  0  0  0
  7  9  1  0  0  0  0
  9 10  1  0  0  0  0
  9 11  1  0  0  0  0
  9 15  1  0  0  0  0
 11 12  1  0  0  0  0
 11 13  1  0  0  0  0
 11 14  1  0  0  0  0
 15 16  2  0  0  0  0
 15 17  1  0  0  0  0
 17 18  1  0  0  0  0
 17 19  1  0  0  0  0
 19 20  1  0  0  0  0
 19 21  1  0  0  0  0
 19 22  1  0  0  0  0
M  END
$$$$

  -OEChem-11182114133D

 22 21  0     1  0  0  0  0  0999 V2000
   -2.5573   -3.5438    1.3294 H   0  0  0  0  0  0  0  0  0  0  0  0
   -2.5679   -2.5008    1.0005 C   0  0  0  0  0  0  0  0  0  0  0  0
   -2.9382   -1.8793    1.8193 H   0  0  0  0  0  0  0  0  0  0  0  0
   -3.2397   -2.4073    0.1440 H   0  0  0  0  0  0  0  0  0  0  0  0
   -1.1675   -2.0646    0.6138 C   0  0  0  0  0  0  0  0  0  0  0  0
   -0.2617   -2.8806    0.5918 O   0  0  0  0  0  0  0  0  0  0  0  0
   -0.9523   -0.7847    0.1381 N   0  0  0  0  0  0  0  0  0  0  0  0
   -1.7729   -0.1900    0.1788 H   0  0  0  0  0  0  0  0  0  0  0  0
    0.3473   -0.1093    0.2997 C   0  0  1  0  0  0  0  0  0  0  0  0
    1.1161   -0.7332   -0.1703 H   0  0  0  0  0  0  0  0  0  0  0  0
    0.2668    1.2005   -0.4957 C   0  0  0  0  0  0  0  0  0  0  0  0
   -0.4847    1.8708   -0.0665 H   0  0  0  0  0  0  0  0  0  0  0  0
    1.2363    1.7086   -0.4967 H   0  0  0  0  0  0  0  0  0  0  0  0
   -0.0072    0.9923   -1.5350 H   0  0  0  0  0  0  0  0  0  0  0  0
    0.8108    0.0961    1.7730 C   0  0  0  0  0  0  0  0  0  0  0  0
    0.8570   -0.8252    2.5740 O   0  0  0  0  0  0  0  0  0  0  0  0
    1.0416    1.3707    2.2665 N   0  0  0  0  0  0  0  0  0  0  0  0
    0.9911    2.1427    1.6099 H   0  0  0  0  0  0  0  0  0  0  0  0
    1.4296    1.6443    3.6460 C   0  0  0  0  0  0  0  0  0  0  0  0
    2.3612    1.1237    3.8926 H   0  0  0  0  0  0  0  0  0  0  0  0
    1.5858    2.7178    3.7888 H   0  0  0  0  0  0  0  0  0  0  0  0
    0.6476    1.3137    4.3376 H   0  0  0  0  0  0  0  0  0  0  0  0
  1  2  1  0  0  0  0
  2  3  1  0  0  0  0
  2  4  1  0  0  0  0
  2  5  1  0  0  0  0
  5  6  2  0  0  0  0
  5  7  1  0  0  0  0
  7  8  1  0  0  0  0
  7  9  1  0  0  0  0
  9 10  1  0  0  0  0
  9 11  1  0  0  0  0
  9 15  1  0  0  0  0
 11 12  1  0  0  0  0
 11 13  1  0  0  0  0
 11 14  1  0  0  0  0
 15 16  2  0  0  0  0
 15 17  1  0  0  0  0
 17 18  1  0  0  0  0
 17 19  1  0  0  0  0
 19 20  1  0  0  0  0
 19 21  1  0  0  0  0
 19 22  1  0  0  0  0
M  END
$$$$

  -OEChem-11182114133D

 22 21  0     1  0  0  0  0  0999 V2000
   -2.6340   -3.5356    1.3243 H   0  0  0  0  0  0  0  0  0  0  0  0
   -2.6277   -2.5258    0.9040 C   0  0  0  0  0  0  0  0  0  0  0  0
   -3.1234   -1.8518    1.6065 H   0  0  0  0  0  0  0  0  0  0  0  0
   -3.1796   -2.5330   -0.0389 H   0  0  0  0  0  0  0  0  0  0  0  0
   -1.1997   -2.0708    0.6666 C   0  0  0  0  0  0  0  0  0  0  0  0
   -0.2865   -2.8662    0.7904 O   0  0  0  0  0  0  0  0  0  0  0  0
   -0.9592   -0.7960    0.1901 N   0  0  0  0  0  0  0  0  0  0  0  0
   -1.7829   -0.2083    0.1219 H   0  0  0  0  0  0  0  0  0  0  0  0
    0.3375   -0.1126    0.3432 C   0  0  1  0  0  0  0  0  0  0  0  0
    1.1093   -0.7371   -0.1216 H   0  0  0  0  0  0  0  0  0  0  0  0
    0.2574    1.1949   -0.4549 C   0  0  0  0  0  0  0  0  0  0  0  0
   -0.5276    1.8475   -0.0604 H   0  0  0  0  0  0  0  0  0  0  0  0
    1.2137    1.7262   -0.4118 H   0  0  0  0  0  0  0  0  0  0  0  0
    0.0341    0.9805   -1.5051 H   0  0  0  0  0  0  0  0  0  0  0  0
    0.7959    0.1039    1.8130 C   0  0  0  0  0  0  0  0  0  0  0  0
    1.2481   -0.8070    2.4884 O   0  0  0  0  0  0  0  0  0  0  0  0
    0.7216    1.3585    2.3973 N   0  0  0  0  0  0  0  0  0  0  0  0
    0.3906    2.1247    1.8209 H   0  0  0  0  0  0  0  0  0  0  0  0
    1.1784    1.6417    3.7534 C   0  0  0  0  0  0  0  0  0  0  0  0
    2.2559    1.4655    3.8383 H   0  0  0  0  0  0  0  0  0  0  0  0
    0.9763    2.6858    4.0109 H   0  0  0  0  0  0  0  0  0  0  0  0
    0.6593    1.0025    4.4755 H   0  0  0  0  0  0  0  0  0  0  0  0
  1  2  1  0  0  0  0
  2  3  1  0  0  0  0
  2  4  1  0  0  0  0
  2  5  1  0  0  0  0
  5  6  2  0  0  0  0
  5  7  1  0  0  0  0
  7  8  1  0  0  0  0
  7  9  1  0  0  0  0
  9 10  1  0  0  0  0
  9 11  1  0  0  0  0
  9 15  1  0  0  0  0
 11 12  1  0  0  0  0
 11 13  1  0  0  0  0
 11 14  1  0  0  0  0
 15 16  2  0  0  0  0
 15 17  1  0  0  0  0
 17 18  1  0  0  0  0
 17 19  1  0  0  0  0
 19 20  1  0  0  0  0
 19 21  1  0  0  0  0
 19 22  1  0  0  0  0
M  END
$$$$

  -OEChem-11182114133D

 22 21  0     1  0  0  0  0  0999 V2000
   -2.7200   -3.5996    1.1616 H   0  0  0  0  0  0  0  0  0  0  0  0
   -2.6846   -2.5848    0.7546 C   0  0  0  0  0  0  0  0  0  0  0  0
   -3.3164   -1.9384    1.3680 H   0  0  0  0  0  0  0  0  0  0  0  0
   -3.0720   -2.6019   -0.2668 H   0  0  0  0  0  0  0  0  0  0  0  0
   -1.2571   -2.0711    0.7594 C   0  0  0  0  0  0  0  0  0  0  0  0
   -0.3589   -2.7970    1.1405 O   0  0  0  0  0  0  0  0  0  0  0  0
   -0.9894   -0.8030    0.2810 N   0  0  0  0  0  0  0  0  0  0  0  0
   -1.7920   -0.2567   -0.0125 H   0  0  0  0  0  0  0  0  0  0  0  0
    0.3119   -0.1220    0.3984 C   0  0  1  0  0  0  0  0  0  0  0  0
    1.0682   -0.7504   -0.0860 H   0  0  0  0  0  0  0  0  0  0  0  0
    0.2234    1.1912   -0.3879 C   0  0  0  0  0  0  0  0  0  0  0  0
   -0.5601    1.8396    0.0154 H   0  0  0  0  0  0  0  0  0  0  0  0
    1.1786    1.7243   -0.3409 H   0  0  0  0  0  0  0  0  0  0  0  0
   -0.0030    0.9865   -1.4390 H   0  0  0  0  0  0  0  0  0  0  0  0
    0.8044    0.0987    1.8533 C   0  0  0  0  0  0  0  0  0  0  0  0
    1.6411   -0.6380    2.3537 O   0  0  0  0  0  0  0  0  0  0  0  0
    0.4682    1.2542    2.5397 N   0  0  0  0  0  0  0  0  0  0  0  0
   -0.1914    1.8860    2.0991 H   0  0  0  0  0  0  0  0  0  0  0  0
    0.9869    1.5806    3.8630 C   0  0  0  0  0  0  0  0  0  0  0  0
    2.0770    1.6811    3.8332 H   0  0  0  0  0  0  0  0  0  0  0  0
    0.5623    2.5259    4.2137 H   0  0  0  0  0  0  0  0  0  0  0  0
    0.7252    0.7961    4.5811 H   0  0  0  0  0  0  0  0  0  0  0  0
  1  2  1  0  0  0  0
  2  3  1  0  0  0  0
  2  4  1  0  0  0  0
  2  5  1  0  0  0  0
  5  6  2  0  0  0  0
  5  7  1  0  0  0  0
  7  8  1  0  0  0  0
  7  9  1  0  0  0  0
  9 10  1  0  0  0  0
  9 11  1  0  0  0  0
  9 15  1  0  0  0  0
 11 12  1  0  0  0  0
 11 13  1  0  0  0  0
 11 14  1  0  0  0  0
 15 16  2  0  0  0  0
 15 17  1  0  0  0  0
 17 18  1  0  0  0  0
 17 19  1  0  0  0  0
 19 20  1  0  0  0  0
 19 21  1  0  0  0  0
 19 22  1  0  0  0  0
M  END
$$$$

  -OEChem-11182114133D

 22 21  0     1  0  0  0  0  0999 V2000
   -2.7362   -3.6429    1.0686 H   0  0  0  0  0  0  0  0  0  0  0  0
   -2.7003   -2.6283    0.6615 C   0  0  0  0  0  0  0  0  0  0  0  0
   -3.4329   -2.0121    1.1882 H   0  0  0  0  0  0  0  0  0  0  0  0
   -2.9591   -2.6671   -0.3993 H   0  0  0  0  0  0  0  0  0  0  0  0
   -1.3101   -2.0461    0.8368 C   0  0  0  0  0  0  0  0  0  0  0  0
   -0.4497   -2.6991    1.3960 O   0  0  0  0  0  0  0  0  0  0  0  0
   -1.0312   -0.7858    0.3454 N   0  0  0  0  0  0  0  0  0  0  0  0
   -1.7759   -0.3206   -0.1634 H   0  0  0  0  0  0  0  0  0  0  0  0
    0.2838   -0.1262    0.4242 C   0  0  1  0  0  0  0  0  0  0  0  0
    1.0150   -0.7654   -0.0840 H   0  0  0  0  0  0  0  0  0  0  0  0
    0.1979    1.1971   -0.3435 C   0  0  0  0  0  0  0  0  0  0  0  0
   -0.5565    1.8571    0.0955 H   0  0  0  0  0  0  0  0  0  0  0  0
    1.1656    1.7091   -0.3189 H   0  0  0  0  0  0  0  0  0  0  0  0
   -0.0660    1.0118   -1.3893 H   0  0  0  0  0  0  0  0  0  0  0  0
    0.8192    0.0918    1.8613 C   0  0  0  0  0  0  0  0  0  0  0  0
    1.8753   -0.4178    2.2094 O   0  0  0  0  0  0  0  0  0  0  0  0
    0.2797    1.0869    2.6591 N   0  0  0  0  0  0  0  0  0  0  0  0
   -0.6003    1.4922    2.3596 H   0  0  0  0  0  0  0  0  0  0  0  0
    0.7940    1.4135    3.9836 C   0  0  0  0  0  0  0  0  0  0  0  0
    1.8389    1.7354    3.9202 H   0  0  0  0  0  0  0  0  0  0  0  0
    0.2097    2.2253    4.4273 H   0  0  0  0  0  0  0  0  0  0  0  0
    0.7332    0.5411    4.6429 H   0  0  0  0  0  0  0  0  0  0  0  0
  1  2  1  0  0  0  0
  2  3  1  0  0  0  0
  2  4  1  0  0  0  0
  2  5  1  0  0  0  0
  5  6  2  0  0  0  0
  5  7  1  0  0  0  0
  7  8  1  0  0  0  0
  7  9  1  0  0  0  0
  9 10  1  0  0  0  0
  9 11  1  0  0  0  0
  9 15  1  0  0  0  0
 11 12  1  0  0  0  0
 11 13  1  0  0  0  0
 11 14  1  0  0  0  0
 15 16  2  0  0  0  0
 15 17  1  0  0  0  0
 17 18  1  0  0  0  0
 17 19  1  0  0  0  0
 19 20  1  0  0  0  0
 19 21  1  0  0  0  0
 19 22  1  0  0  0  0
M  END
$$$$

  -OEChem-11182114133D

 22 21  0     1  0  0  0  0  0999 V2000
   -2.7273   -3.6567    1.0404 H   0  0  0  0  0  0  0  0  0  0  0  0
   -2.6979   -2.6431    0.6303 C   0  0  0  0  0  0  0  0  0  0  0  0
   -3.4682   -2.0430    1.1205 H   0  0  0  0  0  0  0  0  0  0  0  0
   -2.9085   -2.6925   -0.4406 H   0  0  0  0  0  0  0  0  0  0  0  0
   -1.3315   -2.0263    0.8642 C   0  0  0  0  0  0  0  0  0  0  0  0
   -0.4908   -2.6417    1.4929 O   0  0  0  0  0  0  0  0  0  0  0  0
   -1.0522   -0.7703    0.3620 N   0  0  0  0  0  0  0  0  0  0  0  0
   -1.7640   -0.3484   -0.2260 H   0  0  0  0  0  0  0  0  0  0  0  0
    0.2724   -0.1274    0.4238 C   0  0  1  0  0  0  0  0  0  0  0  0
    0.9900   -0.7726   -0.0961 H   0  0  0  0  0  0  0  0  0  0  0  0
    0.1928    1.2043   -0.3276 C   0  0  0  0  0  0  0  0  0  0  0  0
   -0.5332    1.8744    0.1431 H   0  0  0  0  0  0  0  0  0  0  0  0
    1.1713    1.6957   -0.3254 H   0  0  0  0  0  0  0  0  0  0  0  0
   -0.1056    1.0380   -1.3673 H   0  0  0  0  0  0  0  0  0  0  0  0
    0.8260    0.0874    1.8521 C   0  0  0  0  0  0  0  0  0  0  0  0
    1.9898   -0.1950    2.1038 O   0  0  0  0  0  0  0  0  0  0  0  0
    0.1209    0.8632    2.7557 N   0  0  0  0  0  0  0  0  0  0  0  0
   -0.8560    1.0325    2.5415 H   0  0  0  0  0  0  0  0  0  0  0  0
    0.6077    1.1508    4.0993 C   0  0  0  0  0  0  0  0  0  0  0  0
    1.5677    1.6760    4.0555 H   0  0  0  0  0  0  0  0  0  0  0  0
   -0.1065    1.7845    4.6335 H   0  0  0  0  0  0  0  0  0  0  0  0
    0.7399    0.2222    4.6646 H   0  0  0  0  0  0  0  0  0  0  0  0
  1  2  1  0  0  0  0
  2  3  1  0  0  0  0
  2  4  1  0  0  0  0
  2  5  1  0  0  0  0
  5  6  2  0  0  0  0
  5  7  1  0  0  0  0
  7  8  1  0  0  0  0
  7  9  1  0  0  0  0
  9 10  1  0  0  0  0
  9 11  1  0  0  0  0
  9 15  1  0  0  0  0
 11 12  1  0  0  0  0
 11 13  1  0  0  0  0
 11 14  1  0  0  0  0
 15 16  2  0  0  0  0
 15 17  1  0  0  0  0
 17 18  1  0  0  0  0
 17 19  1  0  0  0  0
 19 20  1  0  0  0  0
 19 21  1  0  0  0  0
 19 22  1  0  0  0  0
M  END
$$$$

  -OEChem-11182114133D

 22 21  0     1  0  0  0  0  0999 V2000
   -2.7343   -3.6548    1.0319 H   0  0  0  0  0  0  0  0  0  0  0  0
   -2.6997   -2.6469    0.6083 C   0  0  0  0  0  0  0  0  0  0  0  0
   -3.4854   -2.0442    1.0698 H   0  0  0  0  0  0  0  0  0  0  0  0
   -2.8826   -2.7123   -0.4669 H   0  0  0  0  0  0  0  0  0  0  0  0
   -1.3430   -2.0191    0.8673 C   0  0  0  0  0  0  0  0  0  0  0  0
   -0.5132   -2.6187    1.5258 O   0  0  0  0  0  0  0  0  0  0  0  0
   -1.0600   -0.7651    0.3627 N   0  0  0  0  0  0  0  0  0  0  0  0
   -1.7580   -0.3552   -0.2503 H   0  0  0  0  0  0  0  0  0  0  0  0
    0.2695   -0.1304    0.4219 C   0  0  1  0  0  0  0  0  0  0  0  0
    0.9825   -0.7753   -0.1038 H   0  0  0  0  0  0  0  0  0  0  0  0
    0.1888    1.2079   -0.3173 C   0  0  0  0  0  0  0  0  0  0  0  0
   -0.5142    1.8833    0.1806 H   0  0  0  0  0  0  0  0  0  0  0  0
    1.1736    1.6865   -0.3377 H   0  0  0  0  0  0  0  0  0  0  0  0
   -0.1403    1.0554   -1.3497 H   0  0  0  0  0  0  0  0  0  0  0  0
    0.8330    0.0850    1.8456 C   0  0  0  0  0  0  0  0  0  0  0  0
    2.0419    0.0421    2.0327 O   0  0  0  0  0  0  0  0  0  0  0  0
    0.0172    0.5939    2.8402 N   0  0  0  0  0  0  0  0  0  0  0  0
   -0.9810    0.5194    2.6759 H   0  0  0  0  0  0  0  0  0  0  0  0
    0.4877    0.8366    4.1982 C   0  0  0  0  0  0  0  0  0  0  0  0
    1.3160    1.5530    4.1957 H   0  0  0  0  0  0  0  0  0  0  0  0
   -0.3206    1.2483    4.8101 H   0  0  0  0  0  0  0  0  0  0  0  0
    0.8308   -0.0971    4.6566 H   0  0  0  0  0  0  0  0  0  0  0  0
  1  2  1  0  0  0  0
  2  3  1  0  0  0  0
  2  4  1  0  0  0  0
  2  5  1  0  0  0  0
  5  6  2  0  0  0  0
  5  7  1  0  0  0  0
  7  8  1  0  0  0  0
  7  9  1  0  0  0  0
  9 10  1  0  0  0  0
  9 11  1  0  0  0  0
  9 15  1  0  0  0  0
 11 12  1  0  0  0  0
 11 13  1  0  0  0  0
 11 14  1  0  0  0  0
 15 16  2  0  0  0  0
 15 17  1  0  0  0  0
 17 18  1  0  0  0  0
 17 19  1  0  0  0  0
 19 20  1  0  0  0  0
 19 21  1  0  0  0  0
 19 22  1  0  0  0  0
M  END
$$$$

  -OEChem-11182114133D

 22 21  0     1  0  0  0  0  0999 V2000
   -2.7444   -3.6567    0.9974 H   0  0  0  0  0  0  0  0  0  0  0  0
   -2.7085   -2.6444    0.5846 C   0  0  0  0  0  0  0  0  0  0  0  0
   -3.4956   -2.0464    1.0500 H   0  0  0  0  0  0  0  0  0  0  0  0
   -2.8882   -2.6989   -0.4919 H   0  0  0  0  0  0  0  0  0  0  0  0
   -1.3528   -2.0193    0.8551 C   0  0  0  0  0  0  0  0  0  0  0  0
   -0.5351   -2.6119    1.5350 O   0  0  0  0  0  0  0  0  0  0  0  0
   -1.0601   -0.7669    0.3526 N   0  0  0  0  0  0  0  0  0  0  0  0
   -1.7537   -0.3501   -0.2609 H   0  0  0  0  0  0  0  0  0  0  0  0
    0.2701   -0.1324    0.4241 C   0  0  1  0  0  0  0  0  0  0  0  0
    0.9873   -0.7754   -0.0981 H   0  0  0  0  0  0  0  0  0  0  0  0
    0.1827    1.2048   -0.3161 C   0  0  0  0  0  0  0  0  0  0  0  0
   -0.5218    1.8766    0.1846 H   0  0  0  0  0  0  0  0  0  0  0  0
    1.1651    1.6880   -0.3393 H   0  0  0  0  0  0  0  0  0  0  0  0
   -0.1482    1.0511   -1.3476 H   0  0  0  0  0  0  0  0  0  0  0  0
    0.8339    0.0923    1.8474 C   0  0  0  0  0  0  0  0  0  0  0  0
    2.0335    0.2867    1.9970 O   0  0  0  0  0  0  0  0  0  0  0  0
   -0.0217    0.3080    2.9124 N   0  0  0  0  0  0  0  0  0  0  0  0
   -0.9742   -0.0130    2.7739 H   0  0  0  0  0  0  0  0  0  0  0  0
    0.4560    0.4938    4.2764 C   0  0  0  0  0  0  0  0  0  0  0  0
    1.1189    1.3633    4.3367 H   0  0  0  0  0  0  0  0  0  0  0  0
   -0.3879    0.6582    4.9530 H   0  0  0  0  0  0  0  0  0  0  0  0
    1.0049   -0.3920    4.6128 H   0  0  0  0  0  0  0  0  0  0  0  0
  1  2  1  0  0  0  0
  2  3  1  0  0  0  0
  2  4  1  0  0  0  0
  2  5  1  0  0  0  0
  5  6  2  0  0  0  0
  5  7  1  0  0  0  0
  7  8  1  0  0  0  0
  7  9  1  0  0  0  0
  9 10  1  0  0  0  0
  9 11  1  0  0  0  0
  9 15  1  0  0  0  0
 11 12  1  0  0  0  0
 11 13  1  0  0  0  0
 11 14  1  0  0  0  0
 15 16  2  0  0  0  0
 15 17  1  0  0  0  0
 17 18  1  0  0  0  0
 17 19  1  0  0  0  0
 19 20  1  0  0  0  0
 19 21  1  0  0  0  0
 19 22  1  0  0  0  0
M  END
$$$$

  -OEChem-11182114133D

 22 21  0     1  0  0  0  0  0999 V2000
   -2.7831   -3.6555    0.9351 H   0  0  0  0  0  0  0  0  0  0  0  0
   -2.7297   -2.6417    0.5279 C   0  0  0  0  0  0  0  0  0  0  0  0
   -3.5251   -2.0405    0.9749 H   0  0  0  0  0  0  0  0  0  0  0  0
   -2.8815   -2.6900   -0.5532 H   0  0  0  0  0  0  0  0  0  0  0  0
   -1.3775   -2.0268    0.8355 C   0  0  0  0  0  0  0  0  0  0  0  0
   -0.5854   -2.6203    1.5448 O   0  0  0  0  0  0  0  0  0  0  0  0
   -1.0659   -0.7732    0.3497 N   0  0  0  0  0  0  0  0  0  0  0  0
   -1.7562   -0.3391   -0.2558 H   0  0  0  0  0  0  0  0  0  0  0  0
    0.2637   -0.1376    0.4391 C   0  0  1  0  0  0  0  0  0  0  0  0
    0.9839   -0.7777   -0.0815 H   0  0  0  0  0  0  0  0  0  0  0  0
    0.1688    1.1975   -0.3070 C   0  0  0  0  0  0  0  0  0  0  0  0
   -0.5264    1.8730    0.2016 H   0  0  0  0  0  0  0  0  0  0  0  0
    1.1511    1.6799   -0.3491 H   0  0  0  0  0  0  0  0  0  0  0  0
   -0.1781    1.0405   -1.3329 H   0  0  0  0  0  0  0  0  0  0  0  0
    0.8333    0.0885    1.8629 C   0  0  0  0  0  0  0  0  0  0  0  0
    1.9706    0.5251    1.9909 O   0  0  0  0  0  0  0  0  0  0  0  0
    0.0205   -0.0011    2.9777 N   0  0  0  0  0  0  0  0  0  0  0  0
   -0.7993   -0.5876    2.8489 H   0  0  0  0  0  0  0  0  0  0  0  0
    0.5325    0.1671    4.3316 C   0  0  0  0  0  0  0  0  0  0  0  0
    0.9806    1.1590    4.4524 H   0  0  0  0  0  0  0  0  0  0  0  0
   -0.2805    0.0674    5.0569 H   0  0  0  0  0  0  0  0  0  0  0  0
    1.2910   -0.5916    4.5513 H   0  0  0  0  0  0  0  0  0  0  0  0
  1  2  1  0  0  0  0
  2  3  1  0  0  0  0
  2  4  1  0  0  0  0
  2  5  1  0  0  0  0
  5  6  2  0  0  0  0
  5  7  1  0  0  0  0
  7  8  1  0  0  0  0
  7  9  1  0  0  0  0
  9 10  1  0  0  0  0
  9 11  1  0  0  0  0
  9 15  1  0  0  0  0
 11 12  1  0  0  0  0
 11 13  1  0  0  0  0
 11 14  1  0  0  0  0
 15 16  2  0  0  0  0
 15 17  1  0  0  0  0
 17 18  1  0  0  0  0
 17 19  1  0  0  0  0
 19 20  1  0  0  0  0
 19 21  1  0  0  0  0
 19 22  1  0  0  0  0
M  END
$$$$

  -OEChem-11182114133D

 22 21  0     1  0  0  0  0  0999 V2000
   -2.8203   -3.6447    0.9006 H   0  0  0  0  0  0  0  0  0  0  0  0
   -2.7535   -2.6244    0.5122 C   0  0  0  0  0  0  0  0  0  0  0  0
   -3.5227   -2.0139    0.9913 H   0  0  0  0  0  0  0  0  0  0  0  0
   -2.9345   -2.6478   -0.5652 H   0  0  0  0  0  0  0  0  0  0  0  0
   -1.3802   -2.0457    0.7960 C   0  0  0  0  0  0  0  0  0  0  0  0
   -0.5829   -2.6722    1.4717 O   0  0  0  0  0  0  0  0  0  0  0  0
   -1.0555   -0.7868    0.3337 N   0  0  0  0  0  0  0  0  0  0  0  0
   -1.7658   -0.3110   -0.2146 H   0  0  0  0  0  0  0  0  0  0  0  0
    0.2689   -0.1411    0.4442 C   0  0  1  0  0  0  0  0  0  0  0  0
    0.9975   -0.7731   -0.0746 H   0  0  0  0  0  0  0  0  0  0  0  0
    0.1633    1.1926   -0.3058 C   0  0  0  0  0  0  0  0  0  0  0  0
   -0.5244    1.8692    0.2111 H   0  0  0  0  0  0  0  0  0  0  0  0
    1.1439    1.6763   -0.3655 H   0  0  0  0  0  0  0  0  0  0  0  0
   -0.1985    1.0326   -1.3260 H   0  0  0  0  0  0  0  0  0  0  0  0
    0.8348    0.0809    1.8740 C   0  0  0  0  0  0  0  0  0  0  0  0
    1.8583    0.7385    2.0207 O   0  0  0  0  0  0  0  0  0  0  0  0
    0.1325   -0.3101    2.9986 N   0  0  0  0  0  0  0  0  0  0  0  0
   -0.5077   -1.0853    2.8300 H   0  0  0  0  0  0  0  0  0  0  0  0
    0.6672   -0.1562    4.3454 C   0  0  0  0  0  0  0  0  0  0  0  0
    0.8678    0.8986    4.5607 H   0  0  0  0  0  0  0  0  0  0  0  0
   -0.0532   -0.5259    5.0811 H   0  0  0  0  0  0  0  0  0  0  0  0
    1.5982   -0.7220    4.4546 H   0  0  0  0  0  0  0  0  0  0  0  0
  1  2  1  0  0  0  0
  2  3  1  0  0  0  0
  2  4  1  0  0  0  0
  2  5  1  0  0  0  0
  5  6  2  0  0  0  0
  5  7  1  0  0  0  0
  7  8  1  0  0  0  0
  7  9  1  0  0  0  0
  9 10  1  0  0  0  0
  9 11  1  0  0  0  0
  9 15  1  0  0  0  0
 11 12  1  0  0  0  0
 11 13  1  0  0  0  0
 11 14  1  0  0  0  0
 15 16  2  0  0  0  0
 15 17  1  0  0  0  0
 17 18  1  0  0  0  0
 17 19  1  0  0  0  0
 19 20  1  0  0  0  0
 19 21  1  0  0  0  0
 19 22  1  0  0  0  0
M  END
$$$$

  -OEChem-11182114133D

 22 21  0     1  0  0  0  0  0999 V2000
   -2.8373   -3.6275    0.9104 H   0  0  0  0  0  0  0  0  0  0  0  0
   -2.7637   -2.6027    0.5355 C   0  0  0  0  0  0  0  0  0  0  0  0
   -3.4868   -1.9805    1.0686 H   0  0  0  0  0  0  0  0  0  0  0  0
   -3.0063   -2.6011   -0.5300 H   0  0  0  0  0  0  0  0  0  0  0  0
   -1.3606   -2.0673    0.7496 C   0  0  0  0  0  0  0  0  0  0  0  0
   -0.5312   -2.7473    1.3299 O   0  0  0  0  0  0  0  0  0  0  0  0
   -1.0363   -0.8000    0.3103 N   0  0  0  0  0  0  0  0  0  0  0  0
   -1.7809   -0.2756   -0.1393 H   0  0  0  0  0  0  0  0  0  0  0  0
    0.2788   -0.1397    0.4414 C   0  0  1  0  0  0  0  0  0  0  0  0
    1.0171   -0.7638   -0.0727 H   0  0  0  0  0  0  0  0  0  0  0  0
    0.1657    1.1900   -0.3167 C   0  0  0  0  0  0  0  0  0  0  0  0
   -0.5213    1.8679    0.1996 H   0  0  0  0  0  0  0  0  0  0  0  0
    1.1445    1.6761   -0.3854 H   0  0  0  0  0  0  0  0  0  0  0  0
   -0.2011    1.0226   -1.3340 H   0  0  0  0  0  0  0  0  0  0  0  0
    0.8342    0.0752    1.8795 C   0  0  0  0  0  0  0  0  0  0  0  0
    1.7006    0.9190    2.0766 O   0  0  0  0  0  0  0  0  0  0  0  0
    0.3067   -0.5853    2.9731 N   0  0  0  0  0  0  0  0  0  0  0  0
   -0.1899   -1.4470    2.7408 H   0  0  0  0  0  0  0  0  0  0  0  0
    0.8582   -0.4566    4.3160 C   0  0  0  0  0  0  0  0  0  0  0  0
    0.8195    0.5860    4.6486 H   0  0  0  0  0  0  0  0  0  0  0  0
    0.2802   -1.0632    5.0196 H   0  0  0  0  0  0  0  0  0  0  0  0
    1.8993   -0.7953    4.3376 H   0  0  0  0  0  0  0  0  0  0  0  0
  1  2  1  0  0  0  0
  2  3  1  0  0  0  0
  2  4  1  0  0  0  0
  2  5  1  0  0  0  0
  5  6  2  0  0  0  0
  5  7  1  0  0  0  0
  7  8  1  0  0  0  0
  7  9  1  0  0  0  0
  9 10  1  0  0  0  0
  9 11  1  0  0  0  0
  9 15  1  0  0  0  0
 11 12  1  0  0  0  0
 11 13  1  0  0  0  0
 11 14  1  0  0  0  0
 15 16  2  0  0  0  0
 15 17  1  0  0  0  0
 17 18  1  0  0  0  0
 17 19  1  0  0  0  0
 19 20  1  0  0  0  0
 19 21  1  0  0  0  0
 19 22  1  0  0  0  0
M  END
$$$$

  -OEChem-11182114133D

 22 21  0     1  0  0  0  0  0999 V2000
   -2.8263   -3.6057    0.9764 H   0  0  0  0  0  0  0  0  0  0  0  0
   -2.7547   -2.5827    0.5959 C   0  0  0  0  0  0  0  0  0  0  0  0
   -3.4214   -1.9429    1.1793 H   0  0  0  0  0  0  0  0  0  0  0  0
   -3.0736   -2.5737   -0.4493 H   0  0  0  0  0  0  0  0  0  0  0  0
   -1.3271   -2.0821    0.7076 C   0  0  0  0  0  0  0  0  0  0  0  0
   -0.4625   -2.8067    1.1725 O   0  0  0  0  0  0  0  0  0  0  0  0
   -1.0141   -0.8064    0.2838 N   0  0  0  0  0  0  0  0  0  0  0  0
   -1.7913   -0.2440   -0.0495 H   0  0  0  0  0  0  0  0  0  0  0  0
    0.2941   -0.1353    0.4251 C   0  0  1  0  0  0  0  0  0  0  0  0
    1.0402   -0.7495   -0.0899 H   0  0  0  0  0  0  0  0  0  0  0  0
    0.1741    1.1952   -0.3314 C   0  0  0  0  0  0  0  0  0  0  0  0
   -0.5237    1.8658    0.1801 H   0  0  0  0  0  0  0  0  0  0  0  0
    1.1488    1.6904   -0.3907 H   0  0  0  0  0  0  0  0  0  0  0  0
   -0.1828    1.0266   -1.3521 H   0  0  0  0  0  0  0  0  0  0  0  0
    0.8372    0.0653    1.8714 C   0  0  0  0  0  0  0  0  0  0  0  0
    1.5125    1.0506    2.1448 O   0  0  0  0  0  0  0  0  0  0  0  0
    0.5334   -0.8129    2.8942 N   0  0  0  0  0  0  0  0  0  0  0  0
    0.1526   -1.7132    2.5939 H   0  0  0  0  0  0  0  0  0  0  0  0
    1.0882   -0.7058    4.2375 C   0  0  0  0  0  0  0  0  0  0  0  0
    0.8218    0.2566    4.6871 H   0  0  0  0  0  0  0  0  0  0  0  0
    0.6917   -1.5035    4.8730 H   0  0  0  0  0  0  0  0  0  0  0  0
    2.1794   -0.7927    4.2103 H   0  0  0  0  0  0  0  0  0  0  0  0
  1  2  1  0  0  0  0
  2  3  1  0  0  0  0
  2  4  1  0  0  0  0
  2  5  1  0  0  0  0
  5  6  2  0  0  0  0
  5  7  1  0  0  0  0
  7  8  1  0  0  0  0
  7  9  1  0  0  0  0
  9 10  1  0  0  0  0
  9 11  1  0  0  0  0
  9 15  1  0  0  0  0
 11 12  1  0  0  0  0
 11 13  1  0  0  0  0
 11 14  1  0  0  0  0
 15 16  2  0  0  0  0
 15 17  1  0  0  0  0
 17 18  1  0  0  0  0
 17 19  1  0  0  0  0
 19 20  1  0  0  0  0
 19 21  1  0  0  0  0
 19 22  1  0  0  0  0
M  END
$$$$

  -OEChem-11182114133D

 22 21  0     1  0  0  0  0  0999 V2000
   -2.7905   -3.5907    1.0545 H   0  0  0  0  0  0  0  0  0  0  0  0
   -2.7313   -2.5700    0.6658 C   0  0  0  0  0  0  0  0  0  0  0  0
   -3.3579   -1.9220    1.2836 H   0  0  0  0  0  0  0  0  0  0  0  0
   -3.1089   -2.5619   -0.3595 H   0  0  0  0  0  0  0  0  0  0  0  0
   -1.2950   -2.0827    0.6926 C   0  0  0  0  0  0  0  0  0  0  0  0
   -0.4056   -2.8309    1.0660 O   0  0  0  0  0  0  0  0  0  0  0  0
   -0.9990   -0.8018    0.2714 N   0  0  0  0  0  0  0  0  0  0  0  0
   -1.7954   -0.2207    0.0266 H   0  0  0  0  0  0  0  0  0  0  0  0
    0.3083   -0.1285    0.4025 C   0  0  1  0  0  0  0  0  0  0  0  0
    1.0530   -0.7369   -0.1210 H   0  0  0  0  0  0  0  0  0  0  0  0
    0.1836    1.2056   -0.3469 C   0  0  0  0  0  0  0  0  0  0  0  0
   -0.5287    1.8649    0.1593 H   0  0  0  0  0  0  0  0  0  0  0  0
    1.1537    1.7117   -0.3884 H   0  0  0  0  0  0  0  0  0  0  0  0
   -0.1579    1.0393   -1.3731 H   0  0  0  0  0  0  0  0  0  0  0  0
    0.8518    0.0551    1.8506 C   0  0  0  0  0  0  0  0  0  0  0  0
    1.3134    1.1310    2.2124 O   0  0  0  0  0  0  0  0  0  0  0  0
    0.8106   -0.9715    2.7734 N   0  0  0  0  0  0  0  0  0  0  0  0
    0.5021   -1.8808    2.4199 H   0  0  0  0  0  0  0  0  0  0  0  0
    1.3553   -0.8815    4.1213 C   0  0  0  0  0  0  0  0  0  0  0  0
    0.8719   -0.0713    4.6770 H   0  0  0  0  0  0  0  0  0  0  0  0
    1.1844   -1.8189    4.6594 H   0  0  0  0  0  0  0  0  0  0  0  0
    2.4332   -0.6926    4.0866 H   0  0  0  0  0  0  0  0  0  0  0  0
  1  2  1  0  0  0  0
  2  3  1  0  0  0  0
  2  4  1  0  0  0  0
  2  5  1  0  0  0  0
  5  6  2  0  0  0  0
  5  7  1  0  0  0  0
  7  8  1  0  0  0  0
  7  9  1  0  0  0  0
  9 10  1  0  0  0  0
  9 11  1  0  0  0  0
  9 15  1  0  0  0  0
 11 12  1  0  0  0  0
 11 13  1  0  0  0  0
 11 14  1  0  0  0  0
 15 16  2  0  0  0  0
 15 17  1  0  0  0  0
 17 18  1  0  0  0  0
 17 19  1  0  0  0  0
 19 20  1  0  0  0  0
 19 21  1  0  0  0  0
 19 22  1  0  0  0  0
M  END
$$$$

  -OEChem-11182114133D

 22 21  0     1  0  0  0  0  0999 V2000
   -2.7334   -3.5859    1.1236 H   0  0  0  0  0  0  0  0  0  0  0  0
   -2.6947   -2.5606    0.7446 C   0  0  0  0  0  0  0  0  0  0  0  0
   -3.2889   -1.9210    1.4017 H   0  0  0  0  0  0  0  0  0  0  0  0
   -3.1252   -2.5407   -0.2596 H   0  0  0  0  0  0  0  0  0  0  0  0
   -1.2590   -2.0719    0.7030 C   0  0  0  0  0  0  0  0  0  0  0  0
   -0.3504   -2.8229    1.0212 O   0  0  0  0  0  0  0  0  0  0  0  0
   -0.9840   -0.7888    0.2735 N   0  0  0  0  0  0  0  0  0  0  0  0
   -1.7911   -0.2010    0.0861 H   0  0  0  0  0  0  0  0  0  0  0  0
    0.3267   -0.1191    0.3714 C   0  0  1  0  0  0  0  0  0  0  0  0
    1.0599   -0.7248   -0.1715 H   0  0  0  0  0  0  0  0  0  0  0  0
    0.1933    1.2198   -0.3671 C   0  0  0  0  0  0  0  0  0  0  0  0
   -0.5316    1.8675    0.1365 H   0  0  0  0  0  0  0  0  0  0  0  0
    1.1585    1.7360   -0.3935 H   0  0  0  0  0  0  0  0  0  0  0  0
   -0.1361    1.0570   -1.3978 H   0  0  0  0  0  0  0  0  0  0  0  0
    0.8902    0.0488    1.8117 C   0  0  0  0  0  0  0  0  0  0  0  0
    1.1271    1.1606    2.2698 O   0  0  0  0  0  0  0  0  0  0  0  0
    1.1372   -1.0507    2.6096 N   0  0  0  0  0  0  0  0  0  0  0  0
    0.8542   -1.9576    2.2281 H   0  0  0  0  0  0  0  0  0  0  0  0
    1.6246   -0.9747    3.9803 C   0  0  0  0  0  0  0  0  0  0  0  0
    0.9125   -0.4322    4.6106 H   0  0  0  0  0  0  0  0  0  0  0  0
    1.7542   -1.9811    4.3900 H   0  0  0  0  0  0  0  0  0  0  0  0
    2.5909   -0.4606    4.0156 H   0  0  0  0  0  0  0  0  0  0  0  0
  1  2  1  0  0  0  0
  2  3  1  0  0  0  0
  2  4  1  0  0  0  0
  2  5  1  0  0  0  0
  5  6  2  0  0  0  0
  5  7  1  0  0  0  0
  7  8  1  0  0  0  0
  7  9  1  0  0  0  0
  9 10  1  0  0  0  0
  9 11  1  0  0  0  0
  9 15  1  0  0  0  0
 11 12  1  0  0  0  0
 11 13  1  0  0  0  0
 11 14  1  0  0  0  0
 15 16  2  0  0  0  0
 15 17  1  0  0  0  0
 17 18  1  0  0  0  0
 17 19  1  0  0  0  0
 19 20  1  0  0  0  0
 19 21  1  0  0  0  0
 19 22  1  0  0  0  0
M  END
$$$$

  -OEChem-11182114133D

 22 21  0     1  0  0  0  0  0999 V2000
   -2.6360   -3.5789    1.2257 H   0  0  0  0  0  0  0  0  0  0  0  0
   -2.6292   -2.5574    0.8349 C   0  0  0  0  0  0  0  0  0  0  0  0
   -3.1968   -1.9175    1.5150 H   0  0  0  0  0  0  0  0  0  0  0  0
   -3.1100   -2.5532   -0.1464 H   0  0  0  0  0  0  0  0  0  0  0  0
   -1.2038   -2.0525    0.7154 C   0  0  0  0  0  0  0  0  0  0  0  0
   -0.2691   -2.7875    0.9966 O   0  0  0  0  0  0  0  0  0  0  0  0
   -0.9646   -0.7697    0.2639 N   0  0  0  0  0  0  0  0  0  0  0  0
   -1.7825   -0.1799    0.1405 H   0  0  0  0  0  0  0  0  0  0  0  0
    0.3459   -0.1010    0.3320 C   0  0  1  0  0  0  0  0  0  0  0  0
    1.0737   -0.7028   -0.2226 H   0  0  0  0  0  0  0  0  0  0  0  0
    0.2052    1.2431   -0.3944 C   0  0  0  0  0  0  0  0  0  0  0  0
   -0.5178    1.8861    0.1180 H   0  0  0  0  0  0  0  0  0  0  0  0
    1.1694    1.7610   -0.4217 H   0  0  0  0  0  0  0  0  0  0  0  0
   -0.1317    1.0878   -1.4239 H   0  0  0  0  0  0  0  0  0  0  0  0
    0.9060    0.0584    1.7714 C   0  0  0  0  0  0  0  0  0  0  0  0
    0.9080    1.1483    2.3320 O   0  0  0  0  0  0  0  0  0  0  0  0
    1.4303   -1.0334    2.4347 N   0  0  0  0  0  0  0  0  0  0  0  0
    1.2036   -1.9417    2.0204 H   0  0  0  0  0  0  0  0  0  0  0  0
    1.8674   -0.9909    3.8238 C   0  0  0  0  0  0  0  0  0  0  0  0
    1.0275   -0.7470    4.4824 H   0  0  0  0  0  0  0  0  0  0  0  0
    2.2721   -1.9631    4.1210 H   0  0  0  0  0  0  0  0  0  0  0  0
    2.6510   -0.2375    3.9565 H   0  0  0  0  0  0  0  0  0  0  0  0
  1  2  1  0  0  0  0
  2  3  1  0  0  0  0
  2  4  1  0  0  0  0
  2  5  1  0  0  0  0
  5  6  2  0  0  0  0
  5  7  1  0  0  0  0
  7  8  1  0  0  0  0
  7  9  1  0  0  0  0
  9 10  1  0  0  0  0
  9 11  1  0  0  0  0
  9 15  1  0  0  0  0
 11 12  1  0  0  0  0
 11 13  1  0  0  0  0
 11 14  1  0  0  0  0
 15 16  2  0  0  0  0
 15 17  1  0  0  0  0
 17 18  1  0  0  0  0
 17 19  1  0  0  0  0
 19 20  1  0  0  0  0
 19 21  1  0  0  0  0
 19 22  1  0  0  0  0
M  END
$$$$

  -OEChem-11182114133D

 22 21  0     1  0  0  0  0  0999 V2000
   -2.5514   -3.5745    1.2985 H   0  0  0  0  0  0  0  0  0  0  0  0
   -2.5754   -2.5592    0.8928 C   0  0  0  0  0  0  0  0  0  0  0  0
   -3.1292   -1.9182    1.5833 H   0  0  0  0  0  0  0  0  0  0  0  0
   -3.0904   -2.5768   -0.0708 H   0  0  0  0  0  0  0  0  0  0  0  0
   -1.1636   -2.0336    0.7158 C   0  0  0  0  0  0  0  0  0  0  0  0
   -0.2048   -2.7456    0.9781 O   0  0  0  0  0  0  0  0  0  0  0  0
   -0.9583   -0.7526    0.2431 N   0  0  0  0  0  0  0  0  0  0  0  0
   -1.7826   -0.1636    0.1679 H   0  0  0  0  0  0  0  0  0  0  0  0
    0.3507   -0.0855    0.3018 C   0  0  1  0  0  0  0  0  0  0  0  0
    1.0804   -0.6841   -0.2536 H   0  0  0  0  0  0  0  0  0  0  0  0
    0.2137    1.2643   -0.4127 C   0  0  0  0  0  0  0  0  0  0  0  0
   -0.5248    1.8966    0.0908 H   0  0  0  0  0  0  0  0  0  0  0  0
    1.1739    1.7898   -0.4149 H   0  0  0  0  0  0  0  0  0  0  0  0
   -0.1018    1.1162   -1.4500 H   0  0  0  0  0  0  0  0  0  0  0  0
    0.8883    0.0706    1.7470 C   0  0  0  0  0  0  0  0  0  0  0  0
    0.6649    1.0851    2.3976 O   0  0  0  0  0  0  0  0  0  0  0  0
    1.6700   -0.9283    2.2932 N   0  0  0  0  0  0  0  0  0  0  0  0
    1.5694   -1.8374    1.8373 H   0  0  0  0  0  0  0  0  0  0  0  0
    2.1211   -0.9045    3.6785 C   0  0  0  0  0  0  0  0  0  0  0  0
    1.2649   -0.9190    4.3608 H   0  0  0  0  0  0  0  0  0  0  0  0
    2.7464   -1.7782    3.8856 H   0  0  0  0  0  0  0  0  0  0  0  0
    2.7131   -0.0042    3.8743 H   0  0  0  0  0  0  0  0  0  0  0  0
  1  2  1  0  0  0  0
  2  3  1  0  0  0  0
  2  4  1  0  0  0  0
  2  5  1  0  0  0  0
  5  6  2  0  0  0  0
  5  7  1  0  0  0  0
  7  8  1  0  0  0  0
  7  9  1  0  0  0  0
  9 10  1  0  0  0  0
  9 11  1  0  0  0  0
  9 15  1  0  0  0  0
 11 12  1  0  0  0  0
 11 13  1  0  0  0  0
 11 14  1  0  0  0  0
 15 16  2  0  0  0  0
 15 17  1  0  0  0  0
 17 18  1  0  0  0  0
 17 19  1  0  0  0  0
 19 20  1  0  0  0  0
 19 21  1  0  0  0  0
 19 22  1  0  0  0  0
M  END
$$$$

  -OEChem-11182114133D

 22 21  0     1  0  0  0  0  0999 V2000
   -2.4966   -3.5732    1.3321 H   0  0  0  0  0  0  0  0  0  0  0  0
   -2.5414   -2.5547    0.9363 C   0  0  0  0  0  0  0  0  0  0  0  0
   -3.0667   -1.9208    1.6550 H   0  0  0  0  0  0  0  0  0  0  0  0
   -3.0969   -2.5666   -0.0045 H   0  0  0  0  0  0  0  0  0  0  0  0
   -1.1401   -2.0225    0.7042 C   0  0  0  0  0  0  0  0  0  0  0  0
   -0.1673   -2.7253    0.9385 O   0  0  0  0  0  0  0  0  0  0  0  0
   -0.9582   -0.7432    0.2172 N   0  0  0  0  0  0  0  0  0  0  0  0
   -1.7836   -0.1509    0.2034 H   0  0  0  0  0  0  0  0  0  0  0  0
    0.3500   -0.0774    0.2724 C   0  0  1  0  0  0  0  0  0  0  0  0
    1.0796   -0.6759   -0.2831 H   0  0  0  0  0  0  0  0  0  0  0  0
    0.2208    1.2778   -0.4314 C   0  0  0  0  0  0  0  0  0  0  0  0
   -0.5110    1.9121    0.0794 H   0  0  0  0  0  0  0  0  0  0  0  0
    1.1850    1.7960   -0.4337 H   0  0  0  0  0  0  0  0  0  0  0  0
   -0.1004    1.1391   -1.4683 H   0  0  0  0  0  0  0  0  0  0  0  0
    0.8721    0.0788    1.7211 C   0  0  0  0  0  0  0  0  0  0  0  0
    0.4238    0.9538    2.4533 O   0  0  0  0  0  0  0  0  0  0  0  0
    1.8849   -0.7429    2.1767 N   0  0  0  0  0  0  0  0  0  0  0  0
    2.0007   -1.6074    1.6499 H   0  0  0  0  0  0  0  0  0  0  0  0
    2.3404   -0.7245    3.5608 C   0  0  0  0  0  0  0  0  0  0  0  0
    1.5274   -1.0128    4.2352 H   0  0  0  0  0  0  0  0  0  0  0  0
    3.1692   -1.4263    3.6942 H   0  0  0  0  0  0  0  0  0  0  0  0
    2.6905    0.2756    3.8373 H   0  0  0  0  0  0  0  0  0  0  0  0
  1  2  1  0  0  0  0
  2  3  1  0  0  0  0
  2  4  1  0  0  0  0
  2  5  1  0  0  0  0
  5  6  2  0  0  0  0
  5  7  1  0  0  0  0
  7  8  1  0  0  0  0
  7  9  1  0  0  0  0
  9 10  1  0  0  0  0
  9 11  1  0  0  0  0
  9 15  1  0  0  0  0
 11 12  1  0  0  0  0
 11 13  1  0  0  0  0
 11 14  1  0  0  0  0
 15 16  2  0  0  0  0
 15 17  1  0  0  0  0
 17 18  1  0  0  0  0
 17 19  1  0  0  0  0
 19 20  1  0  0  0  0
 19 21  1  0  0  0  0
 19 22  1  0  0  0  0
M  END
$$$$

  -OEChem-11182114133D

 22 21  0     1  0  0  0  0  0999 V2000
   -2.4746   -3.5654    1.3570 H   0  0  0  0  0  0  0  0  0  0  0  0
   -2.5279   -2.5451    0.9668 C   0  0  0  0  0  0  0  0  0  0  0  0
   -3.0192   -1.9101    1.7083 H   0  0  0  0  0  0  0  0  0  0  0  0
   -3.1205   -2.5489    0.0487 H   0  0  0  0  0  0  0  0  0  0  0  0
   -1.1329   -2.0220    0.6819 C   0  0  0  0  0  0  0  0  0  0  0  0
   -0.1572   -2.7306    0.8812 O   0  0  0  0  0  0  0  0  0  0  0  0
   -0.9610   -0.7443    0.1875 N   0  0  0  0  0  0  0  0  0  0  0  0
   -1.7832   -0.1490    0.2247 H   0  0  0  0  0  0  0  0  0  0  0  0
    0.3466   -0.0782    0.2494 C   0  0  1  0  0  0  0  0  0  0  0  0
    1.0775   -0.6778   -0.3029 H   0  0  0  0  0  0  0  0  0  0  0  0
    0.2232    1.2811   -0.4452 C   0  0  0  0  0  0  0  0  0  0  0  0
   -0.5018    1.9163    0.0741 H   0  0  0  0  0  0  0  0  0  0  0  0
    1.1905    1.7931   -0.4498 H   0  0  0  0  0  0  0  0  0  0  0  0
   -0.1044    1.1511   -1.4812 H   0  0  0  0  0  0  0  0  0  0  0  0
    0.8571    0.0834    1.7007 C   0  0  0  0  0  0  0  0  0  0  0  0
    0.2264    0.7686    2.4982 O   0  0  0  0  0  0  0  0  0  0  0  0
    2.0505   -0.4954    2.0891 N   0  0  0  0  0  0  0  0  0  0  0  0
    2.4010   -1.2307    1.4803 H   0  0  0  0  0  0  0  0  0  0  0  0
    2.5186   -0.4674    3.4693 C   0  0  0  0  0  0  0  0  0  0  0  0
    1.8175   -0.9983    4.1218 H   0  0  0  0  0  0  0  0  0  0  0  0
    3.4981   -0.9490    3.5453 H   0  0  0  0  0  0  0  0  0  0  0  0
    2.6158    0.5650    3.8218 H   0  0  0  0  0  0  0  0  0  0  0  0
  1  2  1  0  0  0  0
  2  3  1  0  0  0  0
  2  4  1  0  0  0  0
  2  5  1  0  0  0  0
  5  6  2  0  0  0  0
  5  7  1  0  0  0  0
  7  8  1  0  0  0  0
  7  9  1  0  0  0  0
  9 10  1  0  0  0  0
  9 11  1  0  0  0  0
  9 15  1  0  0  0  0
 11 12  1  0  0  0  0
 11 13  1  0  0  0  0
 11 14  1  0  0  0  0
 15 16  2  0  0  0  0
 15 17  1  0  0  0  0
 17 18  1  0  0  0  0
 17 19  1  0  0  0  0
 19 20  1  0  0  0  0
 19 21  1  0  0  0  0
 19 22  1  0  0  0  0
M  END
$$$$

  -OEChem-11182114133D

 22 21  0     1  0  0  0  0  0999 V2000
   -2.4781   -3.5634    1.3575 H   0  0  0  0  0  0  0  0  0  0  0  0
   -2.5308   -2.5399    0.9760 C   0  0  0  0  0  0  0  0  0  0  0  0
   -3.0009   -1.9068    1.7327 H   0  0  0  0  0  0  0  0  0  0  0  0
   -3.1422   -2.5316    0.0706 H   0  0  0  0  0  0  0  0  0  0  0  0
   -1.1375   -2.0267    0.6665 C   0  0  0  0  0  0  0  0  0  0  0  0
   -0.1644   -2.7437    0.8470 O   0  0  0  0  0  0  0  0  0  0  0  0
   -0.9663   -0.7511    0.1664 N   0  0  0  0  0  0  0  0  0  0  0  0
   -1.7860   -0.1542    0.2274 H   0  0  0  0  0  0  0  0  0  0  0  0
    0.3413   -0.0855    0.2411 C   0  0  1  0  0  0  0  0  0  0  0  0
    1.0762   -0.6877   -0.3034 H   0  0  0  0  0  0  0  0  0  0  0  0
    0.2235    1.2753   -0.4494 C   0  0  0  0  0  0  0  0  0  0  0  0
   -0.4983    1.9113    0.0736 H   0  0  0  0  0  0  0  0  0  0  0  0
    1.1928    1.7833   -0.4538 H   0  0  0  0  0  0  0  0  0  0  0  0
   -0.1062    1.1495   -1.4853 H   0  0  0  0  0  0  0  0  0  0  0  0
    0.8412    0.0857    1.6948 C   0  0  0  0  0  0  0  0  0  0  0  0
    0.0964    0.5660    2.5426 O   0  0  0  0  0  0  0  0  0  0  0  0
    2.1500   -0.2117    2.0260 N   0  0  0  0  0  0  0  0  0  0  0  0
    2.6744   -0.7567    1.3476 H   0  0  0  0  0  0  0  0  0  0  0  0
    2.6464   -0.1487    3.3949 C   0  0  0  0  0  0  0  0  0  0  0  0
    2.1068   -0.8587    4.0304 H   0  0  0  0  0  0  0  0  0  0  0  0
    3.7115   -0.3975    3.4221 H   0  0  0  0  0  0  0  0  0  0  0  0
    2.5182    0.8589    3.8044 H   0  0  0  0  0  0  0  0  0  0  0  0
  1  2  1  0  0  0  0
  2  3  1  0  0  0  0
  2  4  1  0  0  0  0
  2  5  1  0  0  0  0
  5  6  2  0  0  0  0
  5  7  1  0  0  0  0
  7  8  1  0  0  0  0
  7  9  1  0  0  0  0
  9 10  1  0  0  0  0
  9 11  1  0  0  0  0
  9 15  1  0  0  0  0
 11 12  1  0  0  0  0
 11 13  1  0  0  0  0
 11 14  1  0  0  0  0
 15 16  2  0  0  0  0
 15 17  1  0  0  0  0
 17 18  1  0  0  0  0
 17 19  1  0  0  0  0
 19 20  1  0  0  0  0
 19 21  1  0  0  0  0
 19 22  1  0  0  0  0
M  END
$$$$

  -OEChem-11182114133D

 22 21  0     1  0  0  0  0  0999 V2000
   -2.4871   -3.5579    1.3638 H   0  0  0  0  0  0  0  0  0  0  0  0
   -2.5381   -2.5363    0.9769 C   0  0  0  0  0  0  0  0  0  0  0  0
   -2.9918   -1.8951    1.7367 H   0  0  0  0  0  0  0  0  0  0  0  0
   -3.1630   -2.5289    0.0807 H   0  0  0  0  0  0  0  0  0  0  0  0
   -1.1457   -2.0351    0.6439 C   0  0  0  0  0  0  0  0  0  0  0  0
   -0.1772   -2.7646    0.7963 O   0  0  0  0  0  0  0  0  0  0  0  0
   -0.9722   -0.7583    0.1469 N   0  0  0  0  0  0  0  0  0  0  0  0
   -1.7884   -0.1597    0.2299 H   0  0  0  0  0  0  0  0  0  0  0  0
    0.3367   -0.0966    0.2411 C   0  0  1  0  0  0  0  0  0  0  0  0
    1.0761   -0.6994   -0.2964 H   0  0  0  0  0  0  0  0  0  0  0  0
    0.2252    1.2671   -0.4440 C   0  0  0  0  0  0  0  0  0  0  0  0
   -0.4995    1.9006    0.0779 H   0  0  0  0  0  0  0  0  0  0  0  0
    1.1948    1.7747   -0.4406 H   0  0  0  0  0  0  0  0  0  0  0  0
   -0.0985    1.1459   -1.4826 H   0  0  0  0  0  0  0  0  0  0  0  0
    0.8268    0.0750    1.6990 C   0  0  0  0  0  0  0  0  0  0  0  0
    0.0246    0.3398    2.5885 O   0  0  0  0  0  0  0  0  0  0  0  0
    2.1797    0.0771    1.9859 N   0  0  0  0  0  0  0  0  0  0  0  0
    2.8051   -0.2491    1.2553 H   0  0  0  0  0  0  0  0  0  0  0  0
    2.6987    0.2097    3.3418 C   0  0  0  0  0  0  0  0  0  0  0  0
    2.3450   -0.6152    3.9694 H   0  0  0  0  0  0  0  0  0  0  0  0
    3.7927    0.1936    3.3310 H   0  0  0  0  0  0  0  0  0  0  0  0
    2.3728    1.1559    3.7867 H   0  0  0  0  0  0  0  0  0  0  0  0
  1  2  1  0  0  0  0
  2  3  1  0  0  0  0
  2  4  1  0  0  0  0
  2  5  1  0  0  0  0
  5  6  2  0  0  0  0
  5  7  1  0  0  0  0
  7  8  1  0  0  0  0
  7  9  1  0  0  0  0
  9 10  1  0  0  0  0
  9 11  1  0  0  0  0
  9 15  1  0  0  0  0
 11 12  1  0  0  0  0
 11 13  1  0  0  0  0
 11 14  1  0  0  0  0
 15 16  2  0  0  0  0
 15 17  1  0  0  0  0
 17 18  1  0  0  0  0
 17 19  1  0  0  0  0
 19 20  1  0  0  0  0
 19 21  1  0  0  0  0
 19 22  1  0  0  0  0
M  END
$$$$

  -OEChem-11182114133D

 22 21  0     1  0  0  0  0  0999 V2000
   -2.4814   -3.5389    1.4070 H   0  0  0  0  0  0  0  0  0  0  0  0
   -2.5381   -2.5317    0.9848 C   0  0  0  0  0  0  0  0  0  0  0  0
   -2.9829   -1.8651    1.7279 H   0  0  0  0  0  0  0  0  0  0  0  0
   -3.1729   -2.5555    0.0959 H   0  0  0  0  0  0  0  0  0  0  0  0
   -1.1501   -2.0416    0.6191 C   0  0  0  0  0  0  0  0  0  0  0  0
   -0.1869   -2.7852    0.7320 O   0  0  0  0  0  0  0  0  0  0  0  0
   -0.9757   -0.7619    0.1285 N   0  0  0  0  0  0  0  0  0  0  0  0
   -1.7899   -0.1642    0.2314 H   0  0  0  0  0  0  0  0  0  0  0  0
    0.3342   -0.1034    0.2430 C   0  0  1  0  0  0  0  0  0  0  0  0
    1.0795   -0.7055   -0.2877 H   0  0  0  0  0  0  0  0  0  0  0  0
    0.2264    1.2613   -0.4420 C   0  0  0  0  0  0  0  0  0  0  0  0
   -0.5022    1.8933    0.0759 H   0  0  0  0  0  0  0  0  0  0  0  0
    1.1948    1.7707   -0.4342 H   0  0  0  0  0  0  0  0  0  0  0  0
   -0.0907    1.1410   -1.4826 H   0  0  0  0  0  0  0  0  0  0  0  0
    0.8170    0.0659    1.7056 C   0  0  0  0  0  0  0  0  0  0  0  0
    0.0066    0.1097    2.6257 O   0  0  0  0  0  0  0  0  0  0  0  0
    2.1401    0.3728    1.9678 N   0  0  0  0  0  0  0  0  0  0  0  0
    2.7990    0.2787    1.2011 H   0  0  0  0  0  0  0  0  0  0  0  0
    2.6574    0.5630    3.3174 C   0  0  0  0  0  0  0  0  0  0  0  0
    2.4948   -0.3368    3.9202 H   0  0  0  0  0  0  0  0  0  0  0  0
    3.7315    0.7685    3.2848 H   0  0  0  0  0  0  0  0  0  0  0  0
    2.1591    1.4082    3.8037 H   0  0  0  0  0  0  0  0  0  0  0  0
  1  2  1  0  0  0  0
  2  3  1  0  0  0  0
  2  4  1  0  0  0  0
  2  5  1  0  0  0  0
  5  6  2  0  0  0  0
  5  7  1  0  0  0  0
  7  8  1  0  0  0  0
  7  9  1  0  0  0  0
  9 10  1  0  0  0  0
  9 11  1  0  0  0  0
  9 15  1  0  0  0  0
 11 12  1  0  0  0  0
 11 13  1  0  0  0  0
 11 14  1  0  0  0  0
 15 16  2  0  0  0  0
 15 17  1  0  0  0  0
 17 18  1  0  0  0  0
 17 19  1  0  0  0  0
 19 20  1  0  0  0  0
 19 21  1  0  0  0  0
 19 22  1  0  0  0  0
M  END
$$$$

  -OEChem-11182114133D

 22 21  0     1  0  0  0  0  0999 V2000
   -2.5420   -3.5841    1.2496 H   0  0  0  0  0  0  0  0  0  0  0  0
   -2.5585   -2.5265    0.9718 C   0  0  0  0  0  0  0  0  0  0  0  0
   -2.8891   -1.9428    1.8343 H   0  0  0  0  0  0  0  0  0  0  0  0
   -3.2646   -2.3871    0.1500 H   0  0  0  0  0  0  0  0  0  0  0  0
   -1.1725   -2.0780    0.5497 C   0  0  0  0  0  0  0  0  0  0  0  0
   -0.2505   -2.8789    0.5130 O   0  0  0  0  0  0  0  0  0  0  0  0
   -0.9663   -0.7866    0.1016 N   0  0  0  0  0  0  0  0  0  0  0  0
   -1.7737   -0.1842    0.2225 H   0  0  0  0  0  0  0  0  0  0  0  0
    0.3457   -0.1361    0.2668 C   0  0  1  0  0  0  0  0  0  0  0  0
    1.0330   -0.5729   -0.4650 H   0  0  0  0  0  0  0  0  0  0  0  0
    0.1434    1.3467   -0.0649 C   0  0  0  0  0  0  0  0  0  0  0  0
   -0.5152    1.8165    0.6729 H   0  0  0  0  0  0  0  0  0  0  0  0
    1.1000    1.8779   -0.0633 H   0  0  0  0  0  0  0  0  0  0  0  0
   -0.3056    1.4571   -1.0571 H   0  0  0  0  0  0  0  0  0  0  0  0
    1.0141   -0.2898    1.6630 C   0  0  0  0  0  0  0  0  0  0  0  0
    0.3576   -0.6256    2.6432 O   0  0  0  0  0  0  0  0  0  0  0  0
    2.2507    0.2893    1.8932 N   0  0  0  0  0  0  0  0  0  0  0  0
    2.7862    0.5817    1.0820 H   0  0  0  0  0  0  0  0  0  0  0  0
    2.8916    0.3136    3.2030 C   0  0  0  0  0  0  0  0  0  0  0  0
    3.0271   -0.7049    3.5818 H   0  0  0  0  0  0  0  0  0  0  0  0
    3.8735    0.7911    3.1347 H   0  0  0  0  0  0  0  0  0  0  0  0
    2.2828    0.8775    3.9176 H   0  0  0  0  0  0  0  0  0  0  0  0
  1  2  1  0  0  0  0
  2  3  1  0  0  0  0
  2  4  1  0  0  0  0
  2  5  1  0  0  0  0
  5  6  2  0  0  0  0
  5  7  1  0  0  0  0
  7  8  1  0  0  0  0
  7  9  1  0  0  0  0
  9 10  1  0  0  0  0
  9 11  1  0  0  0  0
  9 15  1  0  0  0  0
 11 12  1  0  0  0  0
 11 13  1  0  0  0  0
 11 14  1  0  0  0  0
 15 16  2  0  0  0  0
 15 17  1  0  0  0  0
 17 18  1  0  0  0  0
 17 19  1  0  0  0  0
 19 20  1  0  0  0  0
 19 21  1  0  0  0  0
 19 22  1  0  0  0  0
M  END
$$$$

  -OEChem-11182114133D

 22 21  0     1  0  0  0  0  0999 V2000
   -2.5598   -3.5844    1.2274 H   0  0  0  0  0  0  0  0  0  0  0  0
   -2.5616   -2.5199    0.9772 C   0  0  0  0  0  0  0  0  0  0  0  0
   -2.8633   -1.9526    1.8611 H   0  0  0  0  0  0  0  0  0  0  0  0
   -3.2817   -2.3467    0.1741 H   0  0  0  0  0  0  0  0  0  0  0  0
   -1.1759   -2.0867    0.5384 C   0  0  0  0  0  0  0  0  0  0  0  0
   -0.2747   -2.9059    0.4469 O   0  0  0  0  0  0  0  0  0  0  0  0
   -0.9575   -0.7935    0.1021 N   0  0  0  0  0  0  0  0  0  0  0  0
   -1.7630   -0.1897    0.2270 H   0  0  0  0  0  0  0  0  0  0  0  0
    0.3542   -0.1435    0.2804 C   0  0  1  0  0  0  0  0  0  0  0  0
    1.0446   -0.5847   -0.4461 H   0  0  0  0  0  0  0  0  0  0  0  0
    0.1430    1.3336   -0.0783 C   0  0  0  0  0  0  0  0  0  0  0  0
   -0.4931    1.8204    0.6682 H   0  0  0  0  0  0  0  0  0  0  0  0
    1.0982    1.8649   -0.1222 H   0  0  0  0  0  0  0  0  0  0  0  0
   -0.3367    1.4220   -1.0584 H   0  0  0  0  0  0  0  0  0  0  0  0
    1.0339   -0.2897    1.6767 C   0  0  0  0  0  0  0  0  0  0  0  0
    0.4744   -0.8539    2.6098 O   0  0  0  0  0  0  0  0  0  0  0  0
    2.0973    0.5358    2.0055 N   0  0  0  0  0  0  0  0  0  0  0  0
    2.5435    1.0445    1.2492 H   0  0  0  0  0  0  0  0  0  0  0  0
    2.6933    0.5923    3.3358 C   0  0  0  0  0  0  0  0  0  0  0  0
    3.0426   -0.3996    3.6419 H   0  0  0  0  0  0  0  0  0  0  0  0
    3.5480    1.2754    3.3388 H   0  0  0  0  0  0  0  0  0  0  0  0
    1.9627    0.9504    4.0686 H   0  0  0  0  0  0  0  0  0  0  0  0
  1  2  1  0  0  0  0
  2  3  1  0  0  0  0
  2  4  1  0  0  0  0
  2  5  1  0  0  0  0
  5  6  2  0  0  0  0
  5  7  1  0  0  0  0
  7  8  1  0  0  0  0
  7  9  1  0  0  0  0
  9 10  1  0  0  0  0
  9 11  1  0  0  0  0
  9 15  1  0  0  0  0
 11 12  1  0  0  0  0
 11 13  1  0  0  0  0
 11 14  1  0  0  0  0
 15 16  2  0  0  0  0
 15 17  1  0  0  0  0
 17 18  1  0  0  0  0
 17 19  1  0  0  0  0
 19 20  1  0  0  0  0
 19 21  1  0  0  0  0
 19 22  1  0  0  0  0
M  END
$$$$

  -OEChem-11182114133D

 22 21  0     1  0  0  0  0  0999 V2000
   -2.5601   -3.5738    1.2525 H   0  0  0  0  0  0  0  0  0  0  0  0
   -2.5575   -2.5103    0.9974 C   0  0  0  0  0  0  0  0  0  0  0  0
   -2.8396   -1.9371    1.8839 H   0  0  0  0  0  0  0  0  0  0  0  0
   -3.2895   -2.3350    0.2058 H   0  0  0  0  0  0  0  0  0  0  0  0
   -1.1757   -2.0921    0.5327 C   0  0  0  0  0  0  0  0  0  0  0  0
   -0.2997   -2.9289    0.3821 O   0  0  0  0  0  0  0  0  0  0  0  0
   -0.9485   -0.7986    0.1019 N   0  0  0  0  0  0  0  0  0  0  0  0
   -1.7559   -0.1966    0.2205 H   0  0  0  0  0  0  0  0  0  0  0  0
    0.3581   -0.1394    0.2925 C   0  0  1  0  0  0  0  0  0  0  0  0
    1.0564   -0.5908   -0.4203 H   0  0  0  0  0  0  0  0  0  0  0  0
    0.1472    1.3271   -0.1106 C   0  0  0  0  0  0  0  0  0  0  0  0
   -0.4863    1.8388    0.6211 H   0  0  0  0  0  0  0  0  0  0  0  0
    1.1034    1.8543   -0.1774 H   0  0  0  0  0  0  0  0  0  0  0  0
   -0.3352    1.3850   -1.0917 H   0  0  0  0  0  0  0  0  0  0  0  0
    1.0407   -0.2684    1.6930 C   0  0  0  0  0  0  0  0  0  0  0  0
    0.6660   -1.0718    2.5368 O   0  0  0  0  0  0  0  0  0  0  0  0
    1.8695    0.7453    2.1491 N   0  0  0  0  0  0  0  0  0  0  0  0
    2.1540    1.4527    1.4797 H   0  0  0  0  0  0  0  0  0  0  0  0
    2.4354    0.7843    3.4936 C   0  0  0  0  0  0  0  0  0  0  0  0
    3.0094   -0.1265    3.6945 H   0  0  0  0  0  0  0  0  0  0  0  0
    3.1045    1.6438    3.5978 H   0  0  0  0  0  0  0  0  0  0  0  0
    1.6407    0.8719    4.2420 H   0  0  0  0  0  0  0  0  0  0  0  0
  1  2  1  0  0  0  0
  2  3  1  0  0  0  0
  2  4  1  0  0  0  0
  2  5  1  0  0  0  0
  5  6  2  0  0  0  0
  5  7  1  0  0  0  0
  7  8  1  0  0  0  0
  7  9  1  0  0  0  0
  9 10  1  0  0  0  0
  9 11  1  0  0  0  0
  9 15  1  0  0  0  0
 11 12  1  0  0  0  0
 11 13  1  0  0  0  0
 11 14  1  0  0  0  0
 15 16  2  0  0  0  0
 15 17  1  0  0  0  0
 17 18  1  0  0  0  0
 17 19  1  0  0  0  0
 19 20  1  0  0  0  0
 19 21  1  0  0  0  0
 19 22  1  0  0  0  0
M  END
$$$$

  -OEChem-11182114133D

 22 21  0     1  0  0  0  0  0999 V2000
   -2.5725   -3.5557    1.2827 H   0  0  0  0  0  0  0  0  0  0  0  0
   -2.5614   -2.4970    1.0088 C   0  0  0  0  0  0  0  0  0  0  0  0
   -2.8433   -1.9069    1.8840 H   0  0  0  0  0  0  0  0  0  0  0  0
   -3.2887   -2.3309    0.2108 H   0  0  0  0  0  0  0  0  0  0  0  0
   -1.1749   -2.0965    0.5419 C   0  0  0  0  0  0  0  0  0  0  0  0
   -0.3217   -2.9499    0.3660 O   0  0  0  0  0  0  0  0  0  0  0  0
   -0.9370   -0.8064    0.1077 N   0  0  0  0  0  0  0  0  0  0  0  0
   -1.7489   -0.2059    0.2007 H   0  0  0  0  0  0  0  0  0  0  0  0
    0.3623   -0.1343    0.3060 C   0  0  1  0  0  0  0  0  0  0  0  0
    1.0728   -0.5976   -0.3872 H   0  0  0  0  0  0  0  0  0  0  0  0
    0.1577    1.3215   -0.1380 C   0  0  0  0  0  0  0  0  0  0  0  0
   -0.5041    1.8479    0.5573 H   0  0  0  0  0  0  0  0  0  0  0  0
    1.1151    1.8496   -0.1843 H   0  0  0  0  0  0  0  0  0  0  0  0
   -0.2903    1.3535   -1.1365 H   0  0  0  0  0  0  0  0  0  0  0  0
    1.0328   -0.2433    1.7140 C   0  0  0  0  0  0  0  0  0  0  0  0
    0.9436   -1.2364    2.4202 O   0  0  0  0  0  0  0  0  0  0  0  0
    1.5836    0.8817    2.3091 N   0  0  0  0  0  0  0  0  0  0  0  0
    1.6316    1.7292    1.7532 H   0  0  0  0  0  0  0  0  0  0  0  0
    2.1432    0.8934    3.6567 C   0  0  0  0  0  0  0  0  0  0  0  0
    2.9484    0.1561    3.7442 H   0  0  0  0  0  0  0  0  0  0  0  0
    2.5537    1.8810    3.8875 H   0  0  0  0  0  0  0  0  0  0  0  0
    1.3694    0.6590    4.3954 H   0  0  0  0  0  0  0  0  0  0  0  0
  1  2  1  0  0  0  0
  2  3  1  0  0  0  0
  2  4  1  0  0  0  0
  2  5  1  0  0  0  0
  5  6  2  0  0  0  0
  5  7  1  0  0  0  0
  7  8  1  0  0  0  0
  7  9  1  0  0  0  0
  9 10  1  0  0  0  0
  9 11  1  0  0  0  0
  9 15  1  0  0  0  0
 11 12  1  0  0  0  0
 11 13  1  0  0  0  0
 11 14  1  0  0  0  0
 15 16  2  0  0  0  0
 15 17  1  0  0  0  0
 17 18  1  0  0  0  0
 17 19  1  0  0  0  0
 19 20  1  0  0  0  0
 19 21  1  0  0  0  0
 19 22  1  0  0  0  0
M  END
$$$$

  -OEChem-11182114133D

 22 21  0     1  0  0  0  0  0999 V2000
   -2.6451   -3.5360    1.2874 H   0  0  0  0  0  0  0  0  0  0  0  0
   -2.6186   -2.4968    0.9470 C   0  0  0  0  0  0  0  0  0  0  0  0
   -2.9955   -1.8573    1.7484 H   0  0  0  0  0  0  0  0  0  0  0  0
   -3.2642   -2.3959    0.0715 H   0  0  0  0  0  0  0  0  0  0  0  0
   -1.1966   -2.1025    0.5937 C   0  0  0  0  0  0  0  0  0  0  0  0
   -0.3353   -2.9602    0.5282 O   0  0  0  0  0  0  0  0  0  0  0  0
   -0.9328   -0.8210    0.1489 N   0  0  0  0  0  0  0  0  0  0  0  0
   -1.7496   -0.2200    0.1482 H   0  0  0  0  0  0  0  0  0  0  0  0
    0.3606   -0.1365    0.3439 C   0  0  1  0  0  0  0  0  0  0  0  0
    1.0819   -0.6088   -0.3317 H   0  0  0  0  0  0  0  0  0  0  0  0
    0.1600    1.3104   -0.1281 C   0  0  0  0  0  0  0  0  0  0  0  0
   -0.5487    1.8365    0.5193 H   0  0  0  0  0  0  0  0  0  0  0  0
    1.1127    1.8496   -0.1236 H   0  0  0  0  0  0  0  0  0  0  0  0
   -0.2289    1.3227   -1.1514 H   0  0  0  0  0  0  0  0  0  0  0  0
    1.0115   -0.2224    1.7595 C   0  0  0  0  0  0  0  0  0  0  0  0
    1.3145   -1.2805    2.2866 O   0  0  0  0  0  0  0  0  0  0  0  0
    1.2658    0.9315    2.4852 N   0  0  0  0  0  0  0  0  0  0  0  0
    1.0467    1.8193    2.0459 H   0  0  0  0  0  0  0  0  0  0  0  0
    1.8893    0.9339    3.8041 C   0  0  0  0  0  0  0  0  0  0  0  0
    2.8961    0.5060    3.7525 H   0  0  0  0  0  0  0  0  0  0  0  0
    1.9668    1.9570    4.1841 H   0  0  0  0  0  0  0  0  0  0  0  0
    1.2935    0.3472    4.5113 H   0  0  0  0  0  0  0  0  0  0  0  0
  1  2  1  0  0  0  0
  2  3  1  0  0  0  0
  2  4  1  0  0  0  0
  2  5  1  0  0  0  0
  5  6  2  0  0  0  0
  5  7  1  0  0  0  0
  7  8  1  0  0  0  0
  7  9  1  0  0  0  0
  9 10  1  0  0  0  0
  9 11  1  0  0  0  0
  9 15  1  0  0  0  0
 11 12  1  0  0  0  0
 11 13  1  0  0  0  0
 11 14  1  0  0  0  0
 15 16  2  0  0  0  0
 15 17  1  0  0  0  0
 17 18  1  0  0  0  0
 17 19  1  0  0  0  0
 19 20  1  0  0  0  0
 19 21  1  0  0  0  0
 19 22  1  0  0  0  0
M  END
$$$$

  -OEChem-11182114133D

 22 21  0     1  0  0  0  0  0999 V2000
   -2.8440   -3.5876    1.0526 H   0  0  0  0  0  0  0  0  0  0  0  0
   -2.7527   -2.5661    0.6721 C   0  0  0  0  0  0  0  0  0  0  0  0
   -3.4082   -1.9147    1.2548 H   0  0  0  0  0  0  0  0  0  0  0  0
   -3.0685   -2.5514   -0.3737 H   0  0  0  0  0  0  0  0  0  0  0  0
   -1.3154   -2.0935    0.7872 C   0  0  0  0  0  0  0  0  0  0  0  0
   -0.4804   -2.8467    1.2457 O   0  0  0  0  0  0  0  0  0  0  0  0
   -0.9870   -0.8326    0.3261 N   0  0  0  0  0  0  0  0  0  0  0  0
   -1.7550   -0.2986   -0.0663 H   0  0  0  0  0  0  0  0  0  0  0  0
    0.3181   -0.1542    0.4514 C   0  0  1  0  0  0  0  0  0  0  0  0
    1.0086   -0.6405   -0.2468 H   0  0  0  0  0  0  0  0  0  0  0  0
    0.1080    1.2892   -0.0251 C   0  0  0  0  0  0  0  0  0  0  0  0
   -0.6142    1.8098    0.6115 H   0  0  0  0  0  0  0  0  0  0  0  0
    1.0556    1.8375   -0.0050 H   0  0  0  0  0  0  0  0  0  0  0  0
   -0.2669    1.2966   -1.0535 H   0  0  0  0  0  0  0  0  0  0  0  0
    1.0222   -0.2178    1.8379 C   0  0  0  0  0  0  0  0  0  0  0  0
    1.8154   -1.1115    2.0943 O   0  0  0  0  0  0  0  0  0  0  0  0
    1.0373    0.8891    2.6730 N   0  0  0  0  0  0  0  0  0  0  0  0
    0.4214    1.6596    2.4379 H   0  0  0  0  0  0  0  0  0  0  0  0
    1.8015    0.9492    3.9141 C   0  0  0  0  0  0  0  0  0  0  0  0
    2.8744    0.8753    3.7074 H   0  0  0  0  0  0  0  0  0  0  0  0
    1.6131    1.8956    4.4298 H   0  0  0  0  0  0  0  0  0  0  0  0
    1.5141    0.1291    4.5807 H   0  0  0  0  0  0  0  0  0  0  0  0
  1  2  1  0  0  0  0
  2  3  1  0  0  0  0
  2  4  1  0  0  0  0
  2  5  1  0  0  0  0
  5  6  2  0  0  0  0
  5  7  1  0  0  0  0
  7  8  1  0  0  0  0
  7  9  1  0  0  0  0
  9 10  1  0  0  0  0
  9 11  1  0  0  0  0
  9 15  1  0  0  0  0
 11 12  1  0  0  0  0
 11 13  1  0  0  0  0
 11 14  1  0  0  0  0
 15 16  2  0  0  0  0
 15 17  1  0  0  0  0
 17 18  1  0  0  0  0
 17 19  1  0  0  0  0
 19 20  1  0  0  0  0
 19 21  1  0  0  0  0
 19 22  1  0  0  0  0
M  END
$$$$

  -OEChem-11182114133D

 22 21  0     1  0  0  0  0  0999 V2000
   -2.8365   -3.6215    0.9990 H   0  0  0  0  0  0  0  0  0  0  0  0
   -2.7545   -2.6055    0.6019 C   0  0  0  0  0  0  0  0  0  0  0  0
   -3.5033   -1.9765    1.0890 H   0  0  0  0  0  0  0  0  0  0  0  0
   -2.9516   -2.6322   -0.4725 H   0  0  0  0  0  0  0  0  0  0  0  0
   -1.3648   -2.0544    0.8625 C   0  0  0  0  0  0  0  0  0  0  0  0
   -0.5689   -2.7239    1.4911 O   0  0  0  0  0  0  0  0  0  0  0  0
   -1.0354   -0.8020    0.3789 N   0  0  0  0  0  0  0  0  0  0  0  0
   -1.7470   -0.3477   -0.1840 H   0  0  0  0  0  0  0  0  0  0  0  0
    0.2857   -0.1494    0.4642 C   0  0  1  0  0  0  0  0  0  0  0  0
    0.9476   -0.6476   -0.2530 H   0  0  0  0  0  0  0  0  0  0  0  0
    0.1023    1.3032    0.0076 C   0  0  0  0  0  0  0  0  0  0  0  0
   -0.6011    1.8326    0.6576 H   0  0  0  0  0  0  0  0  0  0  0  0
    1.0623    1.8294    0.0278 H   0  0  0  0  0  0  0  0  0  0  0  0
   -0.2817    1.3327   -1.0166 H   0  0  0  0  0  0  0  0  0  0  0  0
    1.0166   -0.2244    1.8324 C   0  0  0  0  0  0  0  0  0  0  0  0
    1.9943   -0.9493    1.9588 O   0  0  0  0  0  0  0  0  0  0  0  0
    0.8189    0.7568    2.7904 N   0  0  0  0  0  0  0  0  0  0  0  0
    0.0023    1.3484    2.6816 H   0  0  0  0  0  0  0  0  0  0  0  0
    1.5660    0.8098    4.0414 C   0  0  0  0  0  0  0  0  0  0  0  0
    2.6326    0.9607    3.8443 H   0  0  0  0  0  0  0  0  0  0  0  0
    1.2095    1.6380    4.6609 H   0  0  0  0  0  0  0  0  0  0  0  0
    1.4397   -0.1224    4.6024 H   0  0  0  0  0  0  0  0  0  0  0  0
  1  2  1  0  0  0  0
  2  3  1  0  0  0  0
  2  4  1  0  0  0  0
  2  5  1  0  0  0  0
  5  6  2  0  0  0  0
  5  7  1  0  0  0  0
  7  8  1  0  0  0  0
  7  9  1  0  0  0  0
  9 10  1  0  0  0  0
  9 11  1  0  0  0  0
  9 15  1  0  0  0  0
 11 12  1  0  0  0  0
 11 13  1  0  0  0  0
 11 14  1  0  0  0  0
 15 16  2  0  0  0  0
 15 17  1  0  0  0  0
 17 18  1  0  0  0  0
 17 19  1  0  0  0  0
 19 20  1  0  0  0  0
 19 21  1  0  0  0  0
 19 22  1  0  0  0  0
M  END
$$$$

  -OEChem-11182114133D

 22 21  0     1  0  0  0  0  0999 V2000
   -2.8186   -3.6239    1.0092 H   0  0  0  0  0  0  0  0  0  0  0  0
   -2.7454   -2.6112    0.6020 C   0  0  0  0  0  0  0  0  0  0  0  0
   -3.5055   -1.9859    1.0762 H   0  0  0  0  0  0  0  0  0  0  0  0
   -2.9334   -2.6520   -0.4735 H   0  0  0  0  0  0  0  0  0  0  0  0
   -1.3643   -2.0411    0.8673 C   0  0  0  0  0  0  0  0  0  0  0  0
   -0.5649   -2.6906    1.5137 O   0  0  0  0  0  0  0  0  0  0  0  0
   -1.0439   -0.7895    0.3761 N   0  0  0  0  0  0  0  0  0  0  0  0
   -1.7473   -0.3520   -0.2106 H   0  0  0  0  0  0  0  0  0  0  0  0
    0.2818   -0.1458    0.4482 C   0  0  1  0  0  0  0  0  0  0  0  0
    0.9327   -0.6434   -0.2795 H   0  0  0  0  0  0  0  0  0  0  0  0
    0.1126    1.3148    0.0163 C   0  0  0  0  0  0  0  0  0  0  0  0
   -0.5684    1.8453    0.6889 H   0  0  0  0  0  0  0  0  0  0  0  0
    1.0814    1.8250    0.0281 H   0  0  0  0  0  0  0  0  0  0  0  0
   -0.2898    1.3668   -0.9999 H   0  0  0  0  0  0  0  0  0  0  0  0
    1.0175   -0.2304    1.8101 C   0  0  0  0  0  0  0  0  0  0  0  0
    2.1219   -0.7549    1.8679 O   0  0  0  0  0  0  0  0  0  0  0  0
    0.6089    0.5576    2.8729 N   0  0  0  0  0  0  0  0  0  0  0  0
   -0.3318    0.9336    2.8220 H   0  0  0  0  0  0  0  0  0  0  0  0
    1.3045    0.5774    4.1537 C   0  0  0  0  0  0  0  0  0  0  0  0
    2.3370    0.9187    4.0243 H   0  0  0  0  0  0  0  0  0  0  0  0
    0.8019    1.2582    4.8471 H   0  0  0  0  0  0  0  0  0  0  0  0
    1.3176   -0.4239    4.5970 H   0  0  0  0  0  0  0  0  0  0  0  0
  1  2  1  0  0  0  0
  2  3  1  0  0  0  0
  2  4  1  0  0  0  0
  2  5  1  0  0  0  0
  5  6  2  0  0  0  0
  5  7  1  0  0  0  0
  7  8  1  0  0  0  0
  7  9  1  0  0  0  0
  9 10  1  0  0  0  0
  9 11  1  0  0  0  0
  9 15  1  0  0  0  0
 11 12  1  0  0  0  0
 11 13  1  0  0  0  0
 11 14  1  0  0  0  0
 15 16  2  0  0  0  0
 15 17  1  0  0  0  0
 17 18  1  0  0  0  0
 17 19  1  0  0  0  0
 19 20  1  0  0  0  0
 19 21  1  0  0  0  0
 19 22  1  0  0  0  0
M  END
$$$$

  -OEChem-11182114133D

 22 21  0     1  0  0  0  0  0999 V2000
   -2.8121   -3.6246    1.0047 H   0  0  0  0  0  0  0  0  0  0  0  0
   -2.7433   -2.6112    0.5988 C   0  0  0  0  0  0  0  0  0  0  0  0
   -3.5064   -1.9897    1.0730 H   0  0  0  0  0  0  0  0  0  0  0  0
   -2.9304   -2.6518   -0.4769 H   0  0  0  0  0  0  0  0  0  0  0  0
   -1.3652   -2.0350    0.8652 C   0  0  0  0  0  0  0  0  0  0  0  0
   -0.5632   -2.6766    1.5173 O   0  0  0  0  0  0  0  0  0  0  0  0
   -1.0457   -0.7849    0.3697 N   0  0  0  0  0  0  0  0  0  0  0  0
   -1.7464   -0.3493   -0.2218 H   0  0  0  0  0  0  0  0  0  0  0  0
    0.2830   -0.1462    0.4372 C   0  0  1  0  0  0  0  0  0  0  0  0
    0.9301   -0.6413   -0.2953 H   0  0  0  0  0  0  0  0  0  0  0  0
    0.1176    1.3195    0.0244 C   0  0  0  0  0  0  0  0  0  0  0  0
   -0.5446    1.8465    0.7185 H   0  0  0  0  0  0  0  0  0  0  0  0
    1.0904    1.8223    0.0236 H   0  0  0  0  0  0  0  0  0  0  0  0
   -0.3046    1.3875   -0.9827 H   0  0  0  0  0  0  0  0  0  0  0  0
    1.0220   -0.2303    1.7950 C   0  0  0  0  0  0  0  0  0  0  0  0
    2.2103   -0.5241    1.8178 O   0  0  0  0  0  0  0  0  0  0  0  0
    0.4468    0.3125    2.9305 N   0  0  0  0  0  0  0  0  0  0  0  0
   -0.5579    0.4480    2.8976 H   0  0  0  0  0  0  0  0  0  0  0  0
    1.1042    0.2857    4.2308 C   0  0  0  0  0  0  0  0  0  0  0  0
    2.0613    0.8163    4.1881 H   0  0  0  0  0  0  0  0  0  0  0  0
    0.4756    0.7715    4.9830 H   0  0  0  0  0  0  0  0  0  0  0  0
    1.2876   -0.7475    4.5441 H   0  0  0  0  0  0  0  0  0  0  0  0
  1  2  1  0  0  0  0
  2  3  1  0  0  0  0
  2  4  1  0  0  0  0
  2  5  1  0  0  0  0
  5  6  2  0  0  0  0
  5  7  1  0  0  0  0
  7  8  1  0  0  0  0
  7  9  1  0  0  0  0
  9 10  1  0  0  0  0
  9 11  1  0  0  0  0
  9 15  1  0  0  0  0
 11 12  1  0  0  0  0
 11 13  1  0  0  0  0
 11 14  1  0  0  0  0
 15 16  2  0  0  0  0
 15 17  1  0  0  0  0
 17 18  1  0  0  0  0
 17 19  1  0  0  0  0
 19 20  1  0  0  0  0
 19 21  1  0  0  0  0
 19 22  1  0  0  0  0
M  END
$$$$

  -OEChem-11182114133D

 22 21  0     1  0  0  0  0  0999 V2000
   -2.8266   -3.6149    1.0008 H   0  0  0  0  0  0  0  0  0  0  0  0
   -2.7506   -2.6063    0.5843 C   0  0  0  0  0  0  0  0  0  0  0  0
   -3.5137   -1.9762    1.0473 H   0  0  0  0  0  0  0  0  0  0  0  0
   -2.9326   -2.6577   -0.4919 H   0  0  0  0  0  0  0  0  0  0  0  0
   -1.3710   -2.0344    0.8517 C   0  0  0  0  0  0  0  0  0  0  0  0
   -0.5719   -2.6753    1.5087 O   0  0  0  0  0  0  0  0  0  0  0  0
   -1.0451   -0.7855    0.3581 N   0  0  0  0  0  0  0  0  0  0  0  0
   -1.7432   -0.3447   -0.2331 H   0  0  0  0  0  0  0  0  0  0  0  0
    0.2849   -0.1480    0.4337 C   0  0  1  0  0  0  0  0  0  0  0  0
    0.9352   -0.6394   -0.2981 H   0  0  0  0  0  0  0  0  0  0  0  0
    0.1164    1.3197    0.0307 C   0  0  0  0  0  0  0  0  0  0  0  0
   -0.5283    1.8441    0.7430 H   0  0  0  0  0  0  0  0  0  0  0  0
    1.0906    1.8194    0.0120 H   0  0  0  0  0  0  0  0  0  0  0  0
   -0.3267    1.3954   -0.9669 H   0  0  0  0  0  0  0  0  0  0  0  0
    1.0235   -0.2259    1.7919 C   0  0  0  0  0  0  0  0  0  0  0  0
    2.2471   -0.2714    1.8076 O   0  0  0  0  0  0  0  0  0  0  0  0
    0.3434    0.0310    2.9689 N   0  0  0  0  0  0  0  0  0  0  0  0
   -0.6627   -0.0916    2.9228 H   0  0  0  0  0  0  0  0  0  0  0  0
    0.9881   -0.0449    4.2735 C   0  0  0  0  0  0  0  0  0  0  0  0
    1.8234    0.6610    4.3313 H   0  0  0  0  0  0  0  0  0  0  0  0
    0.2733    0.2040    5.0637 H   0  0  0  0  0  0  0  0  0  0  0  0
    1.3679   -1.0564    4.4532 H   0  0  0  0  0  0  0  0  0  0  0  0
  1  2  1  0  0  0  0
  2  3  1  0  0  0  0
  2  4  1  0  0  0  0
  2  5  1  0  0  0  0
  5  6  2  0  0  0  0
  5  7  1  0  0  0  0
  7  8  1  0  0  0  0
  7  9  1  0  0  0  0
  9 10  1  0  0  0  0
  9 11  1  0  0  0  0
  9 15  1  0  0  0  0
 11 12  1  0  0  0  0
 11 13  1  0  0  0  0
 11 14  1  0  0  0  0
 15 16  2  0  0  0  0
 15 17  1  0  0  0  0
 17 18  1  0  0  0  0
 17 19  1  0  0  0  0
 19 20  1  0  0  0  0
 19 21  1  0  0  0  0
 19 22  1  0  0  0  0
M  END
$$$$

  -OEChem-11182114133D

 22 21  0     1  0  0  0  0  0999 V2000
   -2.8755   -3.6107    0.9263 H   0  0  0  0  0  0  0  0  0  0  0  0
   -2.7828   -2.5963    0.5279 C   0  0  0  0  0  0  0  0  0  0  0  0
   -3.5454   -1.9651    0.9905 H   0  0  0  0  0  0  0  0  0  0  0  0
   -2.9502   -2.6283   -0.5514 H   0  0  0  0  0  0  0  0  0  0  0  0
   -1.4013   -2.0431    0.8234 C   0  0  0  0  0  0  0  0  0  0  0  0
   -0.6241   -2.6926    1.4983 O   0  0  0  0  0  0  0  0  0  0  0  0
   -1.0511   -0.7955    0.3453 N   0  0  0  0  0  0  0  0  0  0  0  0
   -1.7420   -0.3341   -0.2389 H   0  0  0  0  0  0  0  0  0  0  0  0
    0.2808   -0.1625    0.4461 C   0  0  1  0  0  0  0  0  0  0  0  0
    0.9384   -0.6491   -0.2822 H   0  0  0  0  0  0  0  0  0  0  0  0
    0.1059    1.3059    0.0468 C   0  0  0  0  0  0  0  0  0  0  0  0
   -0.5379    1.8247    0.7641 H   0  0  0  0  0  0  0  0  0  0  0  0
    1.0773    1.8110    0.0256 H   0  0  0  0  0  0  0  0  0  0  0  0
   -0.3412    1.3830   -0.9488 H   0  0  0  0  0  0  0  0  0  0  0  0
    1.0210   -0.2328    1.8064 C   0  0  0  0  0  0  0  0  0  0  0  0
    2.2269   -0.0199    1.8356 O   0  0  0  0  0  0  0  0  0  0  0  0
    0.3190   -0.2813    2.9969 N   0  0  0  0  0  0  0  0  0  0  0  0
   -0.6052   -0.6956    2.9169 H   0  0  0  0  0  0  0  0  0  0  0  0
    0.9893   -0.3645    4.2884 C   0  0  0  0  0  0  0  0  0  0  0  0
    1.6469    0.4985    4.4371 H   0  0  0  0  0  0  0  0  0  0  0  0
    0.2514   -0.3767    5.0960 H   0  0  0  0  0  0  0  0  0  0  0  0
    1.5884   -1.2791    4.3498 H   0  0  0  0  0  0  0  0  0  0  0  0
  1  2  1  0  0  0  0
  2  3  1  0  0  0  0
  2  4  1  0  0  0  0
  2  5  1  0  0  0  0
  5  6  2  0  0  0  0
  5  7  1  0  0  0  0
  7  8  1  0  0  0  0
  7  9  1  0  0  0  0
  9 10  1  0  0  0  0
  9 11  1  0  0  0  0
  9 15  1  0  0  0  0
 11 12  1  0  0  0  0
 11 13  1  0  0  0  0
 11 14  1  0  0  0  0
 15 16  2  0  0  0  0
 15 17  1  0  0  0  0
 17 18  1  0  0  0  0
 17 19  1  0  0  0  0
 19 20  1  0  0  0  0
 19 21  1  0  0  0  0
 19 22  1  0  0  0  0
M  END
$$$$

  -OEChem-11182114133D

 22 21  0     1  0  0  0  0  0999 V2000
   -2.9389   -3.5903    0.8645 H   0  0  0  0  0  0  0  0  0  0  0  0
   -2.8221   -2.5717    0.4833 C   0  0  0  0  0  0  0  0  0  0  0  0
   -3.5618   -1.9281    0.9657 H   0  0  0  0  0  0  0  0  0  0  0  0
   -3.0017   -2.5788   -0.5945 H   0  0  0  0  0  0  0  0  0  0  0  0
   -1.4229   -2.0625    0.7732 C   0  0  0  0  0  0  0  0  0  0  0  0
   -0.6522   -2.7521    1.4162 O   0  0  0  0  0  0  0  0  0  0  0  0
   -1.0481   -0.8117    0.3245 N   0  0  0  0  0  0  0  0  0  0  0  0
   -1.7481   -0.3075   -0.2114 H   0  0  0  0  0  0  0  0  0  0  0  0
    0.2815   -0.1770    0.4573 C   0  0  1  0  0  0  0  0  0  0  0  0
    0.9492   -0.6547   -0.2673 H   0  0  0  0  0  0  0  0  0  0  0  0
    0.0933    1.2914    0.0580 C   0  0  0  0  0  0  0  0  0  0  0  0
   -0.5496    1.8051    0.7798 H   0  0  0  0  0  0  0  0  0  0  0  0
    1.0598    1.8056    0.0289 H   0  0  0  0  0  0  0  0  0  0  0  0
   -0.3607    1.3654   -0.9347 H   0  0  0  0  0  0  0  0  0  0  0  0
    1.0213   -0.2470    1.8219 C   0  0  0  0  0  0  0  0  0  0  0  0
    2.1598    0.1999    1.8969 O   0  0  0  0  0  0  0  0  0  0  0  0
    0.3729   -0.6072    2.9886 N   0  0  0  0  0  0  0  0  0  0  0  0
   -0.4050   -1.2475    2.8365 H   0  0  0  0  0  0  0  0  0  0  0  0
    1.0659   -0.6881    4.2683 C   0  0  0  0  0  0  0  0  0  0  0  0
    1.4975    0.2828    4.5337 H   0  0  0  0  0  0  0  0  0  0  0  0
    0.3663   -0.9799    5.0573 H   0  0  0  0  0  0  0  0  0  0  0  0
    1.8696   -1.4306    4.2226 H   0  0  0  0  0  0  0  0  0  0  0  0
  1  2  1  0  0  0  0
  2  3  1  0  0  0  0
  2  4  1  0  0  0  0
  2  5  1  0  0  0  0
  5  6  2  0  0  0  0
  5  7  1  0  0  0  0
  7  8  1  0  0  0  0
  7  9  1  0  0  0  0
  9 10  1  0  0  0  0
  9 11  1  0  0  0  0
  9 15  1  0  0  0  0
 11 12  1  0  0  0  0
 11 13  1  0  0  0  0
 11 14  1  0  0  0  0
 15 16  2  0  0  0  0
 15 17  1  0  0  0  0
 17 18  1  0  0  0  0
 17 19  1  0  0  0  0
 19 20  1  0  0  0  0
 19 21  1  0  0  0  0
 19 22  1  0  0  0  0
M  END
$$$$

  -OEChem-11182114133D

 22 21  0     1  0  0  0  0  0999 V2000
   -2.9792   -3.5687    0.8408 H   0  0  0  0  0  0  0  0  0  0  0  0
   -2.8468   -2.5451    0.4788 C   0  0  0  0  0  0  0  0  0  0  0  0
   -3.5403   -1.8910    1.0126 H   0  0  0  0  0  0  0  0  0  0  0  0
   -3.0789   -2.5186   -0.5887 H   0  0  0  0  0  0  0  0  0  0  0  0
   -1.4188   -2.0884    0.7113 C   0  0  0  0  0  0  0  0  0  0  0  0
   -0.6282   -2.8387    1.2558 O   0  0  0  0  0  0  0  0  0  0  0  0
   -1.0325   -0.8303    0.2931 N   0  0  0  0  0  0  0  0  0  0  0  0
   -1.7596   -0.2745   -0.1468 H   0  0  0  0  0  0  0  0  0  0  0  0
    0.2888   -0.1845    0.4599 C   0  0  1  0  0  0  0  0  0  0  0  0
    0.9720   -0.6506   -0.2574 H   0  0  0  0  0  0  0  0  0  0  0  0
    0.0839    1.2816    0.0538 C   0  0  0  0  0  0  0  0  0  0  0  0
   -0.5568    1.7935    0.7789 H   0  0  0  0  0  0  0  0  0  0  0  0
    1.0443    1.8058    0.0110 H   0  0  0  0  0  0  0  0  0  0  0  0
   -0.3798    1.3469   -0.9351 H   0  0  0  0  0  0  0  0  0  0  0  0
    1.0185   -0.2551    1.8341 C   0  0  0  0  0  0  0  0  0  0  0  0
    2.0506    0.3877    1.9873 O   0  0  0  0  0  0  0  0  0  0  0  0
    0.4887   -0.9038    2.9337 N   0  0  0  0  0  0  0  0  0  0  0  0
   -0.1617   -1.6536    2.6952 H   0  0  0  0  0  0  0  0  0  0  0  0
    1.2008   -1.0081    4.2014 C   0  0  0  0  0  0  0  0  0  0  0  0
    1.4084   -0.0127    4.6080 H   0  0  0  0  0  0  0  0  0  0  0  0
    0.5957   -1.5570    4.9292 H   0  0  0  0  0  0  0  0  0  0  0  0
    2.1491   -1.5387    4.0661 H   0  0  0  0  0  0  0  0  0  0  0  0
  1  2  1  0  0  0  0
  2  3  1  0  0  0  0
  2  4  1  0  0  0  0
  2  5  1  0  0  0  0
  5  6  2  0  0  0  0
  5  7  1  0  0  0  0
  7  8  1  0  0  0  0
  7  9  1  0  0  0  0
  9 10  1  0  0  0  0
  9 11  1  0  0  0  0
  9 15  1  0  0  0  0
 11 12  1  0  0  0  0
 11 13  1  0  0  0  0
 11 14  1  0  0  0  0
 15 16  2  0  0  0  0
 15 17  1  0  0  0  0
 17 18  1  0  0  0  0
 17 19  1  0  0  0  0
 19 20  1  0  0  0  0
 19 21  1  0  0  0  0
 19 22  1  0  0  0  0
M  END
$$$$

  -OEChem-11182114133D

 22 21  0     1  0  0  0  0  0999 V2000
   -2.9819   -3.5489    0.8739 H   0  0  0  0  0  0  0  0  0  0  0  0
   -2.8489   -2.5234    0.5173 C   0  0  0  0  0  0  0  0  0  0  0  0
   -3.4858   -1.8605    1.1080 H   0  0  0  0  0  0  0  0  0  0  0  0
   -3.1549   -2.4739   -0.5305 H   0  0  0  0  0  0  0  0  0  0  0  0
   -1.3966   -2.1064    0.6526 C   0  0  0  0  0  0  0  0  0  0  0  0
   -0.5766   -2.9085    1.0652 O   0  0  0  0  0  0  0  0  0  0  0  0
   -1.0157   -0.8385    0.2602 N   0  0  0  0  0  0  0  0  0  0  0  0
   -1.7721   -0.2445   -0.0664 H   0  0  0  0  0  0  0  0  0  0  0  0
    0.2972   -0.1822    0.4534 C   0  0  1  0  0  0  0  0  0  0  0  0
    0.9926   -0.6410   -0.2568 H   0  0  0  0  0  0  0  0  0  0  0  0
    0.0844    1.2813    0.0381 C   0  0  0  0  0  0  0  0  0  0  0  0
   -0.5575    1.7950    0.7608 H   0  0  0  0  0  0  0  0  0  0  0  0
    1.0419    1.8101   -0.0109 H   0  0  0  0  0  0  0  0  0  0  0  0
   -0.3813    1.3381   -0.9506 H   0  0  0  0  0  0  0  0  0  0  0  0
    1.0137   -0.2647    1.8374 C   0  0  0  0  0  0  0  0  0  0  0  0
    1.8971    0.5431    2.1001 O   0  0  0  0  0  0  0  0  0  0  0  0
    0.6550   -1.1602    2.8270 N   0  0  0  0  0  0  0  0  0  0  0  0
    0.1147   -1.9631    2.4994 H   0  0  0  0  0  0  0  0  0  0  0  0
    1.3823   -1.2947    4.0829 C   0  0  0  0  0  0  0  0  0  0  0  0
    1.3755   -0.3488    4.6344 H   0  0  0  0  0  0  0  0  0  0  0  0
    0.9131   -2.0603    4.7082 H   0  0  0  0  0  0  0  0  0  0  0  0
    2.4207   -1.5868    3.8951 H   0  0  0  0  0  0  0  0  0  0  0  0
  1  2  1  0  0  0  0
  2  3  1  0  0  0  0
  2  4  1  0  0  0  0
  2  5  1  0  0  0  0
  5  6  2  0  0  0  0
  5  7  1  0  0  0  0
  7  8  1  0  0  0  0
  7  9  1  0  0  0  0
  9 10  1  0  0  0  0
  9 11  1  0  0  0  0
  9 15  1  0  0  0  0
 11 12  1  0  0  0  0
 11 13  1  0  0  0  0
 11 14  1  0  0  0  0
 15 16  2  0  0  0  0
 15 17  1  0  0  0  0
 17 18  1  0  0  0  0
 17 19  1  0  0  0  0
 19 20  1  0  0  0  0
 19 21  1  0  0  0  0
 19 22  1  0  0  0  0
M  END
$$$$

  -OEChem-11182114133D

 22 21  0     1  0  0  0  0  0999 V2000
   -3.0441   -3.4671    1.0091 H   0  0  0  0  0  0  0  0  0  0  0  0
   -2.8966   -2.4487    0.6385 C   0  0  0  0  0  0  0  0  0  0  0  0
   -3.4567   -1.7593    1.2749 H   0  0  0  0  0  0  0  0  0  0  0  0
   -3.2813   -2.3871   -0.3824 H   0  0  0  0  0  0  0  0  0  0  0  0
   -1.4222   -2.0924    0.6587 C   0  0  0  0  0  0  0  0  0  0  0  0
   -0.6020   -2.9430    0.9601 O   0  0  0  0  0  0  0  0  0  0  0  0
   -1.0246   -0.8325    0.2572 N   0  0  0  0  0  0  0  0  0  0  0  0
   -1.7862   -0.2041    0.0193 H   0  0  0  0  0  0  0  0  0  0  0  0
    0.3059   -0.2050    0.4217 C   0  0  1  0  0  0  0  0  0  0  0  0
    0.9761   -0.6847   -0.2987 H   0  0  0  0  0  0  0  0  0  0  0  0
    0.1199    1.2583   -0.0083 C   0  0  0  0  0  0  0  0  0  0  0  0
   -0.5004    1.7949    0.7168 H   0  0  0  0  0  0  0  0  0  0  0  0
    1.0884    1.7646   -0.0765 H   0  0  0  0  0  0  0  0  0  0  0  0
   -0.3581    1.3135   -0.9913 H   0  0  0  0  0  0  0  0  0  0  0  0
    1.0461   -0.3067    1.7937 C   0  0  0  0  0  0  0  0  0  0  0  0
    1.7864    0.6028    2.1500 O   0  0  0  0  0  0  0  0  0  0  0  0
    0.8947   -1.3706    2.6614 N   0  0  0  0  0  0  0  0  0  0  0  0
    0.4079   -2.1854    2.2814 H   0  0  0  0  0  0  0  0  0  0  0  0
    1.6518   -1.5255    3.8971 C   0  0  0  0  0  0  0  0  0  0  0  0
    1.4744   -0.6763    4.5652 H   0  0  0  0  0  0  0  0  0  0  0  0
    1.3450   -2.4398    4.4142 H   0  0  0  0  0  0  0  0  0  0  0  0
    2.7239   -1.5899    3.6843 H   0  0  0  0  0  0  0  0  0  0  0  0
  1  2  1  0  0  0  0
  2  3  1  0  0  0  0
  2  4  1  0  0  0  0
  2  5  1  0  0  0  0
  5  6  2  0  0  0  0
  5  7  1  0  0  0  0
  7  8  1  0  0  0  0
  7  9  1  0  0  0  0
  9 10  1  0  0  0  0
  9 11  1  0  0  0  0
  9 15  1  0  0  0  0
 11 12  1  0  0  0  0
 11 13  1  0  0  0  0
 11 14  1  0  0  0  0
 15 16  2  0  0  0  0
 15 17  1  0  0  0  0
 17 18  1  0  0  0  0
 17 19  1  0  0  0  0
 19 20  1  0  0  0  0
 19 21  1  0  0  0  0
 19 22  1  0  0  0  0
M  END
$$$$

  -OEChem-11182114133D

 22 21  0     1  0  0  0  0  0999 V2000
   -2.9163   -3.5368    0.9957 H   0  0  0  0  0  0  0  0  0  0  0  0
   -2.8090   -2.5070    0.6427 C   0  0  0  0  0  0  0  0  0  0  0  0
   -3.3575   -1.8463    1.3184 H   0  0  0  0  0  0  0  0  0  0  0  0
   -3.2388   -2.4318   -0.3592 H   0  0  0  0  0  0  0  0  0  0  0  0
   -1.3439   -2.1144    0.6089 C   0  0  0  0  0  0  0  0  0  0  0  0
   -0.4898   -2.9569    0.8290 O   0  0  0  0  0  0  0  0  0  0  0  0
   -0.9948   -0.8312    0.2367 N   0  0  0  0  0  0  0  0  0  0  0  0
   -1.7828   -0.2135    0.0659 H   0  0  0  0  0  0  0  0  0  0  0  0
    0.3158   -0.1682    0.4141 C   0  0  1  0  0  0  0  0  0  0  0  0
    1.0013   -0.6102   -0.3162 H   0  0  0  0  0  0  0  0  0  0  0  0
    0.0919    1.2991    0.0170 C   0  0  0  0  0  0  0  0  0  0  0  0
   -0.5566    1.7990    0.7440 H   0  0  0  0  0  0  0  0  0  0  0  0
    1.0462    1.8346   -0.0210 H   0  0  0  0  0  0  0  0  0  0  0  0
   -0.3712    1.3645   -0.9724 H   0  0  0  0  0  0  0  0  0  0  0  0
    1.0489   -0.2942    1.7875 C   0  0  0  0  0  0  0  0  0  0  0  0
    1.5541    0.6947    2.3065 O   0  0  0  0  0  0  0  0  0  0  0  0
    1.1627   -1.4894    2.4691 N   0  0  0  0  0  0  0  0  0  0  0  0
    0.7531   -2.3112    2.0179 H   0  0  0  0  0  0  0  0  0  0  0  0
    1.8635   -1.6516    3.7362 C   0  0  0  0  0  0  0  0  0  0  0  0
    1.4101   -1.0212    4.5080 H   0  0  0  0  0  0  0  0  0  0  0  0
    1.8096   -2.6938    4.0652 H   0  0  0  0  0  0  0  0  0  0  0  0
    2.9180   -1.3763    3.6288 H   0  0  0  0  0  0  0  0  0  0  0  0
  1  2  1  0  0  0  0
  2  3  1  0  0  0  0
  2  4  1  0  0  0  0
  2  5  1  0  0  0  0
  5  6  2  0  0  0  0
  5  7  1  0  0  0  0
  7  8  1  0  0  0  0
  7  9  1  0  0  0  0
  9 10  1  0  0  0  0
  9 11  1  0  0  0  0
  9 15  1  0  0  0  0
 11 12  1  0  0  0  0
 11 13  1  0  0  0  0
 11 14  1  0  0  0  0
 15 16  2  0  0  0  0
 15 17  1  0  0  0  0
 17 18  1  0  0  0  0
 17 19  1  0  0  0  0
 19 20  1  0  0  0  0
 19 21  1  0  0  0  0
 19 22  1  0  0  0  0
M  END
$$$$

  -OEChem-11182114133D

 22 21  0     1  0  0  0  0  0999 V2000
   -2.8316   -3.5445    1.0844 H   0  0  0  0  0  0  0  0  0  0  0  0
   -2.7534   -2.5123    0.7316 C   0  0  0  0  0  0  0  0  0  0  0  0
   -3.2752   -1.8606    1.4367 H   0  0  0  0  0  0  0  0  0  0  0  0
   -3.2327   -2.4374   -0.2475 H   0  0  0  0  0  0  0  0  0  0  0  0
   -1.2961   -2.1036    0.6277 C   0  0  0  0  0  0  0  0  0  0  0  0
   -0.4218   -2.9355    0.8063 O   0  0  0  0  0  0  0  0  0  0  0  0
   -0.9785   -0.8167    0.2408 N   0  0  0  0  0  0  0  0  0  0  0  0
   -1.7778   -0.2019    0.1194 H   0  0  0  0  0  0  0  0  0  0  0  0
    0.3337   -0.1505    0.3778 C   0  0  1  0  0  0  0  0  0  0  0  0
    1.0019   -0.5856   -0.3723 H   0  0  0  0  0  0  0  0  0  0  0  0
    0.1011    1.3196   -0.0014 C   0  0  0  0  0  0  0  0  0  0  0  0
   -0.5494    1.8079    0.7316 H   0  0  0  0  0  0  0  0  0  0  0  0
    1.0532    1.8594   -0.0323 H   0  0  0  0  0  0  0  0  0  0  0  0
   -0.3645    1.3929   -0.9890 H   0  0  0  0  0  0  0  0  0  0  0  0
    1.0869   -0.2923    1.7362 C   0  0  0  0  0  0  0  0  0  0  0  0
    1.3827    0.7024    2.3885 O   0  0  0  0  0  0  0  0  0  0  0  0
    1.4625   -1.5224    2.2382 N   0  0  0  0  0  0  0  0  0  0  0  0
    1.0735   -2.3369    1.7554 H   0  0  0  0  0  0  0  0  0  0  0  0
    2.0968   -1.7124    3.5361 C   0  0  0  0  0  0  0  0  0  0  0  0
    1.4374   -1.3680    4.3393 H   0  0  0  0  0  0  0  0  0  0  0  0
    2.3149   -2.7725    3.6963 H   0  0  0  0  0  0  0  0  0  0  0  0
    3.0379   -1.1551    3.5883 H   0  0  0  0  0  0  0  0  0  0  0  0
  1  2  1  0  0  0  0
  2  3  1  0  0  0  0
  2  4  1  0  0  0  0
  2  5  1  0  0  0  0
  5  6  2  0  0  0  0
  5  7  1  0  0  0  0
  7  8  1  0  0  0  0
  7  9  1  0  0  0  0
  9 10  1  0  0  0  0
  9 11  1  0  0  0  0
  9 15  1  0  0  0  0
 11 12  1  0  0  0  0
 11 13  1  0  0  0  0
 11 14  1  0  0  0  0
 15 16  2  0  0  0  0
 15 17  1  0  0  0  0
 17 18  1  0  0  0  0
 17 19  1  0  0  0  0
 19 20  1  0  0  0  0
 19 21  1  0  0  0  0
 19 22  1  0  0  0  0
M  END
$$$$

  -OEChem-11182114133D

 22 21  0     1  0  0  0  0  0999 V2000
   -2.7118   -3.5668    1.1662 H   0  0  0  0  0  0  0  0  0  0  0  0
   -2.6770   -2.5329    0.8106 C   0  0  0  0  0  0  0  0  0  0  0  0
   -3.1867   -1.8950    1.5369 H   0  0  0  0  0  0  0  0  0  0  0  0
   -3.1986   -2.4728   -0.1478 H   0  0  0  0  0  0  0  0  0  0  0  0
   -1.2371   -2.0845    0.6457 C   0  0  0  0  0  0  0  0  0  0  0  0
   -0.3305   -2.8871    0.8012 O   0  0  0  0  0  0  0  0  0  0  0  0
   -0.9656   -0.7950    0.2324 N   0  0  0  0  0  0  0  0  0  0  0  0
   -1.7776   -0.1889    0.1620 H   0  0  0  0  0  0  0  0  0  0  0  0
    0.3432   -0.1227    0.3463 C   0  0  1  0  0  0  0  0  0  0  0  0
    1.0091   -0.5564   -0.4066 H   0  0  0  0  0  0  0  0  0  0  0  0
    0.1165    1.3487   -0.0265 C   0  0  0  0  0  0  0  0  0  0  0  0
   -0.5552    1.8312    0.6910 H   0  0  0  0  0  0  0  0  0  0  0  0
    1.0685    1.8894   -0.0256 H   0  0  0  0  0  0  0  0  0  0  0  0
   -0.3223    1.4277   -1.0258 H   0  0  0  0  0  0  0  0  0  0  0  0
    1.0827   -0.2723    1.7076 C   0  0  0  0  0  0  0  0  0  0  0  0
    1.1640    0.6741    2.4825 O   0  0  0  0  0  0  0  0  0  0  0  0
    1.7063   -1.4569    2.0465 N   0  0  0  0  0  0  0  0  0  0  0  0
    1.3847   -2.2710    1.5162 H   0  0  0  0  0  0  0  0  0  0  0  0
    2.3218   -1.6865    3.3471 C   0  0  0  0  0  0  0  0  0  0  0  0
    1.5723   -1.6217    4.1426 H   0  0  0  0  0  0  0  0  0  0  0  0
    2.7767   -2.6813    3.3769 H   0  0  0  0  0  0  0  0  0  0  0  0
    3.1047   -0.9451    3.5380 H   0  0  0  0  0  0  0  0  0  0  0  0
  1  2  1  0  0  0  0
  2  3  1  0  0  0  0
  2  4  1  0  0  0  0
  2  5  1  0  0  0  0
  5  6  2  0  0  0  0
  5  7  1  0  0  0  0
  7  8  1  0  0  0  0
  7  9  1  0  0  0  0
  9 10  1  0  0  0  0
  9 11  1  0  0  0  0
  9 15  1  0  0  0  0
 11 12  1  0  0  0  0
 11 13  1  0  0  0  0
 11 14  1  0  0  0  0
 15 16  2  0  0  0  0
 15 17  1  0  0  0  0
 17 18  1  0  0  0  0
 17 19  1  0  0  0  0
 19 20  1  0  0  0  0
 19 21  1  0  0  0  0
 19 22  1  0  0  0  0
M  END
$$$$

  -OEChem-11182114133D

 22 21  0     1  0  0  0  0  0999 V2000
   -2.5911   -3.5705    1.2609 H   0  0  0  0  0  0  0  0  0  0  0  0
   -2.6002   -2.5458    0.8786 C   0  0  0  0  0  0  0  0  0  0  0  0
   -3.0964   -1.9030    1.6100 H   0  0  0  0  0  0  0  0  0  0  0  0
   -3.1623   -2.5237   -0.0581 H   0  0  0  0  0  0  0  0  0  0  0  0
   -1.1812   -2.0640    0.6434 C   0  0  0  0  0  0  0  0  0  0  0  0
   -0.2434   -2.8355    0.7785 O   0  0  0  0  0  0  0  0  0  0  0  0
   -0.9554   -0.7734    0.2063 N   0  0  0  0  0  0  0  0  0  0  0  0
   -1.7762   -0.1753    0.1860 H   0  0  0  0  0  0  0  0  0  0  0  0
    0.3492   -0.0972    0.3109 C   0  0  1  0  0  0  0  0  0  0  0  0
    1.0191   -0.5251   -0.4420 H   0  0  0  0  0  0  0  0  0  0  0  0
    0.1248    1.3779   -0.0448 C   0  0  0  0  0  0  0  0  0  0  0  0
   -0.5651    1.8472    0.6641 H   0  0  0  0  0  0  0  0  0  0  0  0
    1.0737    1.9225   -0.0146 H   0  0  0  0  0  0  0  0  0  0  0  0
   -0.2929    1.4688   -1.0521 H   0  0  0  0  0  0  0  0  0  0  0  0
    1.0595   -0.2574    1.6830 C   0  0  0  0  0  0  0  0  0  0  0  0
    0.9192    0.5865    2.5611 O   0  0  0  0  0  0  0  0  0  0  0  0
    1.9185   -1.3178    1.8974 N   0  0  0  0  0  0  0  0  0  0  0  0
    1.7331   -2.1240    1.2980 H   0  0  0  0  0  0  0  0  0  0  0  0
    2.5328   -1.5723    3.1943 C   0  0  0  0  0  0  0  0  0  0  0  0
    1.7651   -1.7728    3.9489 H   0  0  0  0  0  0  0  0  0  0  0  0
    3.1958   -2.4406    3.1327 H   0  0  0  0  0  0  0  0  0  0  0  0
    3.1260   -0.7096    3.5151 H   0  0  0  0  0  0  0  0  0  0  0  0
  1  2  1  0  0  0  0
  2  3  1  0  0  0  0
  2  4  1  0  0  0  0
  2  5  1  0  0  0  0
  5  6  2  0  0  0  0
  5  7  1  0  0  0  0
  7  8  1  0  0  0  0
  7  9  1  0  0  0  0
  9 10  1  0  0  0  0
  9 11  1  0  0  0  0
  9 15  1  0  0  0  0
 11 12  1  0  0  0  0
 11 13  1  0  0  0  0
 11 14  1  0  0  0  0
 15 16  2  0  0  0  0
 15 17  1  0  0  0  0
 17 18  1  0  0  0  0
 17 19  1  0  0  0  0
 19 20  1  0  0  0  0
 19 21  1  0  0  0  0
 19 22  1  0  0  0  0
M  END
$$$$

  -OEChem-11182114133D

 22 21  0     1  0  0  0  0  0999 V2000
   -2.5218   -3.5760    1.2952 H   0  0  0  0  0  0  0  0  0  0  0  0
   -2.5551   -2.5480    0.9232 C   0  0  0  0  0  0  0  0  0  0  0  0
   -3.0280   -1.9165    1.6793 H   0  0  0  0  0  0  0  0  0  0  0  0
   -3.1533   -2.5225    0.0092 H   0  0  0  0  0  0  0  0  0  0  0  0
   -1.1508   -2.0509    0.6384 C   0  0  0  0  0  0  0  0  0  0  0  0
   -0.1963   -2.8047    0.7581 O   0  0  0  0  0  0  0  0  0  0  0  0
   -0.9545   -0.7618    0.1827 N   0  0  0  0  0  0  0  0  0  0  0  0
   -1.7781   -0.1680    0.2058 H   0  0  0  0  0  0  0  0  0  0  0  0
    0.3475   -0.0841    0.2817 C   0  0  1  0  0  0  0  0  0  0  0  0
    1.0184   -0.5102   -0.4711 H   0  0  0  0  0  0  0  0  0  0  0  0
    0.1277    1.3940   -0.0605 C   0  0  0  0  0  0  0  0  0  0  0  0
   -0.5589    1.8590    0.6544 H   0  0  0  0  0  0  0  0  0  0  0  0
    1.0784    1.9355   -0.0283 H   0  0  0  0  0  0  0  0  0  0  0  0
   -0.2931    1.4943   -1.0655 H   0  0  0  0  0  0  0  0  0  0  0  0
    1.0396   -0.2454    1.6603 C   0  0  0  0  0  0  0  0  0  0  0  0
    0.6848    0.4396    2.6131 O   0  0  0  0  0  0  0  0  0  0  0  0
    2.1124   -1.1050    1.8005 N   0  0  0  0  0  0  0  0  0  0  0  0
    2.1515   -1.8445    1.1014 H   0  0  0  0  0  0  0  0  0  0  0  0
    2.7297   -1.3690    3.0940 C   0  0  0  0  0  0  0  0  0  0  0  0
    2.0067   -1.8287    3.7759 H   0  0  0  0  0  0  0  0  0  0  0  0
    3.5779   -2.0500    2.9748 H   0  0  0  0  0  0  0  0  0  0  0  0
    3.0964   -0.4398    3.5426 H   0  0  0  0  0  0  0  0  0  0  0  0
  1  2  1  0  0  0  0
  2  3  1  0  0  0  0
  2  4  1  0  0  0  0
  2  5  1  0  0  0  0
  5  6  2  0  0  0  0
  5  7  1  0  0  0  0
  7  8  1  0  0  0  0
  7  9  1  0  0  0  0
  9 10  1  0  0  0  0
  9 11  1  0  0  0  0
  9 15  1  0  0  0  0
 11 12  1  0  0  0  0
 11 13  1  0  0  0  0
 11 14  1  0  0  0  0
 15 16  2  0  0  0  0
 15 17  1  0  0  0  0
 17 18  1  0  0  0  0
 17 19  1  0  0  0  0
 19 20  1  0  0  0  0
 19 21  1  0  0  0  0
 19 22  1  0  0  0  0
M  END
$$$$

  -OEChem-11182114133D

 22 21  0     1  0  0  0  0  0999 V2000
   -2.4973   -3.5761    1.3122 H   0  0  0  0  0  0  0  0  0  0  0  0
   -2.5387   -2.5445    0.9516 C   0  0  0  0  0  0  0  0  0  0  0  0
   -2.9860   -1.9191    1.7283 H   0  0  0  0  0  0  0  0  0  0  0  0
   -3.1644   -2.5082    0.0567 H   0  0  0  0  0  0  0  0  0  0  0  0
   -1.1423   -2.0482    0.6292 C   0  0  0  0  0  0  0  0  0  0  0  0
   -0.1839   -2.7994    0.7311 O   0  0  0  0  0  0  0  0  0  0  0  0
   -0.9589   -0.7616    0.1611 N   0  0  0  0  0  0  0  0  0  0  0  0
   -1.7816   -0.1690    0.2175 H   0  0  0  0  0  0  0  0  0  0  0  0
    0.3424   -0.0830    0.2608 C   0  0  1  0  0  0  0  0  0  0  0  0
    1.0133   -0.5117   -0.4904 H   0  0  0  0  0  0  0  0  0  0  0  0
    0.1281    1.3965   -0.0719 C   0  0  0  0  0  0  0  0  0  0  0  0
   -0.5528    1.8596    0.6499 H   0  0  0  0  0  0  0  0  0  0  0  0
    1.0816    1.9330   -0.0406 H   0  0  0  0  0  0  0  0  0  0  0  0
   -0.2973    1.5045   -1.0743 H   0  0  0  0  0  0  0  0  0  0  0  0
    1.0251   -0.2369    1.6434 C   0  0  0  0  0  0  0  0  0  0  0  0
    0.4996    0.2490    2.6392 O   0  0  0  0  0  0  0  0  0  0  0  0
    2.2656   -0.8376    1.7497 N   0  0  0  0  0  0  0  0  0  0  0  0
    2.5392   -1.4197    0.9627 H   0  0  0  0  0  0  0  0  0  0  0  0
    2.8958   -1.0932    3.0389 C   0  0  0  0  0  0  0  0  0  0  0  0
    2.2827   -1.7776    3.6347 H   0  0  0  0  0  0  0  0  0  0  0  0
    3.8818   -1.5450    2.8946 H   0  0  0  0  0  0  0  0  0  0  0  0
    3.0247   -0.1593    3.5962 H   0  0  0  0  0  0  0  0  0  0  0  0
  1  2  1  0  0  0  0
  2  3  1  0  0  0  0
  2  4  1  0  0  0  0
  2  5  1  0  0  0  0
  5  6  2  0  0  0  0
  5  7  1  0  0  0  0
  7  8  1  0  0  0  0
  7  9  1  0  0  0  0
  9 10  1  0  0  0  0
  9 11  1  0  0  0  0
  9 15  1  0  0  0  0
 11 12  1  0  0  0  0
 11 13  1  0  0  0  0
 11 14  1  0  0  0  0
 15 16  2  0  0  0  0
 15 17  1  0  0  0  0
 17 18  1  0  0  0  0
 17 19  1  0  0  0  0
 19 20  1  0  0  0  0
 19 21  1  0  0  0  0
 19 22  1  0  0  0  0
M  END
$$$$

  -OEChem-11182114133D

 22 21  0     1  0  0  0  0  0999 V2000
   -2.4936   -3.5789    1.3079 H   0  0  0  0  0  0  0  0  0  0  0  0
   -2.5367   -2.5412    0.9654 C   0  0  0  0  0  0  0  0  0  0  0  0
   -2.9579   -1.9256    1.7641 H   0  0  0  0  0  0  0  0  0  0  0  0
   -3.1857   -2.4856    0.0883 H   0  0  0  0  0  0  0  0  0  0  0  0
   -1.1453   -2.0500    0.6144 C   0  0  0  0  0  0  0  0  0  0  0  0
   -0.1888   -2.8064    0.6925 O   0  0  0  0  0  0  0  0  0  0  0  0
   -0.9648   -0.7646    0.1408 N   0  0  0  0  0  0  0  0  0  0  0  0
   -1.7847   -0.1713    0.2214 H   0  0  0  0  0  0  0  0  0  0  0  0
    0.3379   -0.0895    0.2513 C   0  0  1  0  0  0  0  0  0  0  0  0
    1.0128   -0.5228   -0.4935 H   0  0  0  0  0  0  0  0  0  0  0  0
    0.1293    1.3907   -0.0788 C   0  0  0  0  0  0  0  0  0  0  0  0
   -0.5454    1.8552    0.6477 H   0  0  0  0  0  0  0  0  0  0  0  0
    1.0849    1.9235   -0.0532 H   0  0  0  0  0  0  0  0  0  0  0  0
   -0.3015    1.5015   -1.0787 H   0  0  0  0  0  0  0  0  0  0  0  0
    1.0102   -0.2383    1.6394 C   0  0  0  0  0  0  0  0  0  0  0  0
    0.3793    0.0454    2.6523 O   0  0  0  0  0  0  0  0  0  0  0  0
    2.3539   -0.5492    1.7404 N   0  0  0  0  0  0  0  0  0  0  0  0
    2.7910   -0.9319    0.9074 H   0  0  0  0  0  0  0  0  0  0  0  0
    3.0115   -0.7616    3.0240 C   0  0  0  0  0  0  0  0  0  0  0  0
    2.5607   -1.6109    3.5482 H   0  0  0  0  0  0  0  0  0  0  0  0
    4.0751   -0.9700    2.8741 H   0  0  0  0  0  0  0  0  0  0  0  0
    2.9217    0.1293    3.6544 H   0  0  0  0  0  0  0  0  0  0  0  0
  1  2  1  0  0  0  0
  2  3  1  0  0  0  0
  2  4  1  0  0  0  0
  2  5  1  0  0  0  0
  5  6  2  0  0  0  0
  5  7  1  0  0  0  0
  7  8  1  0  0  0  0
  7  9  1  0  0  0  0
  9 10  1  0  0  0  0
  9 11  1  0  0  0  0
  9 15  1  0  0  0  0
 11 12  1  0  0  0  0
 11 13  1  0  0  0  0
 11 14  1  0  0  0  0
 15 16  2  0  0  0  0
 15 17  1  0  0  0  0
 17 18  1  0  0  0  0
 17 19  1  0  0  0  0
 19 20  1  0  0  0  0
 19 21  1  0  0  0  0
 19 22  1  0  0  0  0
M  END
$$$$

  -OEChem-11182114133D

 22 21  0     1  0  0  0  0  0999 V2000
   -2.5063   -3.5810    1.2909 H   0  0  0  0  0  0  0  0  0  0  0  0
   -2.5434   -2.5367    0.9691 C   0  0  0  0  0  0  0  0  0  0  0  0
   -2.9335   -1.9301    1.7901 H   0  0  0  0  0  0  0  0  0  0  0  0
   -3.2143   -2.4552    0.1108 H   0  0  0  0  0  0  0  0  0  0  0  0
   -1.1547   -2.0586    0.5912 C   0  0  0  0  0  0  0  0  0  0  0  0
   -0.2058   -2.8270    0.6390 O   0  0  0  0  0  0  0  0  0  0  0  0
   -0.9698   -0.7725    0.1209 N   0  0  0  0  0  0  0  0  0  0  0  0
   -1.7858   -0.1769    0.2196 H   0  0  0  0  0  0  0  0  0  0  0  0
    0.3356   -0.1050    0.2505 C   0  0  1  0  0  0  0  0  0  0  0  0
    1.0154   -0.5417   -0.4883 H   0  0  0  0  0  0  0  0  0  0  0  0
    0.1360    1.3774   -0.0743 C   0  0  0  0  0  0  0  0  0  0  0  0
   -0.5308    1.8441    0.6581 H   0  0  0  0  0  0  0  0  0  0  0  0
    1.0955    1.9034   -0.0528 H   0  0  0  0  0  0  0  0  0  0  0  0
   -0.2999    1.4947   -1.0711 H   0  0  0  0  0  0  0  0  0  0  0  0
    0.9987   -0.2543    1.6437 C   0  0  0  0  0  0  0  0  0  0  0  0
    0.3138   -0.1719    2.6582 O   0  0  0  0  0  0  0  0  0  0  0  0
    2.3768   -0.2610    1.7629 N   0  0  0  0  0  0  0  0  0  0  0  0
    2.9105   -0.4200    0.9139 H   0  0  0  0  0  0  0  0  0  0  0  0
    3.0550   -0.3929    3.0466 C   0  0  0  0  0  0  0  0  0  0  0  0
    2.7954   -1.3457    3.5200 H   0  0  0  0  0  0  0  0  0  0  0  0
    4.1396   -0.3586    2.9063 H   0  0  0  0  0  0  0  0  0  0  0  0
    2.7691    0.4237    3.7180 H   0  0  0  0  0  0  0  0  0  0  0  0
  1  2  1  0  0  0  0
  2  3  1  0  0  0  0
  2  4  1  0  0  0  0
  2  5  1  0  0  0  0
  5  6  2  0  0  0  0
  5  7  1  0  0  0  0
  7  8  1  0  0  0  0
  7  9  1  0  0  0  0
  9 10  1  0  0  0  0
  9 11  1  0  0  0  0
  9 15  1  0  0  0  0
 11 12  1  0  0  0  0
 11 13  1  0  0  0  0
 11 14  1  0  0  0  0
 15 16  2  0  0  0  0
 15 17  1  0  0  0  0
 17 18  1  0  0  0  0
 17 19  1  0  0  0  0
 19 20  1  0  0  0  0
 19 21  1  0  0  0  0
 19 22  1  0  0  0  0
M  END
$$$$

  -OEChem-11182114133D

 22 21  0     1  0  0  0  0  0999 V2000
   -2.5275   -3.5752    1.2887 H   0  0  0  0  0  0  0  0  0  0  0  0
   -2.5569   -2.5319    0.9622 C   0  0  0  0  0  0  0  0  0  0  0  0
   -2.9335   -1.9180    1.7841 H   0  0  0  0  0  0  0  0  0  0  0  0
   -3.2345   -2.4470    0.1095 H   0  0  0  0  0  0  0  0  0  0  0  0
   -1.1668   -2.0691    0.5705 C   0  0  0  0  0  0  0  0  0  0  0  0
   -0.2303   -2.8538    0.5804 O   0  0  0  0  0  0  0  0  0  0  0  0
   -0.9704   -0.7804    0.1120 N   0  0  0  0  0  0  0  0  0  0  0  0
   -1.7816   -0.1808    0.2232 H   0  0  0  0  0  0  0  0  0  0  0  0
    0.3388   -0.1229    0.2606 C   0  0  1  0  0  0  0  0  0  0  0  0
    1.0225   -0.5577   -0.4754 H   0  0  0  0  0  0  0  0  0  0  0  0
    0.1388    1.3605   -0.0609 C   0  0  0  0  0  0  0  0  0  0  0  0
   -0.5298    1.8242    0.6718 H   0  0  0  0  0  0  0  0  0  0  0  0
    1.0965    1.8895   -0.0392 H   0  0  0  0  0  0  0  0  0  0  0  0
   -0.2969    1.4786   -1.0580 H   0  0  0  0  0  0  0  0  0  0  0  0
    1.0032   -0.2763    1.6547 C   0  0  0  0  0  0  0  0  0  0  0  0
    0.3116   -0.3990    2.6605 O   0  0  0  0  0  0  0  0  0  0  0  0
    2.3457    0.0196    1.8126 N   0  0  0  0  0  0  0  0  0  0  0  0
    2.9077    0.0876    0.9700 H   0  0  0  0  0  0  0  0  0  0  0  0
    3.0214   -0.0211    3.1039 C   0  0  0  0  0  0  0  0  0  0  0  0
    2.9545   -1.0237    3.5396 H   0  0  0  0  0  0  0  0  0  0  0  0
    4.0783    0.2357    2.9861 H   0  0  0  0  0  0  0  0  0  0  0  0
    2.5684    0.6954    3.7972 H   0  0  0  0  0  0  0  0  0  0  0  0
  1  2  1  0  0  0  0
  2  3  1  0  0  0  0
  2  4  1  0  0  0  0
  2  5  1  0  0  0  0
  5  6  2  0  0  0  0
  5  7  1  0  0  0  0
  7  8  1  0  0  0  0
  7  9  1  0  0  0  0
  9 10  1  0  0  0  0
  9 11  1  0  0  0  0
  9 15  1  0  0  0  0
 11 12  1  0  0  0  0
 11 13  1  0  0  0  0
 11 14  1  0  0  0  0
 15 16  2  0  0  0  0
 15 17  1  0  0  0  0
 17 18  1  0  0  0  0
 17 19  1  0  0  0  0
 19 20  1  0  0  0  0
 19 21  1  0  0  0  0
 19 22  1  0  0  0  0
M  END
$$$$

  -OEChem-11182114133D

 22 21  0     1  0  0  0  0  0999 V2000
   -2.6336   -3.5674    1.1904 H   0  0  0  0  0  0  0  0  0  0  0  0
   -2.6055   -2.4995    0.9570 C   0  0  0  0  0  0  0  0  0  0  0  0
   -2.8698   -1.9374    1.8560 H   0  0  0  0  0  0  0  0  0  0  0  0
   -3.3359   -2.2896    0.1725 H   0  0  0  0  0  0  0  0  0  0  0  0
   -1.2153   -2.1064    0.4952 C   0  0  0  0  0  0  0  0  0  0  0  0
   -0.3590   -2.9610    0.3285 O   0  0  0  0  0  0  0  0  0  0  0  0
   -0.9587   -0.8114    0.0860 N   0  0  0  0  0  0  0  0  0  0  0  0
   -1.7526   -0.1934    0.2148 H   0  0  0  0  0  0  0  0  0  0  0  0
    0.3614   -0.1782    0.2771 C   0  0  1  0  0  0  0  0  0  0  0  0
    0.9615   -0.3997   -0.6111 H   0  0  0  0  0  0  0  0  0  0  0  0
    0.0989    1.3315    0.3393 C   0  0  0  0  0  0  0  0  0  0  0  0
   -0.4825    1.5805    1.2332 H   0  0  0  0  0  0  0  0  0  0  0  0
    1.0400    1.8886    0.3729 H   0  0  0  0  0  0  0  0  0  0  0  0
   -0.4574    1.6587   -0.5446 H   0  0  0  0  0  0  0  0  0  0  0  0
    1.2161   -0.6155    1.5041 C   0  0  0  0  0  0  0  0  0  0  0  0
    0.6949   -1.1245    2.4903 O   0  0  0  0  0  0  0  0  0  0  0  0
    2.4602   -0.0358    1.6938 N   0  0  0  0  0  0  0  0  0  0  0  0
    2.8827    0.4303    0.8975 H   0  0  0  0  0  0  0  0  0  0  0  0
    3.2555   -0.2154    2.9034 C   0  0  0  0  0  0  0  0  0  0  0  0
    3.4469   -1.2789    3.0817 H   0  0  0  0  0  0  0  0  0  0  0  0
    4.2171    0.2971    2.8037 H   0  0  0  0  0  0  0  0  0  0  0  0
    2.7319    0.1991    3.7714 H   0  0  0  0  0  0  0  0  0  0  0  0
  1  2  1  0  0  0  0
  2  3  1  0  0  0  0
  2  4  1  0  0  0  0
  2  5  1  0  0  0  0
  5  6  2  0  0  0  0
  5  7  1  0  0  0  0
  7  8  1  0  0  0  0
  7  9  1  0  0  0  0
  9 10  1  0  0  0  0
  9 11  1  0  0  0  0
  9 15  1  0  0  0  0
 11 12  1  0  0  0  0
 11 13  1  0  0  0  0
 11 14  1  0  0  0  0
 15 16  2  0  0  0  0
 15 17  1  0  0  0  0
 17 18  1  0  0  0  0
 17 19  1  0  0  0  0
 19 20  1  0  0  0  0
 19 21  1  0  0  0  0
 19 22  1  0  0  0  0
M  END
$$$$

  -OEChem-11182114133D

 22 21  0     1  0  0  0  0  0999 V2000
   -2.6336   -3.5564    1.2200 H   0  0  0  0  0  0  0  0  0  0  0  0
   -2.6009   -2.4919    0.9719 C   0  0  0  0  0  0  0  0  0  0  0  0
   -2.8482   -1.9169    1.8674 H   0  0  0  0  0  0  0  0  0  0  0  0
   -3.3406   -2.2865    0.1949 H   0  0  0  0  0  0  0  0  0  0  0  0
   -1.2149   -2.1154    0.4844 C   0  0  0  0  0  0  0  0  0  0  0  0
   -0.3906   -2.9850    0.2505 O   0  0  0  0  0  0  0  0  0  0  0  0
   -0.9464   -0.8201    0.0852 N   0  0  0  0  0  0  0  0  0  0  0  0
   -1.7388   -0.2019    0.2207 H   0  0  0  0  0  0  0  0  0  0  0  0
    0.3715   -0.1835    0.2898 C   0  0  1  0  0  0  0  0  0  0  0  0
    0.9771   -0.4130   -0.5927 H   0  0  0  0  0  0  0  0  0  0  0  0
    0.0927    1.3262    0.3142 C   0  0  0  0  0  0  0  0  0  0  0  0
   -0.4553    1.5978    1.2224 H   0  0  0  0  0  0  0  0  0  0  0  0
    1.0254    1.8969    0.2865 H   0  0  0  0  0  0  0  0  0  0  0  0
   -0.5038    1.6184   -0.5560 H   0  0  0  0  0  0  0  0  0  0  0  0
    1.2398   -0.6029    1.5198 C   0  0  0  0  0  0  0  0  0  0  0  0
    0.8178   -1.3506    2.3931 O   0  0  0  0  0  0  0  0  0  0  0  0
    2.3151    0.1929    1.8847 N   0  0  0  0  0  0  0  0  0  0  0  0
    2.6492    0.8653    1.2022 H   0  0  0  0  0  0  0  0  0  0  0  0
    3.0744    0.0118    3.1179 C   0  0  0  0  0  0  0  0  0  0  0  0
    3.4767   -1.0053    3.1746 H   0  0  0  0  0  0  0  0  0  0  0  0
    3.9106    0.7164    3.1539 H   0  0  0  0  0  0  0  0  0  0  0  0
    2.4368    0.1877    3.9907 H   0  0  0  0  0  0  0  0  0  0  0  0
  1  2  1  0  0  0  0
  2  3  1  0  0  0  0
  2  4  1  0  0  0  0
  2  5  1  0  0  0  0
  5  6  2  0  0  0  0
  5  7  1  0  0  0  0
  7  8  1  0  0  0  0
  7  9  1  0  0  0  0
  9 10  1  0  0  0  0
  9 11  1  0  0  0  0
  9 15  1  0  0  0  0
 11 12  1  0  0  0  0
 11 13  1  0  0  0  0
 11 14  1  0  0  0  0
 15 16  2  0  0  0  0
 15 17  1  0  0  0  0
 17 18  1  0  0  0  0
 17 19  1  0  0  0  0
 19 20  1  0  0  0  0
 19 21  1  0  0  0  0
 19 22  1  0  0  0  0
M  END
$$$$

  -OEChem-11182114133D

 22 21  0     1  0  0  0  0  0999 V2000
   -2.6292   -3.5390    1.2536 H   0  0  0  0  0  0  0  0  0  0  0  0
   -2.5850   -2.4759    1.0012 C   0  0  0  0  0  0  0  0  0  0  0  0
   -2.7932   -1.8943    1.9022 H   0  0  0  0  0  0  0  0  0  0  0  0
   -3.3454   -2.2590    0.2475 H   0  0  0  0  0  0  0  0  0  0  0  0
   -1.2081   -2.1265    0.4692 C   0  0  0  0  0  0  0  0  0  0  0  0
   -0.4275   -3.0143    0.1694 O   0  0  0  0  0  0  0  0  0  0  0  0
   -0.9271   -0.8324    0.0759 N   0  0  0  0  0  0  0  0  0  0  0  0
   -1.7230   -0.2166    0.2000 H   0  0  0  0  0  0  0  0  0  0  0  0
    0.3812   -0.1807    0.2998 C   0  0  1  0  0  0  0  0  0  0  0  0
    1.0032   -0.4223   -0.5681 H   0  0  0  0  0  0  0  0  0  0  0  0
    0.0859    1.3271    0.2728 C   0  0  0  0  0  0  0  0  0  0  0  0
   -0.4630    1.6259    1.1720 H   0  0  0  0  0  0  0  0  0  0  0  0
    1.0129    1.9054    0.2178 H   0  0  0  0  0  0  0  0  0  0  0  0
   -0.5165    1.5828   -0.6051 H   0  0  0  0  0  0  0  0  0  0  0  0
    1.2482   -0.5734    1.5433 C   0  0  0  0  0  0  0  0  0  0  0  0
    1.0409   -1.5686    2.2218 O   0  0  0  0  0  0  0  0  0  0  0  0
    2.0941    0.3685    2.1104 N   0  0  0  0  0  0  0  0  0  0  0  0
    2.2470    1.2295    1.5962 H   0  0  0  0  0  0  0  0  0  0  0  0
    2.8332    0.1525    3.3504 C   0  0  0  0  0  0  0  0  0  0  0  0
    3.4730   -0.7323    3.2663 H   0  0  0  0  0  0  0  0  0  0  0  0
    3.4672    1.0169    3.5694 H   0  0  0  0  0  0  0  0  0  0  0  0
    2.1428    0.0094    4.1883 H   0  0  0  0  0  0  0  0  0  0  0  0
  1  2  1  0  0  0  0
  2  3  1  0  0  0  0
  2  4  1  0  0  0  0
  2  5  1  0  0  0  0
  5  6  2  0  0  0  0
  5  7  1  0  0  0  0
  7  8  1  0  0  0  0
  7  9  1  0  0  0  0
  9 10  1  0  0  0  0
  9 11  1  0  0  0  0
  9 15  1  0  0  0  0
 11 12  1  0  0  0  0
 11 13  1  0  0  0  0
 11 14  1  0  0  0  0
 15 16  2  0  0  0  0
 15 17  1  0  0  0  0
 17 18  1  0  0  0  0
 17 19  1  0  0  0  0
 19 20  1  0  0  0  0
 19 21  1  0  0  0  0
 19 22  1  0  0  0  0
M  END
$$$$

  -OEChem-11182114133D

 22 21  0     1  0  0  0  0  0999 V2000
   -2.6803   -3.5185    1.2557 H   0  0  0  0  0  0  0  0  0  0  0  0
   -2.6116   -2.4589    0.9937 C   0  0  0  0  0  0  0  0  0  0  0  0
   -2.8442   -1.8643    1.8801 H   0  0  0  0  0  0  0  0  0  0  0  0
   -3.3415   -2.2405    0.2109 H   0  0  0  0  0  0  0  0  0  0  0  0
   -1.2118   -2.1356    0.5060 C   0  0  0  0  0  0  0  0  0  0  0  0
   -0.4430   -3.0438    0.2485 O   0  0  0  0  0  0  0  0  0  0  0  0
   -0.9112   -0.8514    0.0951 N   0  0  0  0  0  0  0  0  0  0  0  0
   -1.7129   -0.2338    0.1569 H   0  0  0  0  0  0  0  0  0  0  0  0
    0.3869   -0.1824    0.3270 C   0  0  1  0  0  0  0  0  0  0  0  0
    1.0309   -0.4510   -0.5167 H   0  0  0  0  0  0  0  0  0  0  0  0
    0.0931    1.3228    0.2324 C   0  0  0  0  0  0  0  0  0  0  0  0
   -0.5028    1.6541    1.0891 H   0  0  0  0  0  0  0  0  0  0  0  0
    1.0241    1.8977    0.2045 H   0  0  0  0  0  0  0  0  0  0  0  0
   -0.4623    1.5449   -0.6848 H   0  0  0  0  0  0  0  0  0  0  0  0
    1.2283   -0.5413    1.5964 C   0  0  0  0  0  0  0  0  0  0  0  0
    1.3610   -1.6769    2.0220 O   0  0  0  0  0  0  0  0  0  0  0  0
    1.8074    0.4655    2.3548 N   0  0  0  0  0  0  0  0  0  0  0  0
    1.7106    1.4184    2.0208 H   0  0  0  0  0  0  0  0  0  0  0  0
    2.5862    0.2216    3.5648 C   0  0  0  0  0  0  0  0  0  0  0  0
    3.4531   -0.4093    3.3417 H   0  0  0  0  0  0  0  0  0  0  0  0
    2.9458    1.1674    3.9810 H   0  0  0  0  0  0  0  0  0  0  0  0
    1.9725   -0.2778    4.3220 H   0  0  0  0  0  0  0  0  0  0  0  0
  1  2  1  0  0  0  0
  2  3  1  0  0  0  0
  2  4  1  0  0  0  0
  2  5  1  0  0  0  0
  5  6  2  0  0  0  0
  5  7  1  0  0  0  0
  7  8  1  0  0  0  0
  7  9  1  0  0  0  0
  9 10  1  0  0  0  0
  9 11  1  0  0  0  0
  9 15  1  0  0  0  0
 11 12  1  0  0  0  0
 11 13  1  0  0  0  0
 11 14  1  0  0  0  0
 15 16  2  0  0  0  0
 15 17  1  0  0  0  0
 17 18  1  0  0  0  0
 17 19  1  0  0  0  0
 19 20  1  0  0  0  0
 19 21  1  0  0  0  0
 19 22  1  0  0  0  0
M  END
$$$$

  -OEChem-11182114133D

 22 21  0     1  0  0  0  0  0999 V2000
   -2.9625   -3.5730    0.9733 H   0  0  0  0  0  0  0  0  0  0  0  0
   -2.7921   -2.5985    0.5063 C   0  0  0  0  0  0  0  0  0  0  0  0
   -3.6115   -1.9298    0.7802 H   0  0  0  0  0  0  0  0  0  0  0  0
   -2.7802   -2.7279   -0.5786 H   0  0  0  0  0  0  0  0  0  0  0  0
   -1.4698   -2.0193    0.9748 C   0  0  0  0  0  0  0  0  0  0  0  0
   -0.8467   -2.6119    1.8326 O   0  0  0  0  0  0  0  0  0  0  0  0
   -1.0747   -0.7887    0.4807 N   0  0  0  0  0  0  0  0  0  0  0  0
   -1.7079   -0.4044   -0.2126 H   0  0  0  0  0  0  0  0  0  0  0  0
    0.2693   -0.1718    0.5377 C   0  0  1  0  0  0  0  0  0  0  0  0
    0.8138   -0.4986   -0.3544 H   0  0  0  0  0  0  0  0  0  0  0  0
    0.0287    1.3403    0.4174 C   0  0  0  0  0  0  0  0  0  0  0  0
   -0.5199    1.7143    1.2879 H   0  0  0  0  0  0  0  0  0  0  0  0
    0.9809    1.8754    0.3418 H   0  0  0  0  0  0  0  0  0  0  0  0
   -0.5548    1.5637   -0.4812 H   0  0  0  0  0  0  0  0  0  0  0  0
    1.2145   -0.5121    1.7282 C   0  0  0  0  0  0  0  0  0  0  0  0
    1.8812   -1.5374    1.6808 O   0  0  0  0  0  0  0  0  0  0  0  0
    1.6747    0.4784    2.5831 N   0  0  0  0  0  0  0  0  0  0  0  0
    1.1405    1.3399    2.6164 H   0  0  0  0  0  0  0  0  0  0  0  0
    2.6855    0.2421    3.6082 C   0  0  0  0  0  0  0  0  0  0  0  0
    3.6377   -0.0444    3.1492 H   0  0  0  0  0  0  0  0  0  0  0  0
    2.8461    1.1498    4.1974 H   0  0  0  0  0  0  0  0  0  0  0  0
    2.3658   -0.5579    4.2845 H   0  0  0  0  0  0  0  0  0  0  0  0
  1  2  1  0  0  0  0
  2  3  1  0  0  0  0
  2  4  1  0  0  0  0
  2  5  1  0  0  0  0
  5  6  2  0  0  0  0
  5  7  1  0  0  0  0
  7  8  1  0  0  0  0
  7  9  1  0  0  0  0
  9 10  1  0  0  0  0
  9 11  1  0  0  0  0
  9 15  1  0  0  0  0
 11 12  1  0  0  0  0
 11 13  1  0  0  0  0
 11 14  1  0  0  0  0
 15 16  2  0  0  0  0
 15 17  1  0  0  0  0
 17 18  1  0  0  0  0
 17 19  1  0  0  0  0
 19 20  1  0  0  0  0
 19 21  1  0  0  0  0
 19 22  1  0  0  0  0
M  END
$$$$

  -OEChem-11182114133D

 22 21  0     1  0  0  0  0  0999 V2000
   -2.9449   -3.5707    1.0023 H   0  0  0  0  0  0  0  0  0  0  0  0
   -2.7929   -2.5918    0.5382 C   0  0  0  0  0  0  0  0  0  0  0  0
   -3.5924   -1.9212    0.8620 H   0  0  0  0  0  0  0  0  0  0  0  0
   -2.8392   -2.7084   -0.5472 H   0  0  0  0  0  0  0  0  0  0  0  0
   -1.4442   -2.0259    0.9433 C   0  0  0  0  0  0  0  0  0  0  0  0
   -0.7661   -2.6425    1.7411 O   0  0  0  0  0  0  0  0  0  0  0  0
   -1.0660   -0.7906    0.4482 N   0  0  0  0  0  0  0  0  0  0  0  0
   -1.7176   -0.3915   -0.2196 H   0  0  0  0  0  0  0  0  0  0  0  0
    0.2745   -0.1690    0.5052 C   0  0  1  0  0  0  0  0  0  0  0  0
    0.8215   -0.4905   -0.3875 H   0  0  0  0  0  0  0  0  0  0  0  0
    0.0438    1.3448    0.3989 C   0  0  0  0  0  0  0  0  0  0  0  0
   -0.5448    1.7085    1.2471 H   0  0  0  0  0  0  0  0  0  0  0  0
    1.0012    1.8761    0.3807 H   0  0  0  0  0  0  0  0  0  0  0  0
   -0.4944    1.5835   -0.5236 H   0  0  0  0  0  0  0  0  0  0  0  0
    1.2074   -0.5188    1.6999 C   0  0  0  0  0  0  0  0  0  0  0  0
    2.0267   -1.4186    1.5655 O   0  0  0  0  0  0  0  0  0  0  0  0
    1.4175    0.3804    2.7336 N   0  0  0  0  0  0  0  0  0  0  0  0
    0.7218    1.1087    2.8526 H   0  0  0  0  0  0  0  0  0  0  0  0
    2.3714    0.1423    3.8106 C   0  0  0  0  0  0  0  0  0  0  0  0
    3.3884    0.0635    3.4122 H   0  0  0  0  0  0  0  0  0  0  0  0
    2.3463    0.9679    4.5280 H   0  0  0  0  0  0  0  0  0  0  0  0
    2.1272   -0.7851    4.3395 H   0  0  0  0  0  0  0  0  0  0  0  0
  1  2  1  0  0  0  0
  2  3  1  0  0  0  0
  2  4  1  0  0  0  0
  2  5  1  0  0  0  0
  5  6  2  0  0  0  0
  5  7  1  0  0  0  0
  7  8  1  0  0  0  0
  7  9  1  0  0  0  0
  9 10  1  0  0  0  0
  9 11  1  0  0  0  0
  9 15  1  0  0  0  0
 11 12  1  0  0  0  0
 11 13  1  0  0  0  0
 11 14  1  0  0  0  0
 15 16  2  0  0  0  0
 15 17  1  0  0  0  0
 17 18  1  0  0  0  0
 17 19  1  0  0  0  0
 19 20  1  0  0  0  0
 19 21  1  0  0  0  0
 19 22  1  0  0  0  0
M  END
$$$$

  -OEChem-11182114133D

 22 21  0     1  0  0  0  0  0999 V2000
   -2.9042   -3.5929    0.9788 H   0  0  0  0  0  0  0  0  0  0  0  0
   -2.7876   -2.5884    0.5617 C   0  0  0  0  0  0  0  0  0  0  0  0
   -3.5759   -1.9471    0.9630 H   0  0  0  0  0  0  0  0  0  0  0  0
   -2.8906   -2.6470   -0.5246 H   0  0  0  0  0  0  0  0  0  0  0  0
   -1.4255   -2.0269    0.9260 C   0  0  0  0  0  0  0  0  0  0  0  0
   -0.7115   -2.6573    1.6817 O   0  0  0  0  0  0  0  0  0  0  0  0
   -1.0591   -0.7899    0.4263 N   0  0  0  0  0  0  0  0  0  0  0  0
   -1.7268   -0.3783   -0.2177 H   0  0  0  0  0  0  0  0  0  0  0  0
    0.2796   -0.1654    0.4785 C   0  0  1  0  0  0  0  0  0  0  0  0
    0.8246   -0.4852   -0.4163 H   0  0  0  0  0  0  0  0  0  0  0  0
    0.0615    1.3500    0.3858 C   0  0  0  0  0  0  0  0  0  0  0  0
   -0.5369    1.7097    1.2286 H   0  0  0  0  0  0  0  0  0  0  0  0
    1.0237    1.8727    0.3912 H   0  0  0  0  0  0  0  0  0  0  0  0
   -0.4594    1.6032   -0.5427 H   0  0  0  0  0  0  0  0  0  0  0  0
    1.2061   -0.5190    1.6739 C   0  0  0  0  0  0  0  0  0  0  0  0
    2.1663   -1.2544    1.4826 O   0  0  0  0  0  0  0  0  0  0  0  0
    1.1783    0.2264    2.8412 N   0  0  0  0  0  0  0  0  0  0  0  0
    0.3381    0.7696    3.0080 H   0  0  0  0  0  0  0  0  0  0  0  0
    2.0688   -0.0402    3.9643 C   0  0  0  0  0  0  0  0  0  0  0  0
    3.1138    0.0946    3.6658 H   0  0  0  0  0  0  0  0  0  0  0  0
    1.8552    0.6471    4.7885 H   0  0  0  0  0  0  0  0  0  0  0  0
    1.9341   -1.0662    4.3232 H   0  0  0  0  0  0  0  0  0  0  0  0
  1  2  1  0  0  0  0
  2  3  1  0  0  0  0
  2  4  1  0  0  0  0
  2  5  1  0  0  0  0
  5  6  2  0  0  0  0
  5  7  1  0  0  0  0
  7  8  1  0  0  0  0
  7  9  1  0  0  0  0
  9 10  1  0  0  0  0
  9 11  1  0  0  0  0
  9 15  1  0  0  0  0
 11 12  1  0  0  0  0
 11 13  1  0  0  0  0
 11 14  1  0  0  0  0
 15 16  2  0  0  0  0
 15 17  1  0  0  0  0
 17 18  1  0  0  0  0
 17 19  1  0  0  0  0
 19 20  1  0  0  0  0
 19 21  1  0  0  0  0
 19 22  1  0  0  0  0
M  END
$$$$

  -OEChem-11182114133D

 22 21  0     1  0  0  0  0  0999 V2000
   -2.9038   -3.5801    1.0067 H   0  0  0  0  0  0  0  0  0  0  0  0
   -2.7863   -2.5822    0.5742 C   0  0  0  0  0  0  0  0  0  0  0  0
   -3.5604   -1.9289    0.9837 H   0  0  0  0  0  0  0  0  0  0  0  0
   -2.9120   -2.6531   -0.5090 H   0  0  0  0  0  0  0  0  0  0  0  0
   -1.4118   -2.0293    0.9028 C   0  0  0  0  0  0  0  0  0  0  0  0
   -0.6721   -2.6728    1.6228 O   0  0  0  0  0  0  0  0  0  0  0  0
   -1.0522   -0.7897    0.4051 N   0  0  0  0  0  0  0  0  0  0  0  0
   -1.7321   -0.3631   -0.2163 H   0  0  0  0  0  0  0  0  0  0  0  0
    0.2850   -0.1621    0.4593 C   0  0  1  0  0  0  0  0  0  0  0  0
    0.8299   -0.4734   -0.4386 H   0  0  0  0  0  0  0  0  0  0  0  0
    0.0740    1.3543    0.3894 C   0  0  0  0  0  0  0  0  0  0  0  0
   -0.5206    1.7043    1.2390 H   0  0  0  0  0  0  0  0  0  0  0  0
    1.0395    1.8706    0.4032 H   0  0  0  0  0  0  0  0  0  0  0  0
   -0.4457    1.6249   -0.5347 H   0  0  0  0  0  0  0  0  0  0  0  0
    1.2072   -0.5180    1.6544 C   0  0  0  0  0  0  0  0  0  0  0  0
    2.2918   -1.0429    1.4350 O   0  0  0  0  0  0  0  0  0  0  0  0
    0.9659    0.0117    2.9105 N   0  0  0  0  0  0  0  0  0  0  0  0
    0.0170    0.3277    3.0806 H   0  0  0  0  0  0  0  0  0  0  0  0
    1.8092   -0.2930    4.0596 C   0  0  0  0  0  0  0  0  0  0  0  0
    2.8368    0.0413    3.8823 H   0  0  0  0  0  0  0  0  0  0  0  0
    1.4314    0.2163    4.9513 H   0  0  0  0  0  0  0  0  0  0  0  0
    1.8177   -1.3712    4.2516 H   0  0  0  0  0  0  0  0  0  0  0  0
  1  2  1  0  0  0  0
  2  3  1  0  0  0  0
  2  4  1  0  0  0  0
  2  5  1  0  0  0  0
  5  6  2  0  0  0  0
  5  7  1  0  0  0  0
  7  8  1  0  0  0  0
  7  9  1  0  0  0  0
  9 10  1  0  0  0  0
  9 11  1  0  0  0  0
  9 15  1  0  0  0  0
 11 12  1  0  0  0  0
 11 13  1  0  0  0  0
 11 14  1  0  0  0  0
 15 16  2  0  0  0  0
 15 17  1  0  0  0  0
 17 18  1  0  0  0  0
 17 19  1  0  0  0  0
 19 20  1  0  0  0  0
 19 21  1  0  0  0  0
 19 22  1  0  0  0  0
M  END
$$$$

  -OEChem-11182114133D

 22 21  0     1  0  0  0  0  0999 V2000
   -2.9091   -3.5810    0.9722 H   0  0  0  0  0  0  0  0  0  0  0  0
   -2.7977   -2.5695    0.5708 C   0  0  0  0  0  0  0  0  0  0  0  0
   -3.5531   -1.9248    1.0267 H   0  0  0  0  0  0  0  0  0  0  0  0
   -2.9586   -2.6022   -0.5095 H   0  0  0  0  0  0  0  0  0  0  0  0
   -1.4095   -2.0371    0.8737 C   0  0  0  0  0  0  0  0  0  0  0  0
   -0.6581   -2.6992    1.5645 O   0  0  0  0  0  0  0  0  0  0  0  0
   -1.0441   -0.7972    0.3819 N   0  0  0  0  0  0  0  0  0  0  0  0
   -1.7299   -0.3512   -0.2195 H   0  0  0  0  0  0  0  0  0  0  0  0
    0.2924   -0.1690    0.4495 C   0  0  1  0  0  0  0  0  0  0  0  0
    0.8436   -0.4740   -0.4467 H   0  0  0  0  0  0  0  0  0  0  0  0
    0.0840    1.3478    0.3975 C   0  0  0  0  0  0  0  0  0  0  0  0
   -0.4829    1.6910    1.2684 H   0  0  0  0  0  0  0  0  0  0  0  0
    1.0512    1.8610    0.3884 H   0  0  0  0  0  0  0  0  0  0  0  0
   -0.4615    1.6292   -0.5082 H   0  0  0  0  0  0  0  0  0  0  0  0
    1.2065   -0.5215    1.6500 C   0  0  0  0  0  0  0  0  0  0  0  0
    2.3825   -0.7945    1.4433 O   0  0  0  0  0  0  0  0  0  0  0  0
    0.7940   -0.2543    2.9435 N   0  0  0  0  0  0  0  0  0  0  0  0
   -0.2113   -0.2022    3.0721 H   0  0  0  0  0  0  0  0  0  0  0  0
    1.6164   -0.5807    4.1014 C   0  0  0  0  0  0  0  0  0  0  0  0
    2.5769   -0.0570    4.0506 H   0  0  0  0  0  0  0  0  0  0  0  0
    1.1091   -0.2783    5.0224 H   0  0  0  0  0  0  0  0  0  0  0  0
    1.8041   -1.6588    4.1444 H   0  0  0  0  0  0  0  0  0  0  0  0
  1  2  1  0  0  0  0
  2  3  1  0  0  0  0
  2  4  1  0  0  0  0
  2  5  1  0  0  0  0
  5  6  2  0  0  0  0
  5  7  1  0  0  0  0
  7  8  1  0  0  0  0
  7  9  1  0  0  0  0
  9 10  1  0  0  0  0
  9 11  1  0  0  0  0
  9 15  1  0  0  0  0
 11 12  1  0  0  0  0
 11 13  1  0  0  0  0
 11 14  1  0  0  0  0
 15 16  2  0  0  0  0
 15 17  1  0  0  0  0
 17 18  1  0  0  0  0
 17 19  1  0  0  0  0
 19 20  1  0  0  0  0
 19 21  1  0  0  0  0
 19 22  1  0  0  0  0
M  END
$$$$

  -OEChem-11182114133D

 22 21  0     1  0  0  0  0  0999 V2000
   -2.9700   -3.5622    0.9192 H   0  0  0  0  0  0  0  0  0  0  0  0
   -2.8371   -2.5497    0.5272 C   0  0  0  0  0  0  0  0  0  0  0  0
   -3.5812   -1.8945    0.9863 H   0  0  0  0  0  0  0  0  0  0  0  0
   -2.9949   -2.5701   -0.5539 H   0  0  0  0  0  0  0  0  0  0  0  0
   -1.4396   -2.0473    0.8387 C   0  0  0  0  0  0  0  0  0  0  0  0
   -0.6989   -2.7317    1.5196 O   0  0  0  0  0  0  0  0  0  0  0  0
   -1.0479   -0.8100    0.3625 N   0  0  0  0  0  0  0  0  0  0  0  0
   -1.7313   -0.3349   -0.2192 H   0  0  0  0  0  0  0  0  0  0  0  0
    0.2920   -0.1890    0.4549 C   0  0  1  0  0  0  0  0  0  0  0  0
    0.8524   -0.4868   -0.4378 H   0  0  0  0  0  0  0  0  0  0  0  0
    0.0811    1.3278    0.4173 C   0  0  0  0  0  0  0  0  0  0  0  0
   -0.4788    1.6602    1.2974 H   0  0  0  0  0  0  0  0  0  0  0  0
    1.0471    1.8436    0.4063 H   0  0  0  0  0  0  0  0  0  0  0  0
   -0.4715    1.6174   -0.4815 H   0  0  0  0  0  0  0  0  0  0  0  0
    1.2056   -0.5327    1.6593 C   0  0  0  0  0  0  0  0  0  0  0  0
    2.4196   -0.5336    1.4957 O   0  0  0  0  0  0  0  0  0  0  0  0
    0.6995   -0.5587    2.9463 N   0  0  0  0  0  0  0  0  0  0  0  0
   -0.2843   -0.8080    2.9976 H   0  0  0  0  0  0  0  0  0  0  0  0
    1.5356   -0.8764    4.0968 C   0  0  0  0  0  0  0  0  0  0  0  0
    2.3640   -0.1649    4.1790 H   0  0  0  0  0  0  0  0  0  0  0  0
    0.9461   -0.8243    5.0170 H   0  0  0  0  0  0  0  0  0  0  0  0
    1.9470   -1.8869    4.0025 H   0  0  0  0  0  0  0  0  0  0  0  0
  1  2  1  0  0  0  0
  2  3  1  0  0  0  0
  2  4  1  0  0  0  0
  2  5  1  0  0  0  0
  5  6  2  0  0  0  0
  5  7  1  0  0  0  0
  7  8  1  0  0  0  0
  7  9  1  0  0  0  0
  9 10  1  0  0  0  0
  9 11  1  0  0  0  0
  9 15  1  0  0  0  0
 11 12  1  0  0  0  0
 11 13  1  0  0  0  0
 11 14  1  0  0  0  0
 15 16  2  0  0  0  0
 15 17  1  0  0  0  0
 17 18  1  0  0  0  0
 17 19  1  0  0  0  0
 19 20  1  0  0  0  0
 19 21  1  0  0  0  0
 19 22  1  0  0  0  0
M  END
$$$$

  -OEChem-11182114133D

 22 21  0     1  0  0  0  0  0999 V2000
   -3.0564   -3.5255    0.8560 H   0  0  0  0  0  0  0  0  0  0  0  0
   -2.8914   -2.5122    0.4786 C   0  0  0  0  0  0  0  0  0  0  0  0
   -3.6060   -1.8380    0.9568 H   0  0  0  0  0  0  0  0  0  0  0  0
   -3.0630   -2.5094   -0.6006 H   0  0  0  0  0  0  0  0  0  0  0  0
   -1.4733   -2.0655    0.7813 C   0  0  0  0  0  0  0  0  0  0  0  0
   -0.7423   -2.7982    1.4216 O   0  0  0  0  0  0  0  0  0  0  0  0
   -1.0482   -0.8289    0.3349 N   0  0  0  0  0  0  0  0  0  0  0  0
   -1.7337   -0.3087   -0.2043 H   0  0  0  0  0  0  0  0  0  0  0  0
    0.2926   -0.2131    0.4641 C   0  0  1  0  0  0  0  0  0  0  0  0
    0.8670   -0.5010   -0.4227 H   0  0  0  0  0  0  0  0  0  0  0  0
    0.0680    1.3027    0.4330 C   0  0  0  0  0  0  0  0  0  0  0  0
   -0.4956    1.6251    1.3145 H   0  0  0  0  0  0  0  0  0  0  0  0
    1.0282    1.8290    0.4251 H   0  0  0  0  0  0  0  0  0  0  0  0
   -0.4863    1.5923   -0.4648 H   0  0  0  0  0  0  0  0  0  0  0  0
    1.2056   -0.5496    1.6748 C   0  0  0  0  0  0  0  0  0  0  0  0
    2.4014   -0.2974    1.5867 O   0  0  0  0  0  0  0  0  0  0  0  0
    0.6866   -0.8850    2.9115 N   0  0  0  0  0  0  0  0  0  0  0  0
   -0.1992   -1.3852    2.8503 H   0  0  0  0  0  0  0  0  0  0  0  0
    1.5418   -1.1857    4.0527 C   0  0  0  0  0  0  0  0  0  0  0  0
    2.1816   -0.3294    4.2911 H   0  0  0  0  0  0  0  0  0  0  0  0
    0.9304   -1.4122    4.9313 H   0  0  0  0  0  0  0  0  0  0  0  0
    2.1768   -2.0514    3.8374 H   0  0  0  0  0  0  0  0  0  0  0  0
  1  2  1  0  0  0  0
  2  3  1  0  0  0  0
  2  4  1  0  0  0  0
  2  5  1  0  0  0  0
  5  6  2  0  0  0  0
  5  7  1  0  0  0  0
  7  8  1  0  0  0  0
  7  9  1  0  0  0  0
  9 10  1  0  0  0  0
  9 11  1  0  0  0  0
  9 15  1  0  0  0  0
 11 12  1  0  0  0  0
 11 13  1  0  0  0  0
 11 14  1  0  0  0  0
 15 16  2  0  0  0  0
 15 17  1  0  0  0  0
 17 18  1  0  0  0  0
 17 19  1  0  0  0  0
 19 20  1  0  0  0  0
 19 21  1  0  0  0  0
 19 22  1  0  0  0  0
M  END
$$$$

  -OEChem-11182114133D

 22 21  0     1  0  0  0  0  0999 V2000
   -3.1246   -3.4883    0.8146 H   0  0  0  0  0  0  0  0  0  0  0  0
   -2.9337   -2.4721    0.4573 C   0  0  0  0  0  0  0  0  0  0  0  0
   -3.6007   -1.7842    0.9825 H   0  0  0  0  0  0  0  0  0  0  0  0
   -3.1485   -2.4317   -0.6135 H   0  0  0  0  0  0  0  0  0  0  0  0
   -1.4873   -2.0901    0.7115 C   0  0  0  0  0  0  0  0  0  0  0  0
   -0.7473   -2.8919    1.2520 O   0  0  0  0  0  0  0  0  0  0  0  0
   -1.0390   -0.8503    0.2980 N   0  0  0  0  0  0  0  0  0  0  0  0
   -1.7399   -0.2786   -0.1638 H   0  0  0  0  0  0  0  0  0  0  0  0
    0.2968   -0.2310    0.4683 C   0  0  1  0  0  0  0  0  0  0  0  0
    0.8905   -0.5078   -0.4088 H   0  0  0  0  0  0  0  0  0  0  0  0
    0.0496    1.2830    0.4352 C   0  0  0  0  0  0  0  0  0  0  0  0
   -0.5175    1.5975    1.3173 H   0  0  0  0  0  0  0  0  0  0  0  0
    1.0004    1.8262    0.4242 H   0  0  0  0  0  0  0  0  0  0  0  0
   -0.5098    1.5639   -0.4622 H   0  0  0  0  0  0  0  0  0  0  0  0
    1.2032   -0.5595    1.6907 C   0  0  0  0  0  0  0  0  0  0  0  0
    2.3409   -0.1043    1.7032 O   0  0  0  0  0  0  0  0  0  0  0  0
    0.7414   -1.1885    2.8312 N   0  0  0  0  0  0  0  0  0  0  0  0
   -0.0509   -1.8097    2.6628 H   0  0  0  0  0  0  0  0  0  0  0  0
    1.6134   -1.5067    3.9549 C   0  0  0  0  0  0  0  0  0  0  0  0
    2.0597   -0.5948    4.3652 H   0  0  0  0  0  0  0  0  0  0  0  0
    1.0406   -1.9957    4.7485 H   0  0  0  0  0  0  0  0  0  0  0  0
    2.4162   -2.1806    3.6384 H   0  0  0  0  0  0  0  0  0  0  0  0
  1  2  1  0  0  0  0
  2  3  1  0  0  0  0
  2  4  1  0  0  0  0
  2  5  1  0  0  0  0
  5  6  2  0  0  0  0
  5  7  1  0  0  0  0
  7  8  1  0  0  0  0
  7  9  1  0  0  0  0
  9 10  1  0  0  0  0
  9 11  1  0  0  0  0
  9 15  1  0  0  0  0
 11 12  1  0  0  0  0
 11 13  1  0  0  0  0
 11 14  1  0  0  0  0
 15 16  2  0  0  0  0
 15 17  1  0  0  0  0
 17 18  1  0  0  0  0
 17 19  1  0  0  0  0
 19 20  1  0  0  0  0
 19 21  1  0  0  0  0
 19 22  1  0  0  0  0
M  END
$$$$

  -OEChem-11182114133D

 22 21  0     1  0  0  0  0  0999 V2000
   -3.1642   -3.4504    0.8180 H   0  0  0  0  0  0  0  0  0  0  0  0
   -2.9586   -2.4346    0.4685 C   0  0  0  0  0  0  0  0  0  0  0  0
   -3.5667   -1.7351    1.0472 H   0  0  0  0  0  0  0  0  0  0  0  0
   -3.2364   -2.3639   -0.5860 H   0  0  0  0  0  0  0  0  0  0  0  0
   -1.4866   -2.1093    0.6402 C   0  0  0  0  0  0  0  0  0  0  0  0
   -0.7326   -2.9731    1.0502 O   0  0  0  0  0  0  0  0  0  0  0  0
   -1.0268   -0.8637    0.2589 N   0  0  0  0  0  0  0  0  0  0  0  0
   -1.7480   -0.2463   -0.1015 H   0  0  0  0  0  0  0  0  0  0  0  0
    0.3038   -0.2419    0.4649 C   0  0  1  0  0  0  0  0  0  0  0  0
    0.9132   -0.5085   -0.4047 H   0  0  0  0  0  0  0  0  0  0  0  0
    0.0377    1.2704    0.4290 C   0  0  0  0  0  0  0  0  0  0  0  0
   -0.5300    1.5797    1.3126 H   0  0  0  0  0  0  0  0  0  0  0  0
    0.9803    1.8276    0.4115 H   0  0  0  0  0  0  0  0  0  0  0  0
   -0.5282    1.5426   -0.4673 H   0  0  0  0  0  0  0  0  0  0  0  0
    1.2009   -0.5749    1.6975 C   0  0  0  0  0  0  0  0  0  0  0  0
    2.2474    0.0480    1.8365 O   0  0  0  0  0  0  0  0  0  0  0  0
    0.8521   -1.4620    2.6976 N   0  0  0  0  0  0  0  0  0  0  0  0
    0.1417   -2.1454    2.4306 H   0  0  0  0  0  0  0  0  0  0  0  0
    1.7404   -1.8044    3.8013 C   0  0  0  0  0  0  0  0  0  0  0  0
    1.9937   -0.9109    4.3814 H   0  0  0  0  0  0  0  0  0  0  0  0
    1.2520   -2.5205    4.4689 H   0  0  0  0  0  0  0  0  0  0  0  0
    2.6646   -2.2546    3.4244 H   0  0  0  0  0  0  0  0  0  0  0  0
  1  2  1  0  0  0  0
  2  3  1  0  0  0  0
  2  4  1  0  0  0  0
  2  5  1  0  0  0  0
  5  6  2  0  0  0  0
  5  7  1  0  0  0  0
  7  8  1  0  0  0  0
  7  9  1  0  0  0  0
  9 10  1  0  0  0  0
  9 11  1  0  0  0  0
  9 15  1  0  0  0  0
 11 12  1  0  0  0  0
 11 13  1  0  0  0  0
 11 14  1  0  0  0  0
 15 16  2  0  0  0  0
 15 17  1  0  0  0  0
 17 18  1  0  0  0  0
 17 19  1  0  0  0  0
 19 20  1  0  0  0  0
 19 21  1  0  0  0  0
 19 22  1  0  0  0  0
M  END
$$$$

  -OEChem-11182114133D

 22 21  0     1  0  0  0  0  0999 V2000
   -2.8264   -3.5418    1.2133 H   0  0  0  0  0  0  0  0  0  0  0  0
   -2.6762   -2.5543    0.7678 C   0  0  0  0  0  0  0  0  0  0  0  0
   -3.2111   -1.8144    1.3681 H   0  0  0  0  0  0  0  0  0  0  0  0
   -3.0853   -2.5587   -0.2453 H   0  0  0  0  0  0  0  0  0  0  0  0
   -1.1972   -2.2188    0.7292 C   0  0  0  0  0  0  0  0  0  0  0  0
   -0.3821   -3.0846    0.9845 O   0  0  0  0  0  0  0  0  0  0  0  0
   -0.7894   -1.0227    0.1787 N   0  0  0  0  0  0  0  0  0  0  0  0
   -1.5698   -0.4650   -0.1530 H   0  0  0  0  0  0  0  0  0  0  0  0
    0.4009   -0.2227    0.5437 C   0  0  1  0  0  0  0  0  0  0  0  0
    1.2212   -0.5978   -0.0764 H   0  0  0  0  0  0  0  0  0  0  0  0
    0.0673    1.2027    0.0728 C   0  0  0  0  0  0  0  0  0  0  0  0
   -0.7089    1.6436    0.7064 H   0  0  0  0  0  0  0  0  0  0  0  0
    0.9557    1.8411    0.1186 H   0  0  0  0  0  0  0  0  0  0  0  0
   -0.2856    1.1950   -0.9632 H   0  0  0  0  0  0  0  0  0  0  0  0
    0.9861   -0.2158    1.9979 C   0  0  0  0  0  0  0  0  0  0  0  0
    1.4539    0.8181    2.4524 O   0  0  0  0  0  0  0  0  0  0  0  0
    0.7274   -1.0890    3.0265 N   0  0  0  0  0  0  0  0  0  0  0  0
    0.7928   -0.5811    3.9045 H   0  0  0  0  0  0  0  0  0  0  0  0
    1.4669   -2.3460    3.0569 C   0  0  0  0  0  0  0  0  0  0  0  0
    2.2954   -2.2748    3.7684 H   0  0  0  0  0  0  0  0  0  0  0  0
    0.8099   -3.1638    3.3692 H   0  0  0  0  0  0  0  0  0  0  0  0
    1.8869   -2.5921    2.0755 H   0  0  0  0  0  0  0  0  0  0  0  0
  1  2  1  0  0  0  0
  2  3  1  0  0  0  0
  2  4  1  0  0  0  0
  2  5  1  0  0  0  0
  5  6  2  0  0  0  0
  5  7  1  0  0  0  0
  7  8  1  0  0  0  0
  7  9  1  0  0  0  0
  9 10  1  0  0  0  0
  9 11  1  0  0  0  0
  9 15  1  0  0  0  0
 11 12  1  0  0  0  0
 11 13  1  0  0  0  0
 11 14  1  0  0  0  0
 15 16  2  0  0  0  0
 15 17  1  0  0  0  0
 17 18  1  0  0  0  0
 17 19  1  0  0  0  0
 19 20  1  0  0  0  0
 19 21  1  0  0  0  0
 19 22  1  0  0  0  0
M  END
$$$$

  -OEChem-11182114133D

 22 21  0     1  0  0  0  0  0999 V2000
   -2.5612   -3.7183    1.5023 H   0  0  0  0  0  0  0  0  0  0  0  0
   -2.5707   -2.6586    1.2311 C   0  0  0  0  0  0  0  0  0  0  0  0
   -2.8551   -2.0743    2.1094 H   0  0  0  0  0  0  0  0  0  0  0  0
   -3.3109   -2.5043    0.4421 H   0  0  0  0  0  0  0  0  0  0  0  0
   -1.1981   -2.2319    0.7454 C   0  0  0  0  0  0  0  0  0  0  0  0
   -0.3475   -3.0774    0.5422 O   0  0  0  0  0  0  0  0  0  0  0  0
   -0.9897   -0.9200    0.3760 N   0  0  0  0  0  0  0  0  0  0  0  0
   -1.8131   -0.3351    0.4748 H   0  0  0  0  0  0  0  0  0  0  0  0
    0.2939   -0.1866    0.3009 C   0  0  1  0  0  0  0  0  0  0  0  0
    0.6722   -0.3485   -0.7137 H   0  0  0  0  0  0  0  0  0  0  0  0
   -0.1063    1.2918    0.4356 C   0  0  0  0  0  0  0  0  0  0  0  0
   -0.4331    1.5080    1.4576 H   0  0  0  0  0  0  0  0  0  0  0  0
    0.7393    1.9457    0.1979 H   0  0  0  0  0  0  0  0  0  0  0  0
   -0.9198    1.5369   -0.2543 H   0  0  0  0  0  0  0  0  0  0  0  0
    1.5287   -0.4806    1.2200 C   0  0  0  0  0  0  0  0  0  0  0  0
    2.4613    0.3092    1.2054 O   0  0  0  0  0  0  0  0  0  0  0  0
    1.9349   -1.6539    1.8092 N   0  0  0  0  0  0  0  0  0  0  0  0
    2.9397   -1.6273    1.9592 H   0  0  0  0  0  0  0  0  0  0  0  0
    1.1854   -2.2171    2.9251 C   0  0  0  0  0  0  0  0  0  0  0  0
    0.2132   -1.7296    3.0454 H   0  0  0  0  0  0  0  0  0  0  0  0
    1.0254   -3.2891    2.7719 H   0  0  0  0  0  0  0  0  0  0  0  0
    1.7465   -2.0811    3.8548 H   0  0  0  0  0  0  0  0  0  0  0  0
  1  2  1  0  0  0  0
  2  3  1  0  0  0  0
  2  4  1  0  0  0  0
  2  5  1  0  0  0  0
  5  6  2  0  0  0  0
  5  7  1  0  0  0  0
  7  8  1  0  0  0  0
  7  9  1  0  0  0  0
  9 10  1  0  0  0  0
  9 11  1  0  0  0  0
  9 15  1  0  0  0  0
 11 12  1  0  0  0  0
 11 13  1  0  0  0  0
 11 14  1  0  0  0  0
 15 16  2  0  0  0  0
 15 17  1  0  0  0  0
 17 18  1  0  0  0  0
 17 19  1  0  0  0  0
 19 20  1  0  0  0  0
 19 21  1  0  0  0  0
 19 22  1  0  0  0  0
M  END
$$$$

  -OEChem-11182114133D

 22 21  0     1  0  0  0  0  0999 V2000
   -3.0831   -3.4545    0.9426 H   0  0  0  0  0  0  0  0  0  0  0  0
   -2.9141   -2.4168    0.6406 C   0  0  0  0  0  0  0  0  0  0  0  0
   -3.3965   -1.7583    1.3672 H   0  0  0  0  0  0  0  0  0  0  0  0
   -3.3653   -2.2584   -0.3420 H   0  0  0  0  0  0  0  0  0  0  0  0
   -1.4264   -2.1241    0.5810 C   0  0  0  0  0  0  0  0  0  0  0  0
   -0.6366   -3.0408    0.7213 O   0  0  0  0  0  0  0  0  0  0  0  0
   -1.0083   -0.8526    0.2384 N   0  0  0  0  0  0  0  0  0  0  0  0
   -1.7737   -0.2020    0.0897 H   0  0  0  0  0  0  0  0  0  0  0  0
    0.3209   -0.2203    0.4146 C   0  0  1  0  0  0  0  0  0  0  0  0
    0.8997   -0.4590   -0.4831 H   0  0  0  0  0  0  0  0  0  0  0  0
    0.0415    1.2917    0.4029 C   0  0  0  0  0  0  0  0  0  0  0  0
   -0.4988    1.5885    1.3078 H   0  0  0  0  0  0  0  0  0  0  0  0
    0.9797    1.8549    0.3597 H   0  0  0  0  0  0  0  0  0  0  0  0
   -0.5559    1.5681   -0.4712 H   0  0  0  0  0  0  0  0  0  0  0  0
    1.2601   -0.6179    1.6009 C   0  0  0  0  0  0  0  0  0  0  0  0
    1.8523    0.2552    2.2256 O   0  0  0  0  0  0  0  0  0  0  0  0
    1.5004   -1.9229    1.9812 N   0  0  0  0  0  0  0  0  0  0  0  0
    0.9378   -2.6397    1.5166 H   0  0  0  0  0  0  0  0  0  0  0  0
    2.3435   -2.3106    3.1047 C   0  0  0  0  0  0  0  0  0  0  0  0
    1.9371   -1.9180    4.0424 H   0  0  0  0  0  0  0  0  0  0  0  0
    2.3932   -3.4012    3.1778 H   0  0  0  0  0  0  0  0  0  0  0  0
    3.3607   -1.9276    2.9720 H   0  0  0  0  0  0  0  0  0  0  0  0
  1  2  1  0  0  0  0
  2  3  1  0  0  0  0
  2  4  1  0  0  0  0
  2  5  1  0  0  0  0
  5  6  2  0  0  0  0
  5  7  1  0  0  0  0
  7  8  1  0  0  0  0
  7  9  1  0  0  0  0
  9 10  1  0  0  0  0
  9 11  1  0  0  0  0
  9 15  1  0  0  0  0
 11 12  1  0  0  0  0
 11 13  1  0  0  0  0
 11 14  1  0  0  0  0
 15 16  2  0  0  0  0
 15 17  1  0  0  0  0
 17 18  1  0  0  0  0
 17 19  1  0  0  0  0
 19 20  1  0  0  0  0
 19 21  1  0  0  0  0
 19 22  1  0  0  0  0
M  END
$$$$

  -OEChem-11182114133D

 22 21  0     1  0  0  0  0  0999 V2000
   -2.9685   -3.4804    1.0572 H   0  0  0  0  0  0  0  0  0  0  0  0
   -2.8397   -2.4483    0.7189 C   0  0  0  0  0  0  0  0  0  0  0  0
   -3.3176   -1.7816    1.4408 H   0  0  0  0  0  0  0  0  0  0  0  0
   -3.3263   -2.3329   -0.2527 H   0  0  0  0  0  0  0  0  0  0  0  0
   -1.3640   -2.1165    0.6019 C   0  0  0  0  0  0  0  0  0  0  0  0
   -0.5422   -3.0087    0.7182 O   0  0  0  0  0  0  0  0  0  0  0  0
   -0.9901   -0.8367    0.2399 N   0  0  0  0  0  0  0  0  0  0  0  0
   -1.7719   -0.1982    0.1289 H   0  0  0  0  0  0  0  0  0  0  0  0
    0.3341   -0.1905    0.3864 C   0  0  1  0  0  0  0  0  0  0  0  0
    0.9024   -0.4216   -0.5200 H   0  0  0  0  0  0  0  0  0  0  0  0
    0.0518    1.3202    0.3877 C   0  0  0  0  0  0  0  0  0  0  0  0
   -0.4993    1.6066    1.2895 H   0  0  0  0  0  0  0  0  0  0  0  0
    0.9903    1.8839    0.3625 H   0  0  0  0  0  0  0  0  0  0  0  0
   -0.5372    1.6039   -0.4899 H   0  0  0  0  0  0  0  0  0  0  0  0
    1.2751   -0.6005    1.5635 C   0  0  0  0  0  0  0  0  0  0  0  0
    1.6803    0.2458    2.3528 O   0  0  0  0  0  0  0  0  0  0  0  0
    1.7346   -1.8925    1.7244 N   0  0  0  0  0  0  0  0  0  0  0  0
    1.2081   -2.6042    1.2109 H   0  0  0  0  0  0  0  0  0  0  0  0
    2.5429   -2.3222    2.8583 C   0  0  0  0  0  0  0  0  0  0  0  0
    1.9877   -2.1973    3.7937 H   0  0  0  0  0  0  0  0  0  0  0  0
    2.8105   -3.3776    2.7503 H   0  0  0  0  0  0  0  0  0  0  0  0
    3.4674   -1.7380    2.9154 H   0  0  0  0  0  0  0  0  0  0  0  0
  1  2  1  0  0  0  0
  2  3  1  0  0  0  0
  2  4  1  0  0  0  0
  2  5  1  0  0  0  0
  5  6  2  0  0  0  0
  5  7  1  0  0  0  0
  7  8  1  0  0  0  0
  7  9  1  0  0  0  0
  9 10  1  0  0  0  0
  9 11  1  0  0  0  0
  9 15  1  0  0  0  0
 11 12  1  0  0  0  0
 11 13  1  0  0  0  0
 11 14  1  0  0  0  0
 15 16  2  0  0  0  0
 15 17  1  0  0  0  0
 17 18  1  0  0  0  0
 17 19  1  0  0  0  0
 19 20  1  0  0  0  0
 19 21  1  0  0  0  0
 19 22  1  0  0  0  0
M  END
$$$$

  -OEChem-11182114133D

 22 21  0     1  0  0  0  0  0999 V2000
   -2.8236   -3.5219    1.1271 H   0  0  0  0  0  0  0  0  0  0  0  0
   -2.7473   -2.4834    0.7927 C   0  0  0  0  0  0  0  0  0  0  0  0
   -3.2100   -1.8389    1.5442 H   0  0  0  0  0  0  0  0  0  0  0  0
   -3.2861   -2.3767   -0.1518 H   0  0  0  0  0  0  0  0  0  0  0  0
   -1.2912   -2.1009    0.6056 C   0  0  0  0  0  0  0  0  0  0  0  0
   -0.4282   -2.9585    0.6925 O   0  0  0  0  0  0  0  0  0  0  0  0
   -0.9716   -0.8141    0.2177 N   0  0  0  0  0  0  0  0  0  0  0  0
   -1.7693   -0.1887    0.1567 H   0  0  0  0  0  0  0  0  0  0  0  0
    0.3447   -0.1560    0.3564 C   0  0  1  0  0  0  0  0  0  0  0  0
    0.9210   -0.3832   -0.5460 H   0  0  0  0  0  0  0  0  0  0  0  0
    0.0663    1.3541    0.3639 C   0  0  0  0  0  0  0  0  0  0  0  0
   -0.5191    1.6336    1.2459 H   0  0  0  0  0  0  0  0  0  0  0  0
    1.0074    1.9133    0.3826 H   0  0  0  0  0  0  0  0  0  0  0  0
   -0.4877    1.6475   -0.5329 H   0  0  0  0  0  0  0  0  0  0  0  0
    1.2554   -0.5788    1.5483 C   0  0  0  0  0  0  0  0  0  0  0  0
    1.4609    0.1926    2.4790 O   0  0  0  0  0  0  0  0  0  0  0  0
    1.9308   -1.7837    1.5318 N   0  0  0  0  0  0  0  0  0  0  0  0
    1.4867   -2.4940    0.9449 H   0  0  0  0  0  0  0  0  0  0  0  0
    2.7321   -2.2498    2.6566 C   0  0  0  0  0  0  0  0  0  0  0  0
    2.1028   -2.3972    3.5405 H   0  0  0  0  0  0  0  0  0  0  0  0
    3.2112   -3.2014    2.4074 H   0  0  0  0  0  0  0  0  0  0  0  0
    3.5157   -1.5240    2.8983 H   0  0  0  0  0  0  0  0  0  0  0  0
  1  2  1  0  0  0  0
  2  3  1  0  0  0  0
  2  4  1  0  0  0  0
  2  5  1  0  0  0  0
  5  6  2  0  0  0  0
  5  7  1  0  0  0  0
  7  8  1  0  0  0  0
  7  9  1  0  0  0  0
  9 10  1  0  0  0  0
  9 11  1  0  0  0  0
  9 15  1  0  0  0  0
 11 12  1  0  0  0  0
 11 13  1  0  0  0  0
 11 14  1  0  0  0  0
 15 16  2  0  0  0  0
 15 17  1  0  0  0  0
 17 18  1  0  0  0  0
 17 19  1  0  0  0  0
 19 20  1  0  0  0  0
 19 21  1  0  0  0  0
 19 22  1  0  0  0  0
M  END
$$$$

  -OEChem-11182114133D

 22 21  0     1  0  0  0  0  0999 V2000
   -2.6865   -3.5441    1.2130 H   0  0  0  0  0  0  0  0  0  0  0  0
   -2.6595   -2.5102    0.8578 C   0  0  0  0  0  0  0  0  0  0  0  0
   -3.1079   -1.8673    1.6192 H   0  0  0  0  0  0  0  0  0  0  0  0
   -3.2440   -2.4382   -0.0624 H   0  0  0  0  0  0  0  0  0  0  0  0
   -1.2270   -2.0846    0.5974 C   0  0  0  0  0  0  0  0  0  0  0  0
   -0.3296   -2.9105    0.6511 O   0  0  0  0  0  0  0  0  0  0  0  0
   -0.9600   -0.7923    0.1874 N   0  0  0  0  0  0  0  0  0  0  0  0
   -1.7701   -0.1802    0.1784 H   0  0  0  0  0  0  0  0  0  0  0  0
    0.3486   -0.1242    0.3236 C   0  0  1  0  0  0  0  0  0  0  0  0
    0.9332   -0.3433   -0.5754 H   0  0  0  0  0  0  0  0  0  0  0  0
    0.0741    1.3856    0.3489 C   0  0  0  0  0  0  0  0  0  0  0  0
   -0.5384    1.6526    1.2164 H   0  0  0  0  0  0  0  0  0  0  0  0
    1.0157    1.9409    0.4078 H   0  0  0  0  0  0  0  0  0  0  0  0
   -0.4512    1.6953   -0.5597 H   0  0  0  0  0  0  0  0  0  0  0  0
    1.2270   -0.5612    1.5300 C   0  0  0  0  0  0  0  0  0  0  0  0
    1.2096    0.0777    2.5765 O   0  0  0  0  0  0  0  0  0  0  0  0
    2.1211   -1.6061    1.3937 N   0  0  0  0  0  0  0  0  0  0  0  0
    1.8432   -2.2878    0.6875 H   0  0  0  0  0  0  0  0  0  0  0  0
    2.9122   -2.0966    2.5150 C   0  0  0  0  0  0  0  0  0  0  0  0
    2.2589   -2.4929    3.2994 H   0  0  0  0  0  0  0  0  0  0  0  0
    3.5811   -2.8958    2.1820 H   0  0  0  0  0  0  0  0  0  0  0  0
    3.5231   -1.2916    2.9372 H   0  0  0  0  0  0  0  0  0  0  0  0
  1  2  1  0  0  0  0
  2  3  1  0  0  0  0
  2  4  1  0  0  0  0
  2  5  1  0  0  0  0
  5  6  2  0  0  0  0
  5  7  1  0  0  0  0
  7  8  1  0  0  0  0
  7  9  1  0  0  0  0
  9 10  1  0  0  0  0
  9 11  1  0  0  0  0
  9 15  1  0  0  0  0
 11 12  1  0  0  0  0
 11 13  1  0  0  0  0
 11 14  1  0  0  0  0
 15 16  2  0  0  0  0
 15 17  1  0  0  0  0
 17 18  1  0  0  0  0
 17 19  1  0  0  0  0
 19 20  1  0  0  0  0
 19 21  1  0  0  0  0
 19 22  1  0  0  0  0
M  END
$$$$

  -OEChem-11182114133D

 22 21  0     1  0  0  0  0  0999 V2000
   -2.6170   -3.5706    1.2147 H   0  0  0  0  0  0  0  0  0  0  0  0
   -2.6111   -2.5231    0.9001 C   0  0  0  0  0  0  0  0  0  0  0  0
   -3.0311   -1.9134    1.7039 H   0  0  0  0  0  0  0  0  0  0  0  0
   -3.2332   -2.4193    0.0077 H   0  0  0  0  0  0  0  0  0  0  0  0
   -1.1930   -2.0759    0.6001 C   0  0  0  0  0  0  0  0  0  0  0  0
   -0.2772   -2.8825    0.6436 O   0  0  0  0  0  0  0  0  0  0  0  0
   -0.9581   -0.7842    0.1689 N   0  0  0  0  0  0  0  0  0  0  0  0
   -1.7745   -0.1813    0.1944 H   0  0  0  0  0  0  0  0  0  0  0  0
    0.3458   -0.1085    0.2969 C   0  0  1  0  0  0  0  0  0  0  0  0
    0.9295   -0.3272   -0.6027 H   0  0  0  0  0  0  0  0  0  0  0  0
    0.0740    1.4002    0.3316 C   0  0  0  0  0  0  0  0  0  0  0  0
   -0.5351    1.6639    1.2024 H   0  0  0  0  0  0  0  0  0  0  0  0
    1.0170    1.9529    0.3901 H   0  0  0  0  0  0  0  0  0  0  0  0
   -0.4546    1.7146   -0.5732 H   0  0  0  0  0  0  0  0  0  0  0  0
    1.2121   -0.5415    1.5108 C   0  0  0  0  0  0  0  0  0  0  0  0
    0.9885   -0.0769    2.6235 O   0  0  0  0  0  0  0  0  0  0  0  0
    2.3095   -1.3614    1.3245 N   0  0  0  0  0  0  0  0  0  0  0  0
    2.2724   -1.9319    0.4833 H   0  0  0  0  0  0  0  0  0  0  0  0
    3.0891   -1.8705    2.4459 C   0  0  0  0  0  0  0  0  0  0  0  0
    2.4658   -2.5007    3.0892 H   0  0  0  0  0  0  0  0  0  0  0  0
    3.9291   -2.4690    2.0805 H   0  0  0  0  0  0  0  0  0  0  0  0
    3.4901   -1.0446    3.0430 H   0  0  0  0  0  0  0  0  0  0  0  0
  1  2  1  0  0  0  0
  2  3  1  0  0  0  0
  2  4  1  0  0  0  0
  2  5  1  0  0  0  0
  5  6  2  0  0  0  0
  5  7  1  0  0  0  0
  7  8  1  0  0  0  0
  7  9  1  0  0  0  0
  9 10  1  0  0  0  0
  9 11  1  0  0  0  0
  9 15  1  0  0  0  0
 11 12  1  0  0  0  0
 11 13  1  0  0  0  0
 11 14  1  0  0  0  0
 15 16  2  0  0  0  0
 15 17  1  0  0  0  0
 17 18  1  0  0  0  0
 17 19  1  0  0  0  0
 19 20  1  0  0  0  0
 19 21  1  0  0  0  0
 19 22  1  0  0  0  0
M  END
$$$$

  -OEChem-11182114133D

 22 21  0     1  0  0  0  0  0999 V2000
   -2.5753   -3.5610    1.2817 H   0  0  0  0  0  0  0  0  0  0  0  0
   -2.5892   -2.5278    0.9234 C   0  0  0  0  0  0  0  0  0  0  0  0
   -3.0103   -1.8915    1.7056 H   0  0  0  0  0  0  0  0  0  0  0  0
   -3.2216   -2.4711    0.0344 H   0  0  0  0  0  0  0  0  0  0  0  0
   -1.1812   -2.0731    0.5895 C   0  0  0  0  0  0  0  0  0  0  0  0
   -0.2608   -2.8757    0.6079 O   0  0  0  0  0  0  0  0  0  0  0  0
   -0.9619   -0.7812    0.1498 N   0  0  0  0  0  0  0  0  0  0  0  0
   -1.7795   -0.1818    0.2030 H   0  0  0  0  0  0  0  0  0  0  0  0
    0.3403   -0.1036    0.2820 C   0  0  1  0  0  0  0  0  0  0  0  0
    0.9254   -0.3221   -0.6164 H   0  0  0  0  0  0  0  0  0  0  0  0
    0.0728    1.4046    0.3275 C   0  0  0  0  0  0  0  0  0  0  0  0
   -0.5256    1.6639    1.2071 H   0  0  0  0  0  0  0  0  0  0  0  0
    1.0175    1.9553    0.3785 H   0  0  0  0  0  0  0  0  0  0  0  0
   -0.4660    1.7251   -0.5695 H   0  0  0  0  0  0  0  0  0  0  0  0
    1.1968   -0.5344    1.5023 C   0  0  0  0  0  0  0  0  0  0  0  0
    0.8155   -0.2686    2.6374 O   0  0  0  0  0  0  0  0  0  0  0  0
    2.4515   -1.0859    1.3178 N   0  0  0  0  0  0  0  0  0  0  0  0
    2.6291   -1.4746    0.3963 H   0  0  0  0  0  0  0  0  0  0  0  0
    3.2481   -1.5848    2.4319 C   0  0  0  0  0  0  0  0  0  0  0  0
    2.7201   -2.3950    2.9461 H   0  0  0  0  0  0  0  0  0  0  0  0
    4.2060   -1.9692    2.0688 H   0  0  0  0  0  0  0  0  0  0  0  0
    3.4500   -0.7831    3.1501 H   0  0  0  0  0  0  0  0  0  0  0  0
  1  2  1  0  0  0  0
  2  3  1  0  0  0  0
  2  4  1  0  0  0  0
  2  5  1  0  0  0  0
  5  6  2  0  0  0  0
  5  7  1  0  0  0  0
  7  8  1  0  0  0  0
  7  9  1  0  0  0  0
  9 10  1  0  0  0  0
  9 11  1  0  0  0  0
  9 15  1  0  0  0  0
 11 12  1  0  0  0  0
 11 13  1  0  0  0  0
 11 14  1  0  0  0  0
 15 16  2  0  0  0  0
 15 17  1  0  0  0  0
 17 18  1  0  0  0  0
 17 19  1  0  0  0  0
 19 20  1  0  0  0  0
 19 21  1  0  0  0  0
 19 22  1  0  0  0  0
M  END
$$$$

  -OEChem-11182114133D

 22 21  0     1  0  0  0  0  0999 V2000
   -2.5845   -3.5737    1.2403 H   0  0  0  0  0  0  0  0  0  0  0  0
   -2.5900   -2.5231    0.9365 C   0  0  0  0  0  0  0  0  0  0  0  0
   -2.9663   -1.9201    1.7666 H   0  0  0  0  0  0  0  0  0  0  0  0
   -3.2548   -2.4073    0.0772 H   0  0  0  0  0  0  0  0  0  0  0  0
   -1.1863   -2.0793    0.5714 C   0  0  0  0  0  0  0  0  0  0  0  0
   -0.2723   -2.8894    0.5602 O   0  0  0  0  0  0  0  0  0  0  0  0
   -0.9663   -0.7887    0.1283 N   0  0  0  0  0  0  0  0  0  0  0  0
   -1.7803   -0.1872    0.2034 H   0  0  0  0  0  0  0  0  0  0  0  0
    0.3381   -0.1174    0.2725 C   0  0  1  0  0  0  0  0  0  0  0  0
    0.9286   -0.3408   -0.6212 H   0  0  0  0  0  0  0  0  0  0  0  0
    0.0768    1.3909    0.3224 C   0  0  0  0  0  0  0  0  0  0  0  0
   -0.5198    1.6488    1.2037 H   0  0  0  0  0  0  0  0  0  0  0  0
    1.0233    1.9383    0.3739 H   0  0  0  0  0  0  0  0  0  0  0  0
   -0.4615    1.7159   -0.5733 H   0  0  0  0  0  0  0  0  0  0  0  0
    1.1849   -0.5450    1.5002 C   0  0  0  0  0  0  0  0  0  0  0  0
    0.7010   -0.4728    2.6251 O   0  0  0  0  0  0  0  0  0  0  0  0
    2.5362   -0.8068    1.3620 N   0  0  0  0  0  0  0  0  0  0  0  0
    2.8677   -0.9879    0.4196 H   0  0  0  0  0  0  0  0  0  0  0  0
    3.3651   -1.2404    2.4799 C   0  0  0  0  0  0  0  0  0  0  0  0
    2.9998   -2.1925    2.8792 H   0  0  0  0  0  0  0  0  0  0  0  0
    4.4005   -1.3748    2.1527 H   0  0  0  0  0  0  0  0  0  0  0  0
    3.3520   -0.4934    3.2806 H   0  0  0  0  0  0  0  0  0  0  0  0
  1  2  1  0  0  0  0
  2  3  1  0  0  0  0
  2  4  1  0  0  0  0
  2  5  1  0  0  0  0
  5  6  2  0  0  0  0
  5  7  1  0  0  0  0
  7  8  1  0  0  0  0
  7  9  1  0  0  0  0
  9 10  1  0  0  0  0
  9 11  1  0  0  0  0
  9 15  1  0  0  0  0
 11 12  1  0  0  0  0
 11 13  1  0  0  0  0
 11 14  1  0  0  0  0
 15 16  2  0  0  0  0
 15 17  1  0  0  0  0
 17 18  1  0  0  0  0
 17 19  1  0  0  0  0
 19 20  1  0  0  0  0
 19 21  1  0  0  0  0
 19 22  1  0  0  0  0
M  END
$$$$

  -OEChem-11182114133D

 22 21  0     1  0  0  0  0  0999 V2000
   -2.5950   -3.5712    1.2348 H   0  0  0  0  0  0  0  0  0  0  0  0
   -2.5955   -2.5182    0.9397 C   0  0  0  0  0  0  0  0  0  0  0  0
   -2.9424   -1.9179    1.7843 H   0  0  0  0  0  0  0  0  0  0  0  0
   -3.2806   -2.3869    0.0990 H   0  0  0  0  0  0  0  0  0  0  0  0
   -1.1964   -2.0877    0.5432 C   0  0  0  0  0  0  0  0  0  0  0  0
   -0.2948   -2.9099    0.4887 O   0  0  0  0  0  0  0  0  0  0  0  0
   -0.9693   -0.7955    0.1083 N   0  0  0  0  0  0  0  0  0  0  0  0
   -1.7774   -0.1895    0.2041 H   0  0  0  0  0  0  0  0  0  0  0  0
    0.3399   -0.1365    0.2699 C   0  0  1  0  0  0  0  0  0  0  0  0
    0.9345   -0.3591   -0.6212 H   0  0  0  0  0  0  0  0  0  0  0  0
    0.0855    1.3722    0.3328 C   0  0  0  0  0  0  0  0  0  0  0  0
   -0.5079    1.6241    1.2179 H   0  0  0  0  0  0  0  0  0  0  0  0
    1.0340    1.9158    0.3869 H   0  0  0  0  0  0  0  0  0  0  0  0
   -0.4534    1.7075   -0.5588 H   0  0  0  0  0  0  0  0  0  0  0  0
    1.1814   -0.5700    1.5000 C   0  0  0  0  0  0  0  0  0  0  0  0
    0.6446   -0.6809    2.5976 O   0  0  0  0  0  0  0  0  0  0  0  0
    2.5635   -0.5358    1.4397 N   0  0  0  0  0  0  0  0  0  0  0  0
    2.9825   -0.5084    0.5155 H   0  0  0  0  0  0  0  0  0  0  0  0
    3.4096   -0.8751    2.5777 C   0  0  0  0  0  0  0  0  0  0  0  0
    3.2211   -1.9044    2.9008 H   0  0  0  0  0  0  0  0  0  0  0  0
    4.4653   -0.7845    2.3047 H   0  0  0  0  0  0  0  0  0  0  0  0
    3.2126   -0.2004    3.4175 H   0  0  0  0  0  0  0  0  0  0  0  0
  1  2  1  0  0  0  0
  2  3  1  0  0  0  0
  2  4  1  0  0  0  0
  2  5  1  0  0  0  0
  5  6  2  0  0  0  0
  5  7  1  0  0  0  0
  7  8  1  0  0  0  0
  7  9  1  0  0  0  0
  9 10  1  0  0  0  0
  9 11  1  0  0  0  0
  9 15  1  0  0  0  0
 11 12  1  0  0  0  0
 11 13  1  0  0  0  0
 11 14  1  0  0  0  0
 15 16  2  0  0  0  0
 15 17  1  0  0  0  0
 17 18  1  0  0  0  0
 17 19  1  0  0  0  0
 19 20  1  0  0  0  0
 19 21  1  0  0  0  0
 19 22  1  0  0  0  0
M  END
$$$$

  -OEChem-11182114133D

 22 21  0     1  0  0  0  0  0999 V2000
   -2.6119   -3.5748    1.2016 H   0  0  0  0  0  0  0  0  0  0  0  0
   -2.5980   -2.5111    0.9479 C   0  0  0  0  0  0  0  0  0  0  0  0
   -2.8991   -1.9371    1.8276 H   0  0  0  0  0  0  0  0  0  0  0  0
   -3.3098   -2.3315    0.1390 H   0  0  0  0  0  0  0  0  0  0  0  0
   -1.2041   -2.0972    0.5170 C   0  0  0  0  0  0  0  0  0  0  0  0
   -0.3200   -2.9338    0.4143 O   0  0  0  0  0  0  0  0  0  0  0  0
   -0.9651   -0.8038    0.0919 N   0  0  0  0  0  0  0  0  0  0  0  0
   -1.7668   -0.1924    0.2043 H   0  0  0  0  0  0  0  0  0  0  0  0
    0.3490   -0.1574    0.2701 C   0  0  1  0  0  0  0  0  0  0  0  0
    0.9492   -0.3787   -0.6178 H   0  0  0  0  0  0  0  0  0  0  0  0
    0.0924    1.3514    0.3369 C   0  0  0  0  0  0  0  0  0  0  0  0
   -0.5053    1.5987    1.2205 H   0  0  0  0  0  0  0  0  0  0  0  0
    1.0378    1.8994    0.3956 H   0  0  0  0  0  0  0  0  0  0  0  0
   -0.4441    1.6875   -0.5558 H   0  0  0  0  0  0  0  0  0  0  0  0
    1.1905   -0.5937    1.5017 C   0  0  0  0  0  0  0  0  0  0  0  0
    0.6373   -0.8952    2.5543 O   0  0  0  0  0  0  0  0  0  0  0  0
    2.5363   -0.2726    1.5526 N   0  0  0  0  0  0  0  0  0  0  0  0
    2.9876   -0.0259    0.6776 H   0  0  0  0  0  0  0  0  0  0  0  0
    3.3694   -0.5251    2.7225 C   0  0  0  0  0  0  0  0  0  0  0  0
    3.3641   -1.5912    2.9730 H   0  0  0  0  0  0  0  0  0  0  0  0
    4.4016   -0.2206    2.5252 H   0  0  0  0  0  0  0  0  0  0  0  0
    3.0021    0.0412    3.5848 H   0  0  0  0  0  0  0  0  0  0  0  0
  1  2  1  0  0  0  0
  2  3  1  0  0  0  0
  2  4  1  0  0  0  0
  2  5  1  0  0  0  0
  5  6  2  0  0  0  0
  5  7  1  0  0  0  0
  7  8  1  0  0  0  0
  7  9  1  0  0  0  0
  9 10  1  0  0  0  0
  9 11  1  0  0  0  0
  9 15  1  0  0  0  0
 11 12  1  0  0  0  0
 11 13  1  0  0  0  0
 11 14  1  0  0  0  0
 15 16  2  0  0  0  0
 15 17  1  0  0  0  0
 17 18  1  0  0  0  0
 17 19  1  0  0  0  0
 19 20  1  0  0  0  0
 19 21  1  0  0  0  0
 19 22  1  0  0  0  0
M  END
$$$$

  -OEChem-11182114133D

 22 21  0     1  0  0  0  0  0999 V2000
   -2.7228   -3.5151    1.2122 H   0  0  0  0  0  0  0  0  0  0  0  0
   -2.6499   -2.4485    0.9817 C   0  0  0  0  0  0  0  0  0  0  0  0
   -2.8334   -1.8801    1.8966 H   0  0  0  0  0  0  0  0  0  0  0  0
   -3.4103   -2.1940    0.2399 H   0  0  0  0  0  0  0  0  0  0  0  0
   -1.2683   -2.1275    0.4438 C   0  0  0  0  0  0  0  0  0  0  0  0
   -0.5089   -3.0321    0.1366 O   0  0  0  0  0  0  0  0  0  0  0  0
   -0.9563   -0.8373    0.0602 N   0  0  0  0  0  0  0  0  0  0  0  0
   -1.7305   -0.1981    0.2031 H   0  0  0  0  0  0  0  0  0  0  0  0
    0.3760   -0.2280    0.2625 C   0  0  1  0  0  0  0  0  0  0  0  0
    0.8698   -0.2106   -0.7139 H   0  0  0  0  0  0  0  0  0  0  0  0
    0.0993    1.2145    0.7080 C   0  0  0  0  0  0  0  0  0  0  0  0
   -0.3685    1.2232    1.6982 H   0  0  0  0  0  0  0  0  0  0  0  0
    1.0275    1.7915    0.7597 H   0  0  0  0  0  0  0  0  0  0  0  0
   -0.5690    1.7137   -0.0007 H   0  0  0  0  0  0  0  0  0  0  0  0
    1.3937   -0.8870    1.2435 C   0  0  0  0  0  0  0  0  0  0  0  0
    1.0181   -1.5844    2.1783 O   0  0  0  0  0  0  0  0  0  0  0  0
    2.6363   -0.2932    1.4023 N   0  0  0  0  0  0  0  0  0  0  0  0
    2.9445    0.3426    0.6739 H   0  0  0  0  0  0  0  0  0  0  0  0
    3.5786   -0.6614    2.4538 C   0  0  0  0  0  0  0  0  0  0  0  0
    3.8111   -1.7304    2.4032 H   0  0  0  0  0  0  0  0  0  0  0  0
    4.5104   -0.0995    2.3405 H   0  0  0  0  0  0  0  0  0  0  0  0
    3.1589   -0.4383    3.4403 H   0  0  0  0  0  0  0  0  0  0  0  0
  1  2  1  0  0  0  0
  2  3  1  0  0  0  0
  2  4  1  0  0  0  0
  2  5  1  0  0  0  0
  5  6  2  0  0  0  0
  5  7  1  0  0  0  0
  7  8  1  0  0  0  0
  7  9  1  0  0  0  0
  9 10  1  0  0  0  0
  9 11  1  0  0  0  0
  9 15  1  0  0  0  0
 11 12  1  0  0  0  0
 11 13  1  0  0  0  0
 11 14  1  0  0  0  0
 15 16  2  0  0  0  0
 15 17  1  0  0  0  0
 17 18  1  0  0  0  0
 17 19  1  0  0  0  0
 19 20  1  0  0  0  0
 19 21  1  0  0  0  0
 19 22  1  0  0  0  0
M  END
$$$$

  -OEChem-11182114133D

 22 21  0     1  0  0  0  0  0999 V2000
   -2.7127   -3.5030    1.2432 H   0  0  0  0  0  0  0  0  0  0  0  0
   -2.6284   -2.4373    1.0122 C   0  0  0  0  0  0  0  0  0  0  0  0
   -2.7644   -1.8685    1.9350 H   0  0  0  0  0  0  0  0  0  0  0  0
   -3.4124   -2.1656    0.3017 H   0  0  0  0  0  0  0  0  0  0  0  0
   -1.2629   -2.1424    0.4208 C   0  0  0  0  0  0  0  0  0  0  0  0
   -0.5608   -3.0598    0.0301 O   0  0  0  0  0  0  0  0  0  0  0  0
   -0.9361   -0.8533    0.0475 N   0  0  0  0  0  0  0  0  0  0  0  0
   -1.7092   -0.2151    0.1989 H   0  0  0  0  0  0  0  0  0  0  0  0
    0.3909   -0.2361    0.2688 C   0  0  1  0  0  0  0  0  0  0  0  0
    0.8958   -0.2307   -0.7022 H   0  0  0  0  0  0  0  0  0  0  0  0
    0.0833    1.2150    0.6707 C   0  0  0  0  0  0  0  0  0  0  0  0
   -0.3652    1.2459    1.6692 H   0  0  0  0  0  0  0  0  0  0  0  0
    0.9931    1.8223    0.6791 H   0  0  0  0  0  0  0  0  0  0  0  0
   -0.6130    1.6708   -0.0406 H   0  0  0  0  0  0  0  0  0  0  0  0
    1.4223   -0.8672    1.2616 C   0  0  0  0  0  0  0  0  0  0  0  0
    1.1546   -1.8151    1.9864 O   0  0  0  0  0  0  0  0  0  0  0  0
    2.5088   -0.1058    1.6667 N   0  0  0  0  0  0  0  0  0  0  0  0
    2.7194    0.7291    1.1302 H   0  0  0  0  0  0  0  0  0  0  0  0
    3.4176   -0.4933    2.7412 C   0  0  0  0  0  0  0  0  0  0  0  0
    3.8584   -1.4746    2.5359 H   0  0  0  0  0  0  0  0  0  0  0  0
    4.2279    0.2362    2.8332 H   0  0  0  0  0  0  0  0  0  0  0  0
    2.8844   -0.5393    3.6965 H   0  0  0  0  0  0  0  0  0  0  0  0
  1  2  1  0  0  0  0
  2  3  1  0  0  0  0
  2  4  1  0  0  0  0
  2  5  1  0  0  0  0
  5  6  2  0  0  0  0
  5  7  1  0  0  0  0
  7  8  1  0  0  0  0
  7  9  1  0  0  0  0
  9 10  1  0  0  0  0
  9 11  1  0  0  0  0
  9 15  1  0  0  0  0
 11 12  1  0  0  0  0
 11 13  1  0  0  0  0
 11 14  1  0  0  0  0
 15 16  2  0  0  0  0
 15 17  1  0  0  0  0
 17 18  1  0  0  0  0
 17 19  1  0  0  0  0
 19 20  1  0  0  0  0
 19 21  1  0  0  0  0
 19 22  1  0  0  0  0
M  END
$$$$

  -OEChem-11182114133D

 22 21  0     1  0  0  0  0  0999 V2000
   -2.7929   -3.6009    1.0584 H   0  0  0  0  0  0  0  0  0  0  0  0
   -2.6211   -2.6805    0.4928 C   0  0  0  0  0  0  0  0  0  0  0  0
   -3.5559   -2.1174    0.4413 H   0  0  0  0  0  0  0  0  0  0  0  0
   -2.3041   -2.9467   -0.5184 H   0  0  0  0  0  0  0  0  0  0  0  0
   -1.5482   -1.8484    1.1698 C   0  0  0  0  0  0  0  0  0  0  0  0
   -1.2242   -2.1141    2.3139 O   0  0  0  0  0  0  0  0  0  0  0  0
   -1.1648   -0.6451    0.6073 N   0  0  0  0  0  0  0  0  0  0  0  0
   -1.7000   -0.4306   -0.2272 H   0  0  0  0  0  0  0  0  0  0  0  0
    0.2201   -0.1219    0.5780 C   0  0  1  0  0  0  0  0  0  0  0  0
    0.5995   -0.2490   -0.4406 H   0  0  0  0  0  0  0  0  0  0  0  0
    0.0741    1.3817    0.8577 C   0  0  0  0  0  0  0  0  0  0  0  0
   -0.2312    1.5466    1.8965 H   0  0  0  0  0  0  0  0  0  0  0  0
    1.0172    1.9065    0.6775 H   0  0  0  0  0  0  0  0  0  0  0  0
   -0.6831    1.8218    0.2012 H   0  0  0  0  0  0  0  0  0  0  0  0
    1.3063   -0.7606    1.4942 C   0  0  0  0  0  0  0  0  0  0  0  0
    1.5228   -1.9625    1.4034 O   0  0  0  0  0  0  0  0  0  0  0  0
    2.3586    0.0038    1.9751 N   0  0  0  0  0  0  0  0  0  0  0  0
    2.2088    1.0055    2.0322 H   0  0  0  0  0  0  0  0  0  0  0  0
    3.5170   -0.5667    2.6544 C   0  0  0  0  0  0  0  0  0  0  0  0
    4.0701   -1.2286    1.9796 H   0  0  0  0  0  0  0  0  0  0  0  0
    4.1916    0.2286    2.9853 H   0  0  0  0  0  0  0  0  0  0  0  0
    3.2014   -1.1417    3.5316 H   0  0  0  0  0  0  0  0  0  0  0  0
  1  2  1  0  0  0  0
  2  3  1  0  0  0  0
  2  4  1  0  0  0  0
  2  5  1  0  0  0  0
  5  6  2  0  0  0  0
  5  7  1  0  0  0  0
  7  8  1  0  0  0  0
  7  9  1  0  0  0  0
  9 10  1  0  0  0  0
  9 11  1  0  0  0  0
  9 15  1  0  0  0  0
 11 12  1  0  0  0  0
 11 13  1  0  0  0  0
 11 14  1  0  0  0  0
 15 16  2  0  0  0  0
 15 17  1  0  0  0  0
 17 18  1  0  0  0  0
 17 19  1  0  0  0  0
 19 20  1  0  0  0  0
 19 21  1  0  0  0  0
 19 22  1  0  0  0  0
M  END
$$$$

  -OEChem-11182114133D

 22 21  0     1  0  0  0  0  0999 V2000
   -2.8445   -3.5856    1.0612 H   0  0  0  0  0  0  0  0  0  0  0  0
   -2.6858   -2.6478    0.5212 C   0  0  0  0  0  0  0  0  0  0  0  0
   -3.5956   -2.0461    0.5826 H   0  0  0  0  0  0  0  0  0  0  0  0
   -2.4771   -2.8795   -0.5260 H   0  0  0  0  0  0  0  0  0  0  0  0
   -1.5193   -1.8901    1.1272 C   0  0  0  0  0  0  0  0  0  0  0  0
   -1.0775   -2.2475    2.2043 O   0  0  0  0  0  0  0  0  0  0  0  0
   -1.1395   -0.6822    0.5703 N   0  0  0  0  0  0  0  0  0  0  0  0
   -1.7057   -0.4307   -0.2330 H   0  0  0  0  0  0  0  0  0  0  0  0
    0.2359   -0.1356    0.5450 C   0  0  1  0  0  0  0  0  0  0  0  0
    0.6242   -0.2667   -0.4700 H   0  0  0  0  0  0  0  0  0  0  0  0
    0.0733    1.3693    0.8053 C   0  0  0  0  0  0  0  0  0  0  0  0
   -0.2769    1.5443    1.8279 H   0  0  0  0  0  0  0  0  0  0  0  0
    1.0236    1.8928    0.6606 H   0  0  0  0  0  0  0  0  0  0  0  0
   -0.6556    1.8006    0.1121 H   0  0  0  0  0  0  0  0  0  0  0  0
    1.3183   -0.7655    1.4701 C   0  0  0  0  0  0  0  0  0  0  0  0
    1.6894   -1.9083    1.2307 O   0  0  0  0  0  0  0  0  0  0  0  0
    2.1801    0.0233    2.2167 N   0  0  0  0  0  0  0  0  0  0  0  0
    1.8700    0.9668    2.4240 H   0  0  0  0  0  0  0  0  0  0  0  0
    3.2954   -0.5254    2.9799 C   0  0  0  0  0  0  0  0  0  0  0  0
    4.0172   -1.0071    2.3117 H   0  0  0  0  0  0  0  0  0  0  0  0
    3.8099    0.2714    3.5255 H   0  0  0  0  0  0  0  0  0  0  0  0
    2.9362   -1.2654    3.7033 H   0  0  0  0  0  0  0  0  0  0  0  0
  1  2  1  0  0  0  0
  2  3  1  0  0  0  0
  2  4  1  0  0  0  0
  2  5  1  0  0  0  0
  5  6  2  0  0  0  0
  5  7  1  0  0  0  0
  7  8  1  0  0  0  0
  7  9  1  0  0  0  0
  9 10  1  0  0  0  0
  9 11  1  0  0  0  0
  9 15  1  0  0  0  0
 11 12  1  0  0  0  0
 11 13  1  0  0  0  0
 11 14  1  0  0  0  0
 15 16  2  0  0  0  0
 15 17  1  0  0  0  0
 17 18  1  0  0  0  0
 17 19  1  0  0  0  0
 19 20  1  0  0  0  0
 19 21  1  0  0  0  0
 19 22  1  0  0  0  0
M  END
$$$$

  -OEChem-11182114133D

 22 21  0     1  0  0  0  0  0999 V2000
   -2.8908   -3.5650    1.0768 H   0  0  0  0  0  0  0  0  0  0  0  0
   -2.7279   -2.6237    0.5442 C   0  0  0  0  0  0  0  0  0  0  0  0
   -3.6069   -1.9879    0.6747 H   0  0  0  0  0  0  0  0  0  0  0  0
   -2.5956   -2.8419   -0.5181 H   0  0  0  0  0  0  0  0  0  0  0  0
   -1.4953   -1.9245    1.0862 C   0  0  0  0  0  0  0  0  0  0  0  0
   -0.9630   -2.3613    2.0903 O   0  0  0  0  0  0  0  0  0  0  0  0
   -1.1191   -0.7111    0.5376 N   0  0  0  0  0  0  0  0  0  0  0  0
   -1.7140   -0.4213   -0.2316 H   0  0  0  0  0  0  0  0  0  0  0  0
    0.2480   -0.1450    0.5178 C   0  0  1  0  0  0  0  0  0  0  0  0
    0.6421   -0.2711   -0.4959 H   0  0  0  0  0  0  0  0  0  0  0  0
    0.0739    1.3582    0.7771 C   0  0  0  0  0  0  0  0  0  0  0  0
   -0.3282    1.5314    1.7806 H   0  0  0  0  0  0  0  0  0  0  0  0
    1.0329    1.8780    0.6848 H   0  0  0  0  0  0  0  0  0  0  0  0
   -0.6174    1.7930    0.0485 H   0  0  0  0  0  0  0  0  0  0  0  0
    1.3291   -0.7672    1.4473 C   0  0  0  0  0  0  0  0  0  0  0  0
    1.8578   -1.8147    1.0949 O   0  0  0  0  0  0  0  0  0  0  0  0
    1.9705   -0.0228    2.4245 N   0  0  0  0  0  0  0  0  0  0  0  0
    1.4910    0.8124    2.7434 H   0  0  0  0  0  0  0  0  0  0  0  0
    3.0397   -0.5682    3.2523 C   0  0  0  0  0  0  0  0  0  0  0  0
    3.8951   -0.8579    2.6329 H   0  0  0  0  0  0  0  0  0  0  0  0
    3.3771    0.1796    3.9762 H   0  0  0  0  0  0  0  0  0  0  0  0
    2.6870   -1.4486    3.8001 H   0  0  0  0  0  0  0  0  0  0  0  0
  1  2  1  0  0  0  0
  2  3  1  0  0  0  0
  2  4  1  0  0  0  0
  2  5  1  0  0  0  0
  5  6  2  0  0  0  0
  5  7  1  0  0  0  0
  7  8  1  0  0  0  0
  7  9  1  0  0  0  0
  9 10  1  0  0  0  0
  9 11  1  0  0  0  0
  9 15  1  0  0  0  0
 11 12  1  0  0  0  0
 11 13  1  0  0  0  0
 11 14  1  0  0  0  0
 15 16  2  0  0  0  0
 15 17  1  0  0  0  0
 17 18  1  0  0  0  0
 17 19  1  0  0  0  0
 19 20  1  0  0  0  0
 19 21  1  0  0  0  0
 19 22  1  0  0  0  0
M  END
$$$$

  -OEChem-11182114133D

 22 21  0     1  0  0  0  0  0999 V2000
   -2.9239   -3.5460    1.0908 H   0  0  0  0  0  0  0  0  0  0  0  0
   -2.7587   -2.6022    0.5631 C   0  0  0  0  0  0  0  0  0  0  0  0
   -3.6028   -1.9370    0.7599 H   0  0  0  0  0  0  0  0  0  0  0  0
   -2.7037   -2.8060   -0.5089 H   0  0  0  0  0  0  0  0  0  0  0  0
   -1.4677   -1.9597    1.0353 C   0  0  0  0  0  0  0  0  0  0  0  0
   -0.8572   -2.4739    1.9544 O   0  0  0  0  0  0  0  0  0  0  0  0
   -1.0957   -0.7382    0.5011 N   0  0  0  0  0  0  0  0  0  0  0  0
   -1.7210   -0.4044   -0.2253 H   0  0  0  0  0  0  0  0  0  0  0  0
    0.2621   -0.1502    0.4937 C   0  0  1  0  0  0  0  0  0  0  0  0
    0.6637   -0.2644   -0.5187 H   0  0  0  0  0  0  0  0  0  0  0  0
    0.0746    1.3488    0.7637 C   0  0  0  0  0  0  0  0  0  0  0  0
   -0.3689    1.5118    1.7512 H   0  0  0  0  0  0  0  0  0  0  0  0
    1.0376    1.8681    0.7195 H   0  0  0  0  0  0  0  0  0  0  0  0
   -0.5857    1.7911    0.0113 H   0  0  0  0  0  0  0  0  0  0  0  0
    1.3439   -0.7623    1.4268 C   0  0  0  0  0  0  0  0  0  0  0  0
    2.0398   -1.6711    0.9898 O   0  0  0  0  0  0  0  0  0  0  0  0
    1.7459   -0.1309    2.5924 N   0  0  0  0  0  0  0  0  0  0  0  0
    1.0965    0.5454    2.9799 H   0  0  0  0  0  0  0  0  0  0  0  0
    2.7643   -0.6929    3.4711 C   0  0  0  0  0  0  0  0  0  0  0  0
    3.7190   -0.7855    2.9429 H   0  0  0  0  0  0  0  0  0  0  0  0
    2.9139   -0.0456    4.3403 H   0  0  0  0  0  0  0  0  0  0  0  0
    2.4590   -1.6840    3.8235 H   0  0  0  0  0  0  0  0  0  0  0  0
  1  2  1  0  0  0  0
  2  3  1  0  0  0  0
  2  4  1  0  0  0  0
  2  5  1  0  0  0  0
  5  6  2  0  0  0  0
  5  7  1  0  0  0  0
  7  8  1  0  0  0  0
  7  9  1  0  0  0  0
  9 10  1  0  0  0  0
  9 11  1  0  0  0  0
  9 15  1  0  0  0  0
 11 12  1  0  0  0  0
 11 13  1  0  0  0  0
 11 14  1  0  0  0  0
 15 16  2  0  0  0  0
 15 17  1  0  0  0  0
 17 18  1  0  0  0  0
 17 19  1  0  0  0  0
 19 20  1  0  0  0  0
 19 21  1  0  0  0  0
 19 22  1  0  0  0  0
M  END
$$$$

  -OEChem-11182114133D

 22 21  0     1  0  0  0  0  0999 V2000
   -2.9288   -3.5509    1.0600 H   0  0  0  0  0  0  0  0  0  0  0  0
   -2.7834   -2.5806    0.5763 C   0  0  0  0  0  0  0  0  0  0  0  0
   -3.6004   -1.9163    0.8676 H   0  0  0  0  0  0  0  0  0  0  0  0
   -2.8051   -2.7233   -0.5067 H   0  0  0  0  0  0  0  0  0  0  0  0
   -1.4528   -1.9829    0.9944 C   0  0  0  0  0  0  0  0  0  0  0  0
   -0.7945   -2.5506    1.8463 O   0  0  0  0  0  0  0  0  0  0  0  0
   -1.0769   -0.7590    0.4688 N   0  0  0  0  0  0  0  0  0  0  0  0
   -1.7229   -0.3886   -0.2211 H   0  0  0  0  0  0  0  0  0  0  0  0
    0.2758   -0.1594    0.4749 C   0  0  1  0  0  0  0  0  0  0  0  0
    0.6852   -0.2664   -0.5353 H   0  0  0  0  0  0  0  0  0  0  0  0
    0.0857    1.3366    0.7540 C   0  0  0  0  0  0  0  0  0  0  0  0
   -0.3803    1.4934    1.7319 H   0  0  0  0  0  0  0  0  0  0  0  0
    1.0518    1.8516    0.7394 H   0  0  0  0  0  0  0  0  0  0  0  0
   -0.5537    1.7884   -0.0105 H   0  0  0  0  0  0  0  0  0  0  0  0
    1.3530   -0.7620    1.4168 C   0  0  0  0  0  0  0  0  0  0  0  0
    2.2126   -1.4896    0.9347 O   0  0  0  0  0  0  0  0  0  0  0  0
    1.5177   -0.3018    2.7122 N   0  0  0  0  0  0  0  0  0  0  0  0
    0.7140    0.1691    3.1148 H   0  0  0  0  0  0  0  0  0  0  0  0
    2.4963   -0.8855    3.6211 C   0  0  0  0  0  0  0  0  0  0  0  0
    3.5100   -0.7659    3.2241 H   0  0  0  0  0  0  0  0  0  0  0  0
    2.4487   -0.3916    4.5961 H   0  0  0  0  0  0  0  0  0  0  0  0
    2.2966   -1.9532    3.7614 H   0  0  0  0  0  0  0  0  0  0  0  0
  1  2  1  0  0  0  0
  2  3  1  0  0  0  0
  2  4  1  0  0  0  0
  2  5  1  0  0  0  0
  5  6  2  0  0  0  0
  5  7  1  0  0  0  0
  7  8  1  0  0  0  0
  7  9  1  0  0  0  0
  9 10  1  0  0  0  0
  9 11  1  0  0  0  0
  9 15  1  0  0  0  0
 11 12  1  0  0  0  0
 11 13  1  0  0  0  0
 11 14  1  0  0  0  0
 15 16  2  0  0  0  0
 15 17  1  0  0  0  0
 17 18  1  0  0  0  0
 17 19  1  0  0  0  0
 19 20  1  0  0  0  0
 19 21  1  0  0  0  0
 19 22  1  0  0  0  0
M  END
$$$$

  -OEChem-11182114133D

 22 21  0     1  0  0  0  0  0999 V2000
   -2.9713   -3.5322    1.0415 H   0  0  0  0  0  0  0  0  0  0  0  0
   -2.8168   -2.5562    0.5722 C   0  0  0  0  0  0  0  0  0  0  0  0
   -3.6024   -1.8758    0.9093 H   0  0  0  0  0  0  0  0  0  0  0  0
   -2.8857   -2.6751   -0.5118 H   0  0  0  0  0  0  0  0  0  0  0  0
   -1.4538   -2.0050    0.9486 C   0  0  0  0  0  0  0  0  0  0  0  0
   -0.7670   -2.6226    1.7411 O   0  0  0  0  0  0  0  0  0  0  0  0
   -1.0646   -0.7794    0.4371 N   0  0  0  0  0  0  0  0  0  0  0  0
   -1.7246   -0.3685   -0.2157 H   0  0  0  0  0  0  0  0  0  0  0  0
    0.2859   -0.1750    0.4646 C   0  0  1  0  0  0  0  0  0  0  0  0
    0.7050   -0.2728   -0.5427 H   0  0  0  0  0  0  0  0  0  0  0  0
    0.0974    1.3171    0.7615 C   0  0  0  0  0  0  0  0  0  0  0  0
   -0.3721    1.4622    1.7395 H   0  0  0  0  0  0  0  0  0  0  0  0
    1.0657    1.8285    0.7608 H   0  0  0  0  0  0  0  0  0  0  0  0
   -0.5361    1.7812   -0.0004 H   0  0  0  0  0  0  0  0  0  0  0  0
    1.3569   -0.7703    1.4161 C   0  0  0  0  0  0  0  0  0  0  0  0
    2.3725   -1.2548    0.9319 O   0  0  0  0  0  0  0  0  0  0  0  0
    1.3039   -0.5376    2.7794 N   0  0  0  0  0  0  0  0  0  0  0  0
    0.3769   -0.3333    3.1395 H   0  0  0  0  0  0  0  0  0  0  0  0
    2.2749   -1.1186    3.6975 C   0  0  0  0  0  0  0  0  0  0  0  0
    3.2875   -0.7829    3.4504 H   0  0  0  0  0  0  0  0  0  0  0  0
    2.0530   -0.8133    4.7242 H   0  0  0  0  0  0  0  0  0  0  0  0
    2.2432   -2.2120    3.6445 H   0  0  0  0  0  0  0  0  0  0  0  0
  1  2  1  0  0  0  0
  2  3  1  0  0  0  0
  2  4  1  0  0  0  0
  2  5  1  0  0  0  0
  5  6  2  0  0  0  0
  5  7  1  0  0  0  0
  7  8  1  0  0  0  0
  7  9  1  0  0  0  0
  9 10  1  0  0  0  0
  9 11  1  0  0  0  0
  9 15  1  0  0  0  0
 11 12  1  0  0  0  0
 11 13  1  0  0  0  0
 11 14  1  0  0  0  0
 15 16  2  0  0  0  0
 15 17  1  0  0  0  0
 17 18  1  0  0  0  0
 17 19  1  0  0  0  0
 19 20  1  0  0  0  0
 19 21  1  0  0  0  0
 19 22  1  0  0  0  0
M  END
$$$$

  -OEChem-11182114133D

 22 21  0     1  0  0  0  0  0999 V2000
   -3.0399   -3.5087    0.9773 H   0  0  0  0  0  0  0  0  0  0  0  0
   -2.8697   -2.5189    0.5439 C   0  0  0  0  0  0  0  0  0  0  0  0
   -3.6262   -1.8314    0.9298 H   0  0  0  0  0  0  0  0  0  0  0  0
   -2.9698   -2.5908   -0.5418 H   0  0  0  0  0  0  0  0  0  0  0  0
   -1.4828   -2.0203    0.9050 C   0  0  0  0  0  0  0  0  0  0  0  0
   -0.7970   -2.6812    1.6625 O   0  0  0  0  0  0  0  0  0  0  0  0
   -1.0622   -0.7995    0.4089 N   0  0  0  0  0  0  0  0  0  0  0  0
   -1.7240   -0.3476   -0.2148 H   0  0  0  0  0  0  0  0  0  0  0  0
    0.2922   -0.2035    0.4629 C   0  0  1  0  0  0  0  0  0  0  0  0
    0.7227   -0.2950   -0.5401 H   0  0  0  0  0  0  0  0  0  0  0  0
    0.1047    1.2848    0.7747 C   0  0  0  0  0  0  0  0  0  0  0  0
   -0.3463    1.4179    1.7632 H   0  0  0  0  0  0  0  0  0  0  0  0
    1.0714    1.7989    0.7621 H   0  0  0  0  0  0  0  0  0  0  0  0
   -0.5433    1.7546    0.0286 H   0  0  0  0  0  0  0  0  0  0  0  0
    1.3591   -0.7885    1.4250 C   0  0  0  0  0  0  0  0  0  0  0  0
    2.4854   -1.0009    0.9924 O   0  0  0  0  0  0  0  0  0  0  0  0
    1.1435   -0.8210    2.7911 N   0  0  0  0  0  0  0  0  0  0  0  0
    0.1639   -0.9134    3.0472 H   0  0  0  0  0  0  0  0  0  0  0  0
    2.1286   -1.3775    3.7096 C   0  0  0  0  0  0  0  0  0  0  0  0
    3.0700   -0.8216    3.6477 H   0  0  0  0  0  0  0  0  0  0  0  0
    1.7610   -1.3169    4.7382 H   0  0  0  0  0  0  0  0  0  0  0  0
    2.3226   -2.4284    3.4704 H   0  0  0  0  0  0  0  0  0  0  0  0
  1  2  1  0  0  0  0
  2  3  1  0  0  0  0
  2  4  1  0  0  0  0
  2  5  1  0  0  0  0
  5  6  2  0  0  0  0
  5  7  1  0  0  0  0
  7  8  1  0  0  0  0
  7  9  1  0  0  0  0
  9 10  1  0  0  0  0
  9 11  1  0  0  0  0
  9 15  1  0  0  0  0
 11 12  1  0  0  0  0
 11 13  1  0  0  0  0
 11 14  1  0  0  0  0
 15 16  2  0  0  0  0
 15 17  1  0  0  0  0
 17 18  1  0  0  0  0
 17 19  1  0  0  0  0
 19 20  1  0  0  0  0
 19 21  1  0  0  0  0
 19 22  1  0  0  0  0
M  END
$$$$

  -OEChem-11182114133D

 22 21  0     1  0  0  0  0  0999 V2000
   -3.1407   -3.4664    0.8954 H   0  0  0  0  0  0  0  0  0  0  0  0
   -2.9424   -2.4632    0.5070 C   0  0  0  0  0  0  0  0  0  0  0  0
   -3.6497   -1.7646    0.9605 H   0  0  0  0  0  0  0  0  0  0  0  0
   -3.0908   -2.4717   -0.5756 H   0  0  0  0  0  0  0  0  0  0  0  0
   -1.5202   -2.0473    0.8338 C   0  0  0  0  0  0  0  0  0  0  0  0
   -0.8349   -2.7810    1.5212 O   0  0  0  0  0  0  0  0  0  0  0  0
   -1.0586   -0.8295    0.3696 N   0  0  0  0  0  0  0  0  0  0  0  0
   -1.7256   -0.3171   -0.1994 H   0  0  0  0  0  0  0  0  0  0  0  0
    0.2979   -0.2403    0.4648 C   0  0  1  0  0  0  0  0  0  0  0  0
    0.7471   -0.3210   -0.5307 H   0  0  0  0  0  0  0  0  0  0  0  0
    0.0968    1.2430    0.7903 C   0  0  0  0  0  0  0  0  0  0  0  0
   -0.3558    1.3606    1.7802 H   0  0  0  0  0  0  0  0  0  0  0  0
    1.0586    1.7664    0.7847 H   0  0  0  0  0  0  0  0  0  0  0  0
   -0.5538    1.7157    0.0484 H   0  0  0  0  0  0  0  0  0  0  0  0
    1.3646   -0.8106    1.4384 C   0  0  0  0  0  0  0  0  0  0  0  0
    2.5424   -0.7420    1.1081 O   0  0  0  0  0  0  0  0  0  0  0  0
    1.0566   -1.1383    2.7456 N   0  0  0  0  0  0  0  0  0  0  0  0
    0.1072   -1.4948    2.8511 H   0  0  0  0  0  0  0  0  0  0  0  0
    2.0617   -1.6516    3.6677 C   0  0  0  0  0  0  0  0  0  0  0  0
    2.8743   -0.9282    3.7931 H   0  0  0  0  0  0  0  0  0  0  0  0
    1.6128   -1.8368    4.6481 H   0  0  0  0  0  0  0  0  0  0  0  0
    2.4805   -2.5915    3.2928 H   0  0  0  0  0  0  0  0  0  0  0  0
  1  2  1  0  0  0  0
  2  3  1  0  0  0  0
  2  4  1  0  0  0  0
  2  5  1  0  0  0  0
  5  6  2  0  0  0  0
  5  7  1  0  0  0  0
  7  8  1  0  0  0  0
  7  9  1  0  0  0  0
  9 10  1  0  0  0  0
  9 11  1  0  0  0  0
  9 15  1  0  0  0  0
 11 12  1  0  0  0  0
 11 13  1  0  0  0  0
 11 14  1  0  0  0  0
 15 16  2  0  0  0  0
 15 17  1  0  0  0  0
 17 18  1  0  0  0  0
 17 19  1  0  0  0  0
 19 20  1  0  0  0  0
 19 21  1  0  0  0  0
 19 22  1  0  0  0  0
M  END
$$$$

  -OEChem-11182114133D

 22 21  0     1  0  0  0  0  0999 V2000
   -3.2413   -3.4090    0.8484 H   0  0  0  0  0  0  0  0  0  0  0  0
   -3.0055   -2.4060    0.4810 C   0  0  0  0  0  0  0  0  0  0  0  0
   -3.6559   -1.6860    0.9836 H   0  0  0  0  0  0  0  0  0  0  0  0
   -3.1977   -2.3734   -0.5943 H   0  0  0  0  0  0  0  0  0  0  0  0
   -1.5509   -2.0746    0.7587 C   0  0  0  0  0  0  0  0  0  0  0  0
   -0.8635   -2.8923    1.3411 O   0  0  0  0  0  0  0  0  0  0  0  0
   -1.0541   -0.8585    0.3277 N   0  0  0  0  0  0  0  0  0  0  0  0
   -1.7316   -0.2858   -0.1665 H   0  0  0  0  0  0  0  0  0  0  0  0
    0.3010   -0.2705    0.4650 C   0  0  1  0  0  0  0  0  0  0  0  0
    0.7714   -0.3391   -0.5214 H   0  0  0  0  0  0  0  0  0  0  0  0
    0.0739    1.2092    0.7960 C   0  0  0  0  0  0  0  0  0  0  0  0
   -0.3849    1.3136    1.7845 H   0  0  0  0  0  0  0  0  0  0  0  0
    1.0261    1.7502    0.7980 H   0  0  0  0  0  0  0  0  0  0  0  0
   -0.5802    1.6762    0.0536 H   0  0  0  0  0  0  0  0  0  0  0  0
    1.3680   -0.8222    1.4534 C   0  0  0  0  0  0  0  0  0  0  0  0
    2.5405   -0.5337    1.2445 O   0  0  0  0  0  0  0  0  0  0  0  0
    1.0490   -1.4384    2.6484 N   0  0  0  0  0  0  0  0  0  0  0  0
    0.1507   -1.9238    2.6292 H   0  0  0  0  0  0  0  0  0  0  0  0
    2.0661   -1.9523    3.5572 C   0  0  0  0  0  0  0  0  0  0  0  0
    2.7285   -1.1457    3.8885 H   0  0  0  0  0  0  0  0  0  0  0  0
    1.5937   -2.3929    4.4403 H   0  0  0  0  0  0  0  0  0  0  0  0
    2.6676   -2.7227    3.0634 H   0  0  0  0  0  0  0  0  0  0  0  0
  1  2  1  0  0  0  0
  2  3  1  0  0  0  0
  2  4  1  0  0  0  0
  2  5  1  0  0  0  0
  5  6  2  0  0  0  0
  5  7  1  0  0  0  0
  7  8  1  0  0  0  0
  7  9  1  0  0  0  0
  9 10  1  0  0  0  0
  9 11  1  0  0  0  0
  9 15  1  0  0  0  0
 11 12  1  0  0  0  0
 11 13  1  0  0  0  0
 11 14  1  0  0  0  0
 15 16  2  0  0  0  0
 15 17  1  0  0  0  0
 17 18  1  0  0  0  0
 17 19  1  0  0  0  0
 19 20  1  0  0  0  0
 19 21  1  0  0  0  0
 19 22  1  0  0  0  0
M  END
$$$$

  -OEChem-11182114133D

 22 21  0     1  0  0  0  0  0999 V2000
   -3.3246   -3.3430    0.8416 H   0  0  0  0  0  0  0  0  0  0  0  0
   -3.0577   -2.3457    0.4797 C   0  0  0  0  0  0  0  0  0  0  0  0
   -3.6451   -1.6052    1.0279 H   0  0  0  0  0  0  0  0  0  0  0  0
   -3.3026   -2.2820   -0.5834 H   0  0  0  0  0  0  0  0  0  0  0  0
   -1.5760   -2.0915    0.6878 C   0  0  0  0  0  0  0  0  0  0  0  0
   -0.8894   -2.9824    1.1514 O   0  0  0  0  0  0  0  0  0  0  0  0
   -1.0506   -0.8767    0.2886 N   0  0  0  0  0  0  0  0  0  0  0  0
   -1.7374   -0.2525   -0.1235 H   0  0  0  0  0  0  0  0  0  0  0  0
    0.3043   -0.2946    0.4622 C   0  0  1  0  0  0  0  0  0  0  0  0
    0.7921   -0.3544   -0.5162 H   0  0  0  0  0  0  0  0  0  0  0  0
    0.0525    1.1826    0.7942 C   0  0  0  0  0  0  0  0  0  0  0  0
   -0.4134    1.2776    1.7802 H   0  0  0  0  0  0  0  0  0  0  0  0
    0.9945    1.7411    0.8019 H   0  0  0  0  0  0  0  0  0  0  0  0
   -0.6043    1.6413    0.0488 H   0  0  0  0  0  0  0  0  0  0  0  0
    1.3694   -0.8397    1.4618 C   0  0  0  0  0  0  0  0  0  0  0  0
    2.5030   -0.3799    1.3875 O   0  0  0  0  0  0  0  0  0  0  0  0
    1.1017   -1.7137    2.4971 N   0  0  0  0  0  0  0  0  0  0  0  0
    0.2517   -2.2669    2.3767 H   0  0  0  0  0  0  0  0  0  0  0  0
    2.1362   -2.2458    3.3754 C   0  0  0  0  0  0  0  0  0  0  0  0
    2.6460   -1.4340    3.9046 H   0  0  0  0  0  0  0  0  0  0  0  0
    1.6908   -2.9138    4.1188 H   0  0  0  0  0  0  0  0  0  0  0  0
    2.8757   -2.8109    2.7986 H   0  0  0  0  0  0  0  0  0  0  0  0
  1  2  1  0  0  0  0
  2  3  1  0  0  0  0
  2  4  1  0  0  0  0
  2  5  1  0  0  0  0
  5  6  2  0  0  0  0
  5  7  1  0  0  0  0
  7  8  1  0  0  0  0
  7  9  1  0  0  0  0
  9 10  1  0  0  0  0
  9 11  1  0  0  0  0
  9 15  1  0  0  0  0
 11 12  1  0  0  0  0
 11 13  1  0  0  0  0
 11 14  1  0  0  0  0
 15 16  2  0  0  0  0
 15 17  1  0  0  0  0
 17 18  1  0  0  0  0
 17 19  1  0  0  0  0
 19 20  1  0  0  0  0
 19 21  1  0  0  0  0
 19 22  1  0  0  0  0
M  END
$$$$

  -OEChem-11182114133D

 22 21  0     1  0  0  0  0  0999 V2000
   -2.8657   -3.6276    1.1850 H   0  0  0  0  0  0  0  0  0  0  0  0
   -2.6986   -2.6465    0.7311 C   0  0  0  0  0  0  0  0  0  0  0  0
   -3.2424   -1.8962    1.3100 H   0  0  0  0  0  0  0  0  0  0  0  0
   -3.0853   -2.6617   -0.2908 H   0  0  0  0  0  0  0  0  0  0  0  0
   -1.2169   -2.3194    0.7227 C   0  0  0  0  0  0  0  0  0  0  0  0
   -0.4220   -3.1817    1.0405 O   0  0  0  0  0  0  0  0  0  0  0  0
   -0.7936   -1.1464    0.1329 N   0  0  0  0  0  0  0  0  0  0  0  0
   -1.5644   -0.6193   -0.2644 H   0  0  0  0  0  0  0  0  0  0  0  0
    0.3856   -0.3129    0.4658 C   0  0  1  0  0  0  0  0  0  0  0  0
    1.1244   -0.5131   -0.3164 H   0  0  0  0  0  0  0  0  0  0  0  0
   -0.1165    1.1308    0.2927 C   0  0  0  0  0  0  0  0  0  0  0  0
   -0.8135    1.3914    1.0955 H   0  0  0  0  0  0  0  0  0  0  0  0
    0.7194    1.8376    0.3173 H   0  0  0  0  0  0  0  0  0  0  0  0
   -0.6249    1.2527   -0.6688 H   0  0  0  0  0  0  0  0  0  0  0  0
    1.1996   -0.4404    1.7984 C   0  0  0  0  0  0  0  0  0  0  0  0
    1.9035    0.4930    2.1563 O   0  0  0  0  0  0  0  0  0  0  0  0
    0.9873   -1.2988    2.8495 N   0  0  0  0  0  0  0  0  0  0  0  0
    1.1422   -0.7867    3.7133 H   0  0  0  0  0  0  0  0  0  0  0  0
    1.7369   -2.5509    2.8369 C   0  0  0  0  0  0  0  0  0  0  0  0
    2.6586   -2.4425    3.4172 H   0  0  0  0  0  0  0  0  0  0  0  0
    1.1375   -3.3528    3.2793 H   0  0  0  0  0  0  0  0  0  0  0  0
    2.0112   -2.8470    1.8184 H   0  0  0  0  0  0  0  0  0  0  0  0
  1  2  1  0  0  0  0
  2  3  1  0  0  0  0
  2  4  1  0  0  0  0
  2  5  1  0  0  0  0
  5  6  2  0  0  0  0
  5  7  1  0  0  0  0
  7  8  1  0  0  0  0
  7  9  1  0  0  0  0
  9 10  1  0  0  0  0
  9 11  1  0  0  0  0
  9 15  1  0  0  0  0
 11 12  1  0  0  0  0
 11 13  1  0  0  0  0
 11 14  1  0  0  0  0
 15 16  2  0  0  0  0
 15 17  1  0  0  0  0
 17 18  1  0  0  0  0
 17 19  1  0  0  0  0
 19 20  1  0  0  0  0
 19 21  1  0  0  0  0
 19 22  1  0  0  0  0
M  END
$$$$

  -OEChem-11182114133D

 22 21  0     1  0  0  0  0  0999 V2000
   -2.6339   -3.8267    1.3473 H   0  0  0  0  0  0  0  0  0  0  0  0
   -2.6164   -2.7621    1.0963 C   0  0  0  0  0  0  0  0  0  0  0  0
   -2.9330   -2.1905    1.9720 H   0  0  0  0  0  0  0  0  0  0  0  0
   -3.3179   -2.5828    0.2778 H   0  0  0  0  0  0  0  0  0  0  0  0
   -1.2177   -2.3454    0.6810 C   0  0  0  0  0  0  0  0  0  0  0  0
   -0.3724   -3.2034    0.5195 O   0  0  0  0  0  0  0  0  0  0  0  0
   -0.9951   -1.0343    0.3134 N   0  0  0  0  0  0  0  0  0  0  0  0
   -1.8353   -0.4663    0.3478 H   0  0  0  0  0  0  0  0  0  0  0  0
    0.2678   -0.2586    0.2728 C   0  0  1  0  0  0  0  0  0  0  0  0
    0.5310   -0.1797   -0.7870 H   0  0  0  0  0  0  0  0  0  0  0  0
   -0.1358    1.1343    0.7802 C   0  0  0  0  0  0  0  0  0  0  0  0
   -0.3802    1.0964    1.8466 H   0  0  0  0  0  0  0  0  0  0  0  0
    0.6810    1.8497    0.6378 H   0  0  0  0  0  0  0  0  0  0  0  0
   -1.0061    1.5092    0.2323 H   0  0  0  0  0  0  0  0  0  0  0  0
    1.6140   -0.6597    0.9638 C   0  0  0  0  0  0  0  0  0  0  0  0
    2.5809    0.0658    0.7830 O   0  0  0  0  0  0  0  0  0  0  0  0
    2.0247   -1.8569    1.4972 N   0  0  0  0  0  0  0  0  0  0  0  0
    3.0398   -1.9025    1.5046 H   0  0  0  0  0  0  0  0  0  0  0  0
    1.3912   -2.3756    2.7030 C   0  0  0  0  0  0  0  0  0  0  0  0
    2.0215   -2.1690    3.5736 H   0  0  0  0  0  0  0  0  0  0  0  0
    0.4145   -1.9134    2.8760 H   0  0  0  0  0  0  0  0  0  0  0  0
    1.2550   -3.4588    2.6213 H   0  0  0  0  0  0  0  0  0  0  0  0
  1  2  1  0  0  0  0
  2  3  1  0  0  0  0
  2  4  1  0  0  0  0
  2  5  1  0  0  0  0
  5  6  2  0  0  0  0
  5  7  1  0  0  0  0
  7  8  1  0  0  0  0
  7  9  1  0  0  0  0
  9 10  1  0  0  0  0
  9 11  1  0  0  0  0
  9 15  1  0  0  0  0
 11 12  1  0  0  0  0
 11 13  1  0  0  0  0
 11 14  1  0  0  0  0
 15 16  2  0  0  0  0
 15 17  1  0  0  0  0
 17 18  1  0  0  0  0
 17 19  1  0  0  0  0
 19 20  1  0  0  0  0
 19 21  1  0  0  0  0
 19 22  1  0  0  0  0
M  END
$$$$

  -OEChem-11182114133D

 22 21  0     1  0  0  0  0  0999 V2000
   -3.2788   -3.4068    0.8132 H   0  0  0  0  0  0  0  0  0  0  0  0
   -3.0397   -2.3815    0.5157 C   0  0  0  0  0  0  0  0  0  0  0  0
   -3.5535   -1.6933    1.1914 H   0  0  0  0  0  0  0  0  0  0  0  0
   -3.3993   -2.2186   -0.5033 H   0  0  0  0  0  0  0  0  0  0  0  0
   -1.5408   -2.1522    0.5806 C   0  0  0  0  0  0  0  0  0  0  0  0
   -0.8179   -3.1021    0.8128 O   0  0  0  0  0  0  0  0  0  0  0  0
   -1.0559   -0.8935    0.2757 N   0  0  0  0  0  0  0  0  0  0  0  0
   -1.7921   -0.2356    0.0384 H   0  0  0  0  0  0  0  0  0  0  0  0
    0.2823   -0.2736    0.4589 C   0  0  1  0  0  0  0  0  0  0  0  0
    0.7445   -0.2573   -0.5329 H   0  0  0  0  0  0  0  0  0  0  0  0
   -0.0387    1.1778    0.8578 C   0  0  0  0  0  0  0  0  0  0  0  0
   -0.4404    1.2129    1.8756 H   0  0  0  0  0  0  0  0  0  0  0  0
    0.8624    1.7988    0.8196 H   0  0  0  0  0  0  0  0  0  0  0  0
   -0.7724    1.6164    0.1745 H   0  0  0  0  0  0  0  0  0  0  0  0
    1.4048   -0.8564    1.3832 C   0  0  0  0  0  0  0  0  0  0  0  0
    2.2316   -0.0895    1.8647 O   0  0  0  0  0  0  0  0  0  0  0  0
    1.5828   -2.1959    1.6627 N   0  0  0  0  0  0  0  0  0  0  0  0
    0.8607   -2.8315    1.3185 H   0  0  0  0  0  0  0  0  0  0  0  0
    2.6152   -2.7230    2.5462 C   0  0  0  0  0  0  0  0  0  0  0  0
    2.4973   -2.3190    3.5569 H   0  0  0  0  0  0  0  0  0  0  0  0
    2.5438   -3.8137    2.5984 H   0  0  0  0  0  0  0  0  0  0  0  0
    3.6108   -2.4602    2.1738 H   0  0  0  0  0  0  0  0  0  0  0  0
  1  2  1  0  0  0  0
  2  3  1  0  0  0  0
  2  4  1  0  0  0  0
  2  5  1  0  0  0  0
  5  6  2  0  0  0  0
  5  7  1  0  0  0  0
  7  8  1  0  0  0  0
  7  9  1  0  0  0  0
  9 10  1  0  0  0  0
  9 11  1  0  0  0  0
  9 15  1  0  0  0  0
 11 12  1  0  0  0  0
 11 13  1  0  0  0  0
 11 14  1  0  0  0  0
 15 16  2  0  0  0  0
 15 17  1  0  0  0  0
 17 18  1  0  0  0  0
 17 19  1  0  0  0  0
 19 20  1  0  0  0  0
 19 21  1  0  0  0  0
 19 22  1  0  0  0  0
M  END
$$$$

  -OEChem-11182114133D

 22 21  0     1  0  0  0  0  0999 V2000
   -3.2497   -3.3535    0.9839 H   0  0  0  0  0  0  0  0  0  0  0  0
   -3.0189   -2.3345    0.6597 C   0  0  0  0  0  0  0  0  0  0  0  0
   -3.4979   -1.6323    1.3465 H   0  0  0  0  0  0  0  0  0  0  0  0
   -3.4225   -2.1856   -0.3448 H   0  0  0  0  0  0  0  0  0  0  0  0
   -1.5177   -2.1132    0.6542 C   0  0  0  0  0  0  0  0  0  0  0  0
   -0.7885   -3.0597    0.8818 O   0  0  0  0  0  0  0  0  0  0  0  0
   -1.0383   -0.8659    0.2985 N   0  0  0  0  0  0  0  0  0  0  0  0
   -1.7760   -0.2018    0.0844 H   0  0  0  0  0  0  0  0  0  0  0  0
    0.3165   -0.2691    0.4125 C   0  0  1  0  0  0  0  0  0  0  0  0
    0.7428   -0.2871   -0.5952 H   0  0  0  0  0  0  0  0  0  0  0  0
    0.0525    1.2001    0.7849 C   0  0  0  0  0  0  0  0  0  0  0  0
   -0.3213    1.2721    1.8115 H   0  0  0  0  0  0  0  0  0  0  0  0
    0.9733    1.7879    0.7096 H   0  0  0  0  0  0  0  0  0  0  0  0
   -0.6844    1.6464    0.1103 H   0  0  0  0  0  0  0  0  0  0  0  0
    1.4446   -0.8807    1.3083 C   0  0  0  0  0  0  0  0  0  0  0  0
    2.1718   -0.1377    1.9588 O   0  0  0  0  0  0  0  0  0  0  0  0
    1.7414   -2.2285    1.3425 N   0  0  0  0  0  0  0  0  0  0  0  0
    1.0111   -2.8418    0.9736 H   0  0  0  0  0  0  0  0  0  0  0  0
    2.7384   -2.8125    2.2309 C   0  0  0  0  0  0  0  0  0  0  0  0
    2.4638   -2.6448    3.2774 H   0  0  0  0  0  0  0  0  0  0  0  0
    2.8085   -3.8906    2.0582 H   0  0  0  0  0  0  0  0  0  0  0  0
    3.7234   -2.3704    2.0483 H   0  0  0  0  0  0  0  0  0  0  0  0
  1  2  1  0  0  0  0
  2  3  1  0  0  0  0
  2  4  1  0  0  0  0
  2  5  1  0  0  0  0
  5  6  2  0  0  0  0
  5  7  1  0  0  0  0
  7  8  1  0  0  0  0
  7  9  1  0  0  0  0
  9 10  1  0  0  0  0
  9 11  1  0  0  0  0
  9 15  1  0  0  0  0
 11 12  1  0  0  0  0
 11 13  1  0  0  0  0
 11 14  1  0  0  0  0
 15 16  2  0  0  0  0
 15 17  1  0  0  0  0
 17 18  1  0  0  0  0
 17 19  1  0  0  0  0
 19 20  1  0  0  0  0
 19 21  1  0  0  0  0
 19 22  1  0  0  0  0
M  END
$$$$

  -OEChem-11182114133D

 22 21  0     1  0  0  0  0  0999 V2000
   -3.0961   -3.4160    1.0526 H   0  0  0  0  0  0  0  0  0  0  0  0
   -2.9212   -2.3847    0.7329 C   0  0  0  0  0  0  0  0  0  0  0  0
   -3.3806   -1.7109    1.4604 H   0  0  0  0  0  0  0  0  0  0  0  0
   -3.3914   -2.2346   -0.2419 H   0  0  0  0  0  0  0  0  0  0  0  0
   -1.4316   -2.1107    0.6392 C   0  0  0  0  0  0  0  0  0  0  0  0
   -0.6526   -3.0327    0.7969 O   0  0  0  0  0  0  0  0  0  0  0  0
   -1.0090   -0.8476    0.2691 N   0  0  0  0  0  0  0  0  0  0  0  0
   -1.7707   -0.1929    0.1201 H   0  0  0  0  0  0  0  0  0  0  0  0
    0.3332   -0.2297    0.3887 C   0  0  1  0  0  0  0  0  0  0  0  0
    0.7744   -0.2428   -0.6126 H   0  0  0  0  0  0  0  0  0  0  0  0
    0.0616    1.2370    0.7616 C   0  0  0  0  0  0  0  0  0  0  0  0
   -0.3611    1.3036    1.7696 H   0  0  0  0  0  0  0  0  0  0  0  0
    0.9903    1.8166    0.7371 H   0  0  0  0  0  0  0  0  0  0  0  0
   -0.6390    1.6931    0.0555 H   0  0  0  0  0  0  0  0  0  0  0  0
    1.4321   -0.8563    1.3051 C   0  0  0  0  0  0  0  0  0  0  0  0
    1.9955   -0.1714    2.1522 O   0  0  0  0  0  0  0  0  0  0  0  0
    1.9006   -2.1398    1.1023 N   0  0  0  0  0  0  0  0  0  0  0  0
    1.2269   -2.7547    0.6394 H   0  0  0  0  0  0  0  0  0  0  0  0
    2.8867   -2.7660    1.9742 C   0  0  0  0  0  0  0  0  0  0  0  0
    2.4982   -2.8484    2.9946 H   0  0  0  0  0  0  0  0  0  0  0  0
    3.1254   -3.7699    1.6106 H   0  0  0  0  0  0  0  0  0  0  0  0
    3.8113   -2.1796    1.9942 H   0  0  0  0  0  0  0  0  0  0  0  0
  1  2  1  0  0  0  0
  2  3  1  0  0  0  0
  2  4  1  0  0  0  0
  2  5  1  0  0  0  0
  5  6  2  0  0  0  0
  5  7  1  0  0  0  0
  7  8  1  0  0  0  0
  7  9  1  0  0  0  0
  9 10  1  0  0  0  0
  9 11  1  0  0  0  0
  9 15  1  0  0  0  0
 11 12  1  0  0  0  0
 11 13  1  0  0  0  0
 11 14  1  0  0  0  0
 15 16  2  0  0  0  0
 15 17  1  0  0  0  0
 17 18  1  0  0  0  0
 17 19  1  0  0  0  0
 19 20  1  0  0  0  0
 19 21  1  0  0  0  0
 19 22  1  0  0  0  0
M  END
$$$$

  -OEChem-11182114133D

 22 21  0     1  0  0  0  0  0999 V2000
   -2.9295   -3.4691    1.1325 H   0  0  0  0  0  0  0  0  0  0  0  0
   -2.8154   -2.4337    0.7988 C   0  0  0  0  0  0  0  0  0  0  0  0
   -3.2561   -1.7739    1.5500 H   0  0  0  0  0  0  0  0  0  0  0  0
   -3.3487   -2.3076   -0.1464 H   0  0  0  0  0  0  0  0  0  0  0  0
   -1.3462   -2.1026    0.6150 C   0  0  0  0  0  0  0  0  0  0  0  0
   -0.5197   -2.9946    0.6946 O   0  0  0  0  0  0  0  0  0  0  0  0
   -0.9860   -0.8248    0.2300 N   0  0  0  0  0  0  0  0  0  0  0  0
   -1.7691   -0.1831    0.1532 H   0  0  0  0  0  0  0  0  0  0  0  0
    0.3434   -0.1880    0.3614 C   0  0  1  0  0  0  0  0  0  0  0  0
    0.8025   -0.1913   -0.6320 H   0  0  0  0  0  0  0  0  0  0  0  0
    0.0710    1.2745    0.7445 C   0  0  0  0  0  0  0  0  0  0  0  0
   -0.3912    1.3324    1.7356 H   0  0  0  0  0  0  0  0  0  0  0  0
    1.0073    1.8420    0.7664 H   0  0  0  0  0  0  0  0  0  0  0  0
   -0.5965    1.7465    0.0173 H   0  0  0  0  0  0  0  0  0  0  0  0
    1.4045   -0.8349    1.3018 C   0  0  0  0  0  0  0  0  0  0  0  0
    1.7696   -0.2591    2.3214 O   0  0  0  0  0  0  0  0  0  0  0  0
    2.0697   -1.9836    0.9176 N   0  0  0  0  0  0  0  0  0  0  0  0
    1.5091   -2.5851    0.3122 H   0  0  0  0  0  0  0  0  0  0  0  0
    3.0381   -2.6423    1.7853 C   0  0  0  0  0  0  0  0  0  0  0  0
    2.5584   -2.9713    2.7131 H   0  0  0  0  0  0  0  0  0  0  0  0
    3.4596   -3.5175    1.2821 H   0  0  0  0  0  0  0  0  0  0  0  0
    3.8590   -1.9617    2.0343 H   0  0  0  0  0  0  0  0  0  0  0  0
  1  2  1  0  0  0  0
  2  3  1  0  0  0  0
  2  4  1  0  0  0  0
  2  5  1  0  0  0  0
  5  6  2  0  0  0  0
  5  7  1  0  0  0  0
  7  8  1  0  0  0  0
  7  9  1  0  0  0  0
  9 10  1  0  0  0  0
  9 11  1  0  0  0  0
  9 15  1  0  0  0  0
 11 12  1  0  0  0  0
 11 13  1  0  0  0  0
 11 14  1  0  0  0  0
 15 16  2  0  0  0  0
 15 17  1  0  0  0  0
 17 18  1  0  0  0  0
 17 19  1  0  0  0  0
 19 20  1  0  0  0  0
 19 21  1  0  0  0  0
 19 22  1  0  0  0  0
M  END
$$$$

  -OEChem-11182114133D

 22 21  0     1  0  0  0  0  0999 V2000
   -2.7959   -3.5059    1.1924 H   0  0  0  0  0  0  0  0  0  0  0  0
   -2.7296   -2.4670    0.8570 C   0  0  0  0  0  0  0  0  0  0  0  0
   -3.1473   -1.8213    1.6333 H   0  0  0  0  0  0  0  0  0  0  0  0
   -3.3160   -2.3537   -0.0581 H   0  0  0  0  0  0  0  0  0  0  0  0
   -1.2821   -2.0943    0.5970 C   0  0  0  0  0  0  0  0  0  0  0  0
   -0.4243   -2.9608    0.6265 O   0  0  0  0  0  0  0  0  0  0  0  0
   -0.9732   -0.8078    0.1961 N   0  0  0  0  0  0  0  0  0  0  0  0
   -1.7711   -0.1802    0.1753 H   0  0  0  0  0  0  0  0  0  0  0  0
    0.3458   -0.1555    0.3322 C   0  0  1  0  0  0  0  0  0  0  0  0
    0.8147   -0.1496   -0.6565 H   0  0  0  0  0  0  0  0  0  0  0  0
    0.0707    1.3021    0.7288 C   0  0  0  0  0  0  0  0  0  0  0  0
   -0.4256    1.3496    1.7038 H   0  0  0  0  0  0  0  0  0  0  0  0
    1.0099    1.8612    0.7924 H   0  0  0  0  0  0  0  0  0  0  0  0
   -0.5687    1.7888   -0.0139 H   0  0  0  0  0  0  0  0  0  0  0  0
    1.3815   -0.8136    1.2888 C   0  0  0  0  0  0  0  0  0  0  0  0
    1.5255   -0.3969    2.4333 O   0  0  0  0  0  0  0  0  0  0  0  0
    2.2591   -1.7660    0.8044 N   0  0  0  0  0  0  0  0  0  0  0  0
    1.9000   -2.2870    0.0072 H   0  0  0  0  0  0  0  0  0  0  0  0
    3.2009   -2.4565    1.6769 C   0  0  0  0  0  0  0  0  0  0  0  0
    2.6641   -3.0309    2.4393 H   0  0  0  0  0  0  0  0  0  0  0  0
    3.8200   -3.1448    1.0938 H   0  0  0  0  0  0  0  0  0  0  0  0
    3.8617   -1.7393    2.1752 H   0  0  0  0  0  0  0  0  0  0  0  0
  1  2  1  0  0  0  0
  2  3  1  0  0  0  0
  2  4  1  0  0  0  0
  2  5  1  0  0  0  0
  5  6  2  0  0  0  0
  5  7  1  0  0  0  0
  7  8  1  0  0  0  0
  7  9  1  0  0  0  0
  9 10  1  0  0  0  0
  9 11  1  0  0  0  0
  9 15  1  0  0  0  0
 11 12  1  0  0  0  0
 11 13  1  0  0  0  0
 11 14  1  0  0  0  0
 15 16  2  0  0  0  0
 15 17  1  0  0  0  0
 17 18  1  0  0  0  0
 17 19  1  0  0  0  0
 19 20  1  0  0  0  0
 19 21  1  0  0  0  0
 19 22  1  0  0  0  0
M  END
$$$$

  -OEChem-11182114133D

 22 21  0     1  0  0  0  0  0999 V2000
   -2.7257   -3.5296    1.2116 H   0  0  0  0  0  0  0  0  0  0  0  0
   -2.6803   -2.4830    0.8973 C   0  0  0  0  0  0  0  0  0  0  0  0
   -3.0676   -1.8579    1.7056 H   0  0  0  0  0  0  0  0  0  0  0  0
   -3.3063   -2.3533    0.0111 H   0  0  0  0  0  0  0  0  0  0  0  0
   -1.2480   -2.0935    0.5837 C   0  0  0  0  0  0  0  0  0  0  0  0
   -0.3780   -2.9489    0.5757 O   0  0  0  0  0  0  0  0  0  0  0  0
   -0.9695   -0.8041    0.1691 N   0  0  0  0  0  0  0  0  0  0  0  0
   -1.7743   -0.1858    0.1894 H   0  0  0  0  0  0  0  0  0  0  0  0
    0.3426   -0.1415    0.3086 C   0  0  1  0  0  0  0  0  0  0  0  0
    0.8154   -0.1318   -0.6780 H   0  0  0  0  0  0  0  0  0  0  0  0
    0.0670    1.3120    0.7135 C   0  0  0  0  0  0  0  0  0  0  0  0
   -0.4363    1.3534    1.6853 H   0  0  0  0  0  0  0  0  0  0  0  0
    1.0066    1.8688    0.7877 H   0  0  0  0  0  0  0  0  0  0  0  0
   -0.5669    1.8037   -0.0306 H   0  0  0  0  0  0  0  0  0  0  0  0
    1.3661   -0.7962    1.2771 C   0  0  0  0  0  0  0  0  0  0  0  0
    1.3065   -0.5699    2.4811 O   0  0  0  0  0  0  0  0  0  0  0  0
    2.4417   -1.5055    0.7743 N   0  0  0  0  0  0  0  0  0  0  0  0
    2.3188   -1.8627   -0.1688 H   0  0  0  0  0  0  0  0  0  0  0  0
    3.3733   -2.2102    1.6463 C   0  0  0  0  0  0  0  0  0  0  0  0
    2.8493   -2.9838    2.2177 H   0  0  0  0  0  0  0  0  0  0  0  0
    4.1588   -2.6875    1.0529 H   0  0  0  0  0  0  0  0  0  0  0  0
    3.8472   -1.5145    2.3469 H   0  0  0  0  0  0  0  0  0  0  0  0
  1  2  1  0  0  0  0
  2  3  1  0  0  0  0
  2  4  1  0  0  0  0
  2  5  1  0  0  0  0
  5  6  2  0  0  0  0
  5  7  1  0  0  0  0
  7  8  1  0  0  0  0
  7  9  1  0  0  0  0
  9 10  1  0  0  0  0
  9 11  1  0  0  0  0
  9 15  1  0  0  0  0
 11 12  1  0  0  0  0
 11 13  1  0  0  0  0
 11 14  1  0  0  0  0
 15 16  2  0  0  0  0
 15 17  1  0  0  0  0
 17 18  1  0  0  0  0
 17 19  1  0  0  0  0
 19 20  1  0  0  0  0
 19 21  1  0  0  0  0
 19 22  1  0  0  0  0
M  END
$$$$

  -OEChem-11182114133D

 22 21  0     1  0  0  0  0  0999 V2000
   -2.6934   -3.5405    1.2190 H   0  0  0  0  0  0  0  0  0  0  0  0
   -2.6586   -2.4889    0.9203 C   0  0  0  0  0  0  0  0  0  0  0  0
   -3.0169   -1.8771    1.7517 H   0  0  0  0  0  0  0  0  0  0  0  0
   -3.3146   -2.3448    0.0587 H   0  0  0  0  0  0  0  0  0  0  0  0
   -1.2376   -2.0949    0.5640 C   0  0  0  0  0  0  0  0  0  0  0  0
   -0.3688   -2.9505    0.5132 O   0  0  0  0  0  0  0  0  0  0  0  0
   -0.9717   -0.8046    0.1429 N   0  0  0  0  0  0  0  0  0  0  0  0
   -1.7768   -0.1887    0.1915 H   0  0  0  0  0  0  0  0  0  0  0  0
    0.3392   -0.1419    0.2911 C   0  0  1  0  0  0  0  0  0  0  0  0
    0.8165   -0.1317   -0.6933 H   0  0  0  0  0  0  0  0  0  0  0  0
    0.0681    1.3084    0.7072 C   0  0  0  0  0  0  0  0  0  0  0  0
   -0.4369    1.3425    1.6784 H   0  0  0  0  0  0  0  0  0  0  0  0
    1.0091    1.8618    0.7884 H   0  0  0  0  0  0  0  0  0  0  0  0
   -0.5628    1.8087   -0.0337 H   0  0  0  0  0  0  0  0  0  0  0  0
    1.3511   -0.7969    1.2700 C   0  0  0  0  0  0  0  0  0  0  0  0
    1.1417   -0.7578    2.4780 O   0  0  0  0  0  0  0  0  0  0  0  0
    2.5797   -1.2385    0.8125 N   0  0  0  0  0  0  0  0  0  0  0  0
    2.6450   -1.4131   -0.1855 H   0  0  0  0  0  0  0  0  0  0  0  0
    3.5345   -1.9086    1.6867 C   0  0  0  0  0  0  0  0  0  0  0  0
    3.1013   -2.8310    2.0882 H   0  0  0  0  0  0  0  0  0  0  0  0
    4.4423   -2.1631    1.1312 H   0  0  0  0  0  0  0  0  0  0  0  0
    3.8142   -1.2578    2.5220 H   0  0  0  0  0  0  0  0  0  0  0  0
  1  2  1  0  0  0  0
  2  3  1  0  0  0  0
  2  4  1  0  0  0  0
  2  5  1  0  0  0  0
  5  6  2  0  0  0  0
  5  7  1  0  0  0  0
  7  8  1  0  0  0  0
  7  9  1  0  0  0  0
  9 10  1  0  0  0  0
  9 11  1  0  0  0  0
  9 15  1  0  0  0  0
 11 12  1  0  0  0  0
 11 13  1  0  0  0  0
 11 14  1  0  0  0  0
 15 16  2  0  0  0  0
 15 17  1  0  0  0  0
 17 18  1  0  0  0  0
 17 19  1  0  0  0  0
 19 20  1  0  0  0  0
 19 21  1  0  0  0  0
 19 22  1  0  0  0  0
M  END
$$$$

  -OEChem-11182114133D

 22 21  0     1  0  0  0  0  0999 V2000
   -2.6994   -3.5418    1.2076 H   0  0  0  0  0  0  0  0  0  0  0  0
   -2.6599   -2.4847    0.9302 C   0  0  0  0  0  0  0  0  0  0  0  0
   -2.9825   -1.8863    1.7856 H   0  0  0  0  0  0  0  0  0  0  0  0
   -3.3415   -2.3133    0.0937 H   0  0  0  0  0  0  0  0  0  0  0  0
   -1.2455   -2.1023    0.5365 C   0  0  0  0  0  0  0  0  0  0  0  0
   -0.3895   -2.9669    0.4383 O   0  0  0  0  0  0  0  0  0  0  0  0
   -0.9755   -0.8117    0.1191 N   0  0  0  0  0  0  0  0  0  0  0  0
   -1.7753   -0.1915    0.1921 H   0  0  0  0  0  0  0  0  0  0  0  0
    0.3392   -0.1597    0.2814 C   0  0  1  0  0  0  0  0  0  0  0  0
    0.8216   -0.1497   -0.7005 H   0  0  0  0  0  0  0  0  0  0  0  0
    0.0768    1.2881    0.7092 C   0  0  0  0  0  0  0  0  0  0  0  0
   -0.4218    1.3161    1.6838 H   0  0  0  0  0  0  0  0  0  0  0  0
    1.0205    1.8370    0.7888 H   0  0  0  0  0  0  0  0  0  0  0  0
   -0.5567    1.7967   -0.0237 H   0  0  0  0  0  0  0  0  0  0  0  0
    1.3432   -0.8182    1.2655 C   0  0  0  0  0  0  0  0  0  0  0  0
    1.0349   -0.9531    2.4453 O   0  0  0  0  0  0  0  0  0  0  0  0
    2.6685   -0.9799    0.9018 N   0  0  0  0  0  0  0  0  0  0  0  0
    2.8730   -0.9567   -0.0921 H   0  0  0  0  0  0  0  0  0  0  0  0
    3.6574   -1.5675    1.7975 C   0  0  0  0  0  0  0  0  0  0  0  0
    3.3693   -2.5895    2.0663 H   0  0  0  0  0  0  0  0  0  0  0  0
    4.6370   -1.5985    1.3111 H   0  0  0  0  0  0  0  0  0  0  0  0
    3.7470   -0.9740    2.7135 H   0  0  0  0  0  0  0  0  0  0  0  0
  1  2  1  0  0  0  0
  2  3  1  0  0  0  0
  2  4  1  0  0  0  0
  2  5  1  0  0  0  0
  5  6  2  0  0  0  0
  5  7  1  0  0  0  0
  7  8  1  0  0  0  0
  7  9  1  0  0  0  0
  9 10  1  0  0  0  0
  9 11  1  0  0  0  0
  9 15  1  0  0  0  0
 11 12  1  0  0  0  0
 11 13  1  0  0  0  0
 11 14  1  0  0  0  0
 15 16  2  0  0  0  0
 15 17  1  0  0  0  0
 17 18  1  0  0  0  0
 17 19  1  0  0  0  0
 19 20  1  0  0  0  0
 19 21  1  0  0  0  0
 19 22  1  0  0  0  0
M  END
$$$$

  -OEChem-11182114133D

 22 21  0     1  0  0  0  0  0999 V2000
   -2.7058   -3.5388    1.1993 H   0  0  0  0  0  0  0  0  0  0  0  0
   -2.6580   -2.4765    0.9436 C   0  0  0  0  0  0  0  0  0  0  0  0
   -2.9371   -1.8923    1.8238 H   0  0  0  0  0  0  0  0  0  0  0  0
   -3.3672   -2.2748    0.1375 H   0  0  0  0  0  0  0  0  0  0  0  0
   -1.2528   -2.1100    0.5050 C   0  0  0  0  0  0  0  0  0  0  0  0
   -0.4183   -2.9866    0.3457 O   0  0  0  0  0  0  0  0  0  0  0  0
   -0.9745   -0.8193    0.0943 N   0  0  0  0  0  0  0  0  0  0  0  0
   -1.7669   -0.1937    0.1935 H   0  0  0  0  0  0  0  0  0  0  0  0
    0.3457   -0.1814    0.2720 C   0  0  1  0  0  0  0  0  0  0  0  0
    0.8343   -0.1707   -0.7068 H   0  0  0  0  0  0  0  0  0  0  0  0
    0.0874    1.2635    0.7113 C   0  0  0  0  0  0  0  0  0  0  0  0
   -0.4066    1.2837    1.6885 H   0  0  0  0  0  0  0  0  0  0  0  0
    1.0315    1.8119    0.7909 H   0  0  0  0  0  0  0  0  0  0  0  0
   -0.5490    1.7779   -0.0153 H   0  0  0  0  0  0  0  0  0  0  0  0
    1.3456   -0.8430    1.2594 C   0  0  0  0  0  0  0  0  0  0  0  0
    0.9745   -1.1505    2.3876 O   0  0  0  0  0  0  0  0  0  0  0  0
    2.7066   -0.7276    1.0342 N   0  0  0  0  0  0  0  0  0  0  0  0
    2.9994   -0.4989    0.0898 H   0  0  0  0  0  0  0  0  0  0  0  0
    3.7052   -1.2303    1.9703 C   0  0  0  0  0  0  0  0  0  0  0  0
    3.5744   -2.3063    2.1265 H   0  0  0  0  0  0  0  0  0  0  0  0
    4.7121   -1.0561    1.5796 H   0  0  0  0  0  0  0  0  0  0  0  0
    3.6173   -0.7207    2.9356 H   0  0  0  0  0  0  0  0  0  0  0  0
  1  2  1  0  0  0  0
  2  3  1  0  0  0  0
  2  4  1  0  0  0  0
  2  5  1  0  0  0  0
  5  6  2  0  0  0  0
  5  7  1  0  0  0  0
  7  8  1  0  0  0  0
  7  9  1  0  0  0  0
  9 10  1  0  0  0  0
  9 11  1  0  0  0  0
  9 15  1  0  0  0  0
 11 12  1  0  0  0  0
 11 13  1  0  0  0  0
 11 14  1  0  0  0  0
 15 16  2  0  0  0  0
 15 17  1  0  0  0  0
 17 18  1  0  0  0  0
 17 19  1  0  0  0  0
 19 20  1  0  0  0  0
 19 21  1  0  0  0  0
 19 22  1  0  0  0  0
M  END
$$$$

  -OEChem-11182114133D

 22 21  0     1  0  0  0  0  0999 V2000
   -2.7213   -3.5329    1.1858 H   0  0  0  0  0  0  0  0  0  0  0  0
   -2.6582   -2.4652    0.9577 C   0  0  0  0  0  0  0  0  0  0  0  0
   -2.8887   -1.8998    1.8638 H   0  0  0  0  0  0  0  0  0  0  0  0
   -3.3926   -2.2246    0.1854 H   0  0  0  0  0  0  0  0  0  0  0  0
   -1.2622   -2.1185    0.4765 C   0  0  0  0  0  0  0  0  0  0  0  0
   -0.4572   -3.0083    0.2519 O   0  0  0  0  0  0  0  0  0  0  0  0
   -0.9691   -0.8276    0.0777 N   0  0  0  0  0  0  0  0  0  0  0  0
   -1.7522   -0.1950    0.2017 H   0  0  0  0  0  0  0  0  0  0  0  0
    0.3578   -0.2055    0.2679 C   0  0  1  0  0  0  0  0  0  0  0  0
    0.8498   -0.1926   -0.7093 H   0  0  0  0  0  0  0  0  0  0  0  0
    0.0974    1.2383    0.7130 C   0  0  0  0  0  0  0  0  0  0  0  0
   -0.3946    1.2529    1.6913 H   0  0  0  0  0  0  0  0  0  0  0  0
    1.0384    1.7918    0.7921 H   0  0  0  0  0  0  0  0  0  0  0  0
   -0.5424    1.7536   -0.0101 H   0  0  0  0  0  0  0  0  0  0  0  0
    1.3621   -0.8695    1.2530 C   0  0  0  0  0  0  0  0  0  0  0  0
    0.9659   -1.3565    2.3065 O   0  0  0  0  0  0  0  0  0  0  0  0
    2.6951   -0.4962    1.2020 N   0  0  0  0  0  0  0  0  0  0  0  0
    3.0224   -0.0638    0.3443 H   0  0  0  0  0  0  0  0  0  0  0  0
    3.6806   -0.9199    2.1904 C   0  0  0  0  0  0  0  0  0  0  0  0
    3.7196   -2.0129    2.2483 H   0  0  0  0  0  0  0  0  0  0  0  0
    4.6738   -0.5523    1.9155 H   0  0  0  0  0  0  0  0  0  0  0  0
    3.4278   -0.5233    3.1794 H   0  0  0  0  0  0  0  0  0  0  0  0
  1  2  1  0  0  0  0
  2  3  1  0  0  0  0
  2  4  1  0  0  0  0
  2  5  1  0  0  0  0
  5  6  2  0  0  0  0
  5  7  1  0  0  0  0
  7  8  1  0  0  0  0
  7  9  1  0  0  0  0
  9 10  1  0  0  0  0
  9 11  1  0  0  0  0
  9 15  1  0  0  0  0
 11 12  1  0  0  0  0
 11 13  1  0  0  0  0
 11 14  1  0  0  0  0
 15 16  2  0  0  0  0
 15 17  1  0  0  0  0
 17 18  1  0  0  0  0
 17 19  1  0  0  0  0
 19 20  1  0  0  0  0
 19 21  1  0  0  0  0
 19 22  1  0  0  0  0
M  END
$$$$

  -OEChem-11182114133D

 22 21  0     1  0  0  0  0  0999 V2000
   -2.7978   -3.4446    1.2930 H   0  0  0  0  0  0  0  0  0  0  0  0
   -2.6644   -2.3807    1.0777 C   0  0  0  0  0  0  0  0  0  0  0  0
   -2.7124   -1.8252    2.0173 H   0  0  0  0  0  0  0  0  0  0  0  0
   -3.4710   -2.0488    0.4201 H   0  0  0  0  0  0  0  0  0  0  0  0
   -1.3209   -2.1516    0.4119 C   0  0  0  0  0  0  0  0  0  0  0  0
   -0.6919   -3.1023   -0.0206 O   0  0  0  0  0  0  0  0  0  0  0  0
   -0.9599   -0.8801    0.0114 N   0  0  0  0  0  0  0  0  0  0  0  0
   -1.7125   -0.2179    0.1639 H   0  0  0  0  0  0  0  0  0  0  0  0
    0.3837   -0.2911    0.2082 C   0  0  1  0  0  0  0  0  0  0  0  0
    0.7688   -0.0562   -0.7886 H   0  0  0  0  0  0  0  0  0  0  0  0
    0.1332    1.0203    0.9664 C   0  0  0  0  0  0  0  0  0  0  0  0
   -0.2257    0.8102    1.9797 H   0  0  0  0  0  0  0  0  0  0  0  0
    1.0515    1.6104    1.0411 H   0  0  0  0  0  0  0  0  0  0  0  0
   -0.6152    1.6278    0.4478 H   0  0  0  0  0  0  0  0  0  0  0  0
    1.5258   -1.0849    0.9159 C   0  0  0  0  0  0  0  0  0  0  0  0
    1.2951   -1.9737    1.7247 O   0  0  0  0  0  0  0  0  0  0  0  0
    2.7602   -0.4687    1.0555 N   0  0  0  0  0  0  0  0  0  0  0  0
    2.9538    0.3282    0.4580 H   0  0  0  0  0  0  0  0  0  0  0  0
    3.8331   -0.9870    1.8983 C   0  0  0  0  0  0  0  0  0  0  0  0
    4.0816   -2.0150    1.6140 H   0  0  0  0  0  0  0  0  0  0  0  0
    4.7313   -0.3721    1.7884 H   0  0  0  0  0  0  0  0  0  0  0  0
    3.5330   -0.9752    2.9515 H   0  0  0  0  0  0  0  0  0  0  0  0
  1  2  1  0  0  0  0
  2  3  1  0  0  0  0
  2  4  1  0  0  0  0
  2  5  1  0  0  0  0
  5  6  2  0  0  0  0
  5  7  1  0  0  0  0
  7  8  1  0  0  0  0
  7  9  1  0  0  0  0
  9 10  1  0  0  0  0
  9 11  1  0  0  0  0
  9 15  1  0  0  0  0
 11 12  1  0  0  0  0
 11 13  1  0  0  0  0
 11 14  1  0  0  0  0
 15 16  2  0  0  0  0
 15 17  1  0  0  0  0
 17 18  1  0  0  0  0
 17 19  1  0  0  0  0
 19 20  1  0  0  0  0
 19 21  1  0  0  0  0
 19 22  1  0  0  0  0
M  END
$$$$

  -OEChem-11182114133D

 22 21  0     1  0  0  0  0  0999 V2000
   -2.7900   -3.5602    1.1715 H   0  0  0  0  0  0  0  0  0  0  0  0
   -2.6094   -2.6669    0.5670 C   0  0  0  0  0  0  0  0  0  0  0  0
   -3.5330   -2.0865    0.5084 H   0  0  0  0  0  0  0  0  0  0  0  0
   -2.3148   -2.9788   -0.4377 H   0  0  0  0  0  0  0  0  0  0  0  0
   -1.5080   -1.8322    1.1927 C   0  0  0  0  0  0  0  0  0  0  0  0
   -1.1410   -2.0765    2.3299 O   0  0  0  0  0  0  0  0  0  0  0  0
   -1.1319   -0.6398    0.6032 N   0  0  0  0  0  0  0  0  0  0  0  0
   -1.6769   -0.4389   -0.2285 H   0  0  0  0  0  0  0  0  0  0  0  0
    0.2589   -0.1343    0.5475 C   0  0  1  0  0  0  0  0  0  0  0  0
    0.5262   -0.0184   -0.5071 H   0  0  0  0  0  0  0  0  0  0  0  0
    0.1937    1.2582    1.1911 C   0  0  0  0  0  0  0  0  0  0  0  0
    0.0051    1.1688    2.2662 H   0  0  0  0  0  0  0  0  0  0  0  0
    1.1286    1.8055    1.0412 H   0  0  0  0  0  0  0  0  0  0  0  0
   -0.6143    1.8476    0.7464 H   0  0  0  0  0  0  0  0  0  0  0  0
    1.4158   -0.9715    1.1723 C   0  0  0  0  0  0  0  0  0  0  0  0
    1.4470   -2.1847    1.0056 O   0  0  0  0  0  0  0  0  0  0  0  0
    2.6439   -0.3716    1.4055 N   0  0  0  0  0  0  0  0  0  0  0  0
    2.6511    0.6379    1.5057 H   0  0  0  0  0  0  0  0  0  0  0  0
    3.8437   -1.1157    1.7747 C   0  0  0  0  0  0  0  0  0  0  0  0
    4.1404   -1.7914    0.9656 H   0  0  0  0  0  0  0  0  0  0  0  0
    4.6714   -0.4271    1.9686 H   0  0  0  0  0  0  0  0  0  0  0  0
    3.6652   -1.7063    2.6796 H   0  0  0  0  0  0  0  0  0  0  0  0
  1  2  1  0  0  0  0
  2  3  1  0  0  0  0
  2  4  1  0  0  0  0
  2  5  1  0  0  0  0
  5  6  2  0  0  0  0
  5  7  1  0  0  0  0
  7  8  1  0  0  0  0
  7  9  1  0  0  0  0
  9 10  1  0  0  0  0
  9 11  1  0  0  0  0
  9 15  1  0  0  0  0
 11 12  1  0  0  0  0
 11 13  1  0  0  0  0
 11 14  1  0  0  0  0
 15 16  2  0  0  0  0
 15 17  1  0  0  0  0
 17 18  1  0  0  0  0
 17 19  1  0  0  0  0
 19 20  1  0  0  0  0
 19 21  1  0  0  0  0
 19 22  1  0  0  0  0
M  END
$$$$

  -OEChem-11182114133D

 22 21  0     1  0  0  0  0  0999 V2000
   -2.7728   -3.5684    1.1729 H   0  0  0  0  0  0  0  0  0  0  0  0
   -2.6201   -2.6597    0.5837 C   0  0  0  0  0  0  0  0  0  0  0  0
   -3.5436   -2.0759    0.5880 H   0  0  0  0  0  0  0  0  0  0  0  0
   -2.3789   -2.9457   -0.4429 H   0  0  0  0  0  0  0  0  0  0  0  0
   -1.4855   -1.8432    1.1730 C   0  0  0  0  0  0  0  0  0  0  0  0
   -1.0474   -2.1298    2.2747 O   0  0  0  0  0  0  0  0  0  0  0  0
   -1.1301   -0.6433    0.5850 N   0  0  0  0  0  0  0  0  0  0  0  0
   -1.6940   -0.4309   -0.2311 H   0  0  0  0  0  0  0  0  0  0  0  0
    0.2532   -0.1213    0.5232 C   0  0  1  0  0  0  0  0  0  0  0  0
    0.5207   -0.0092   -0.5319 H   0  0  0  0  0  0  0  0  0  0  0  0
    0.1804    1.2761    1.1551 C   0  0  0  0  0  0  0  0  0  0  0  0
   -0.0172    1.1973    2.2295 H   0  0  0  0  0  0  0  0  0  0  0  0
    1.1168    1.8216    1.0055 H   0  0  0  0  0  0  0  0  0  0  0  0
   -0.6247    1.8600    0.6981 H   0  0  0  0  0  0  0  0  0  0  0  0
    1.4020   -0.9678    1.1468 C   0  0  0  0  0  0  0  0  0  0  0  0
    1.5294   -2.1346    0.7939 O   0  0  0  0  0  0  0  0  0  0  0  0
    2.5254   -0.3574    1.6821 N   0  0  0  0  0  0  0  0  0  0  0  0
    2.4229    0.6075    1.9783 H   0  0  0  0  0  0  0  0  0  0  0  0
    3.6972   -1.1013    2.1306 C   0  0  0  0  0  0  0  0  0  0  0  0
    4.1611   -1.6296    1.2909 H   0  0  0  0  0  0  0  0  0  0  0  0
    4.4377   -0.4192    2.5589 H   0  0  0  0  0  0  0  0  0  0  0  0
    3.4161   -1.8330    2.8955 H   0  0  0  0  0  0  0  0  0  0  0  0
  1  2  1  0  0  0  0
  2  3  1  0  0  0  0
  2  4  1  0  0  0  0
  2  5  1  0  0  0  0
  5  6  2  0  0  0  0
  5  7  1  0  0  0  0
  7  8  1  0  0  0  0
  7  9  1  0  0  0  0
  9 10  1  0  0  0  0
  9 11  1  0  0  0  0
  9 15  1  0  0  0  0
 11 12  1  0  0  0  0
 11 13  1  0  0  0  0
 11 14  1  0  0  0  0
 15 16  2  0  0  0  0
 15 17  1  0  0  0  0
 17 18  1  0  0  0  0
 17 19  1  0  0  0  0
 19 20  1  0  0  0  0
 19 21  1  0  0  0  0
 19 22  1  0  0  0  0
M  END
$$$$

  -OEChem-11182114133D

 22 21  0     1  0  0  0  0  0999 V2000
   -2.7845   -3.5715    1.1673 H   0  0  0  0  0  0  0  0  0  0  0  0
   -2.6521   -2.6454    0.6006 C   0  0  0  0  0  0  0  0  0  0  0  0
   -3.5624   -2.0470    0.6848 H   0  0  0  0  0  0  0  0  0  0  0  0
   -2.4831   -2.8989   -0.4487 H   0  0  0  0  0  0  0  0  0  0  0  0
   -1.4664   -1.8693    1.1429 C   0  0  0  0  0  0  0  0  0  0  0  0
   -0.9583   -2.2135    2.1968 O   0  0  0  0  0  0  0  0  0  0  0  0
   -1.1191   -0.6625    0.5624 N   0  0  0  0  0  0  0  0  0  0  0  0
   -1.7052   -0.4241   -0.2308 H   0  0  0  0  0  0  0  0  0  0  0  0
    0.2563   -0.1206    0.5009 C   0  0  1  0  0  0  0  0  0  0  0  0
    0.5245   -0.0082   -0.5542 H   0  0  0  0  0  0  0  0  0  0  0  0
    0.1727    1.2790    1.1263 C   0  0  0  0  0  0  0  0  0  0  0  0
   -0.0525    1.2061    2.1955 H   0  0  0  0  0  0  0  0  0  0  0  0
    1.1164    1.8182    0.9981 H   0  0  0  0  0  0  0  0  0  0  0  0
   -0.6176    1.8643    0.6462 H   0  0  0  0  0  0  0  0  0  0  0  0
    1.4061   -0.9642    1.1238 C   0  0  0  0  0  0  0  0  0  0  0  0
    1.6538   -2.0578    0.6285 O   0  0  0  0  0  0  0  0  0  0  0  0
    2.3743   -0.3919    1.9331 N   0  0  0  0  0  0  0  0  0  0  0  0
    2.1300    0.4871    2.3773 H   0  0  0  0  0  0  0  0  0  0  0  0
    3.5112   -1.1411    2.4551 C   0  0  0  0  0  0  0  0  0  0  0  0
    4.1286   -1.5239    1.6355 H   0  0  0  0  0  0  0  0  0  0  0  0
    4.1337   -0.4947    3.0810 H   0  0  0  0  0  0  0  0  0  0  0  0
    3.1671   -1.9858    3.0613 H   0  0  0  0  0  0  0  0  0  0  0  0
  1  2  1  0  0  0  0
  2  3  1  0  0  0  0
  2  4  1  0  0  0  0
  2  5  1  0  0  0  0
  5  6  2  0  0  0  0
  5  7  1  0  0  0  0
  7  8  1  0  0  0  0
  7  9  1  0  0  0  0
  9 10  1  0  0  0  0
  9 11  1  0  0  0  0
  9 15  1  0  0  0  0
 11 12  1  0  0  0  0
 11 13  1  0  0  0  0
 11 14  1  0  0  0  0
 15 16  2  0  0  0  0
 15 17  1  0  0  0  0
 17 18  1  0  0  0  0
 17 19  1  0  0  0  0
 19 20  1  0  0  0  0
 19 21  1  0  0  0  0
 19 22  1  0  0  0  0
M  END
$$$$

  -OEChem-11182114133D

 22 21  0     1  0  0  0  0  0999 V2000
   -2.8013   -3.5718    1.1568 H   0  0  0  0  0  0  0  0  0  0  0  0
   -2.6805   -2.6282    0.6170 C   0  0  0  0  0  0  0  0  0  0  0  0
   -3.5690   -2.0132    0.7781 H   0  0  0  0  0  0  0  0  0  0  0  0
   -2.5820   -2.8460   -0.4492 H   0  0  0  0  0  0  0  0  0  0  0  0
   -1.4465   -1.8983    1.1132 C   0  0  0  0  0  0  0  0  0  0  0  0
   -0.8761   -2.3038    2.1115 O   0  0  0  0  0  0  0  0  0  0  0  0
   -1.1044   -0.6850    0.5425 N   0  0  0  0  0  0  0  0  0  0  0  0
   -1.7149   -0.4158   -0.2221 H   0  0  0  0  0  0  0  0  0  0  0  0
    0.2621   -0.1220    0.4832 C   0  0  1  0  0  0  0  0  0  0  0  0
    0.5293   -0.0060   -0.5720 H   0  0  0  0  0  0  0  0  0  0  0  0
    0.1651    1.2773    1.1059 C   0  0  0  0  0  0  0  0  0  0  0  0
   -0.1045    1.2082    2.1648 H   0  0  0  0  0  0  0  0  0  0  0  0
    1.1199    1.8052    1.0167 H   0  0  0  0  0  0  0  0  0  0  0  0
   -0.5993    1.8695    0.5934 H   0  0  0  0  0  0  0  0  0  0  0  0
    1.4199   -0.9543    1.1032 C   0  0  0  0  0  0  0  0  0  0  0  0
    1.8067   -1.9440    0.4928 O   0  0  0  0  0  0  0  0  0  0  0  0
    2.1994   -0.4750    2.1430 N   0  0  0  0  0  0  0  0  0  0  0  0
    1.7951    0.2742    2.6951 H   0  0  0  0  0  0  0  0  0  0  0  0
    3.2875   -1.2515    2.7245 C   0  0  0  0  0  0  0  0  0  0  0  0
    4.0470   -1.4753    1.9680 H   0  0  0  0  0  0  0  0  0  0  0  0
    3.7636   -0.6889    3.5330 H   0  0  0  0  0  0  0  0  0  0  0  0
    2.9082   -2.1943    3.1326 H   0  0  0  0  0  0  0  0  0  0  0  0
  1  2  1  0  0  0  0
  2  3  1  0  0  0  0
  2  4  1  0  0  0  0
  2  5  1  0  0  0  0
  5  6  2  0  0  0  0
  5  7  1  0  0  0  0
  7  8  1  0  0  0  0
  7  9  1  0  0  0  0
  9 10  1  0  0  0  0
  9 11  1  0  0  0  0
  9 15  1  0  0  0  0
 11 12  1  0  0  0  0
 11 13  1  0  0  0  0
 11 14  1  0  0  0  0
 15 16  2  0  0  0  0
 15 17  1  0  0  0  0
 17 18  1  0  0  0  0
 17 19  1  0  0  0  0
 19 20  1  0  0  0  0
 19 21  1  0  0  0  0
 19 22  1  0  0  0  0
M  END
$$$$

  -OEChem-11182114133D

 22 21  0     1  0  0  0  0  0999 V2000
   -2.8319   -3.5623    1.1453 H   0  0  0  0  0  0  0  0  0  0  0  0
   -2.7086   -2.6109    0.6198 C   0  0  0  0  0  0  0  0  0  0  0  0
   -3.5765   -1.9796    0.8245 H   0  0  0  0  0  0  0  0  0  0  0  0
   -2.6529   -2.8087   -0.4533 H   0  0  0  0  0  0  0  0  0  0  0  0
   -1.4411   -1.9186    1.0846 C   0  0  0  0  0  0  0  0  0  0  0  0
   -0.8297   -2.3727    2.0363 O   0  0  0  0  0  0  0  0  0  0  0  0
   -1.0933   -0.7031    0.5222 N   0  0  0  0  0  0  0  0  0  0  0  0
   -1.7198   -0.4048   -0.2187 H   0  0  0  0  0  0  0  0  0  0  0  0
    0.2687   -0.1289    0.4709 C   0  0  1  0  0  0  0  0  0  0  0  0
    0.5383   -0.0065   -0.5832 H   0  0  0  0  0  0  0  0  0  0  0  0
    0.1662    1.2665    1.1001 C   0  0  0  0  0  0  0  0  0  0  0  0
   -0.1407    1.1952    2.1486 H   0  0  0  0  0  0  0  0  0  0  0  0
    1.1312    1.7811    1.0494 H   0  0  0  0  0  0  0  0  0  0  0  0
   -0.5724    1.8716    0.5654 H   0  0  0  0  0  0  0  0  0  0  0  0
    1.4313   -0.9501    1.0937 C   0  0  0  0  0  0  0  0  0  0  0  0
    1.9741   -1.8014    0.3996 O   0  0  0  0  0  0  0  0  0  0  0  0
    1.9995   -0.6146    2.3109 N   0  0  0  0  0  0  0  0  0  0  0  0
    1.4245   -0.0399    2.9184 H   0  0  0  0  0  0  0  0  0  0  0  0
    3.0509   -1.4172    2.9228 C   0  0  0  0  0  0  0  0  0  0  0  0
    3.9271   -1.4680    2.2678 H   0  0  0  0  0  0  0  0  0  0  0  0
    3.3591   -0.9741    3.8745 H   0  0  0  0  0  0  0  0  0  0  0  0
    2.6924   -2.4347    3.1120 H   0  0  0  0  0  0  0  0  0  0  0  0
  1  2  1  0  0  0  0
  2  3  1  0  0  0  0
  2  4  1  0  0  0  0
  2  5  1  0  0  0  0
  5  6  2  0  0  0  0
  5  7  1  0  0  0  0
  7  8  1  0  0  0  0
  7  9  1  0  0  0  0
  9 10  1  0  0  0  0
  9 11  1  0  0  0  0
  9 15  1  0  0  0  0
 11 12  1  0  0  0  0
 11 13  1  0  0  0  0
 11 14  1  0  0  0  0
 15 16  2  0  0  0  0
 15 17  1  0  0  0  0
 17 18  1  0  0  0  0
 17 19  1  0  0  0  0
 19 20  1  0  0  0  0
 19 21  1  0  0  0  0
 19 22  1  0  0  0  0
M  END
$$$$

  -OEChem-11182114133D

 22 21  0     1  0  0  0  0  0999 V2000
   -2.8829   -3.5466    1.1239 H   0  0  0  0  0  0  0  0  0  0  0  0
   -2.7515   -2.5854    0.6184 C   0  0  0  0  0  0  0  0  0  0  0  0
   -3.5919   -1.9354    0.8734 H   0  0  0  0  0  0  0  0  0  0  0  0
   -2.7441   -2.7569   -0.4608 H   0  0  0  0  0  0  0  0  0  0  0  0
   -1.4472   -1.9415    1.0508 C   0  0  0  0  0  0  0  0  0  0  0  0
   -0.8080   -2.4476    1.9563 O   0  0  0  0  0  0  0  0  0  0  0  0
   -1.0823   -0.7263    0.4987 N   0  0  0  0  0  0  0  0  0  0  0  0
   -1.7219   -0.3901   -0.2144 H   0  0  0  0  0  0  0  0  0  0  0  0
    0.2779   -0.1455    0.4639 C   0  0  1  0  0  0  0  0  0  0  0  0
    0.5545   -0.0199   -0.5882 H   0  0  0  0  0  0  0  0  0  0  0  0
    0.1741    1.2482    1.0954 C   0  0  0  0  0  0  0  0  0  0  0  0
   -0.1518    1.1780    2.1380 H   0  0  0  0  0  0  0  0  0  0  0  0
    1.1452    1.7530    1.0650 H   0  0  0  0  0  0  0  0  0  0  0  0
   -0.5482    1.8613    0.5481 H   0  0  0  0  0  0  0  0  0  0  0  0
    1.4433   -0.9529    1.0968 C   0  0  0  0  0  0  0  0  0  0  0  0
    2.1681   -1.6080    0.3575 O   0  0  0  0  0  0  0  0  0  0  0  0
    1.7893   -0.8075    2.4291 N   0  0  0  0  0  0  0  0  0  0  0  0
    1.0415   -0.4671    3.0260 H   0  0  0  0  0  0  0  0  0  0  0  0
    2.8268   -1.6237    3.0468 C   0  0  0  0  0  0  0  0  0  0  0  0
    3.7869   -1.4734    2.5420 H   0  0  0  0  0  0  0  0  0  0  0  0
    2.9459   -1.3500    4.0994 H   0  0  0  0  0  0  0  0  0  0  0  0
    2.5606   -2.6847    2.9903 H   0  0  0  0  0  0  0  0  0  0  0  0
  1  2  1  0  0  0  0
  2  3  1  0  0  0  0
  2  4  1  0  0  0  0
  2  5  1  0  0  0  0
  5  6  2  0  0  0  0
  5  7  1  0  0  0  0
  7  8  1  0  0  0  0
  7  9  1  0  0  0  0
  9 10  1  0  0  0  0
  9 11  1  0  0  0  0
  9 15  1  0  0  0  0
 11 12  1  0  0  0  0
 11 13  1  0  0  0  0
 11 14  1  0  0  0  0
 15 16  2  0  0  0  0
 15 17  1  0  0  0  0
 17 18  1  0  0  0  0
 17 19  1  0  0  0  0
 19 20  1  0  0  0  0
 19 21  1  0  0  0  0
 19 22  1  0  0  0  0
M  END
$$$$

  -OEChem-11182114133D

 22 21  0     1  0  0  0  0  0999 V2000
   -3.0020   -3.4948    1.0948 H   0  0  0  0  0  0  0  0  0  0  0  0
   -2.8326   -2.5337    0.6006 C   0  0  0  0  0  0  0  0  0  0  0  0
   -3.6267   -1.8429    0.8939 H   0  0  0  0  0  0  0  0  0  0  0  0
   -2.8697   -2.6852   -0.4809 H   0  0  0  0  0  0  0  0  0  0  0  0
   -1.4809   -1.9713    0.9992 C   0  0  0  0  0  0  0  0  0  0  0  0
   -0.8293   -2.5470    1.8520 O   0  0  0  0  0  0  0  0  0  0  0  0
   -1.0752   -0.7611    0.4658 N   0  0  0  0  0  0  0  0  0  0  0  0
   -1.7230   -0.3672   -0.2097 H   0  0  0  0  0  0  0  0  0  0  0  0
    0.2884   -0.1849    0.4606 C   0  0  1  0  0  0  0  0  0  0  0  0
    0.5781   -0.0521   -0.5873 H   0  0  0  0  0  0  0  0  0  0  0  0
    0.1802    1.2023    1.1035 C   0  0  0  0  0  0  0  0  0  0  0  0
   -0.1532    1.1220    2.1430 H   0  0  0  0  0  0  0  0  0  0  0  0
    1.1528    1.7050    1.0872 H   0  0  0  0  0  0  0  0  0  0  0  0
   -0.5359    1.8225    0.5561 H   0  0  0  0  0  0  0  0  0  0  0  0
    1.4554   -0.9765    1.1098 C   0  0  0  0  0  0  0  0  0  0  0  0
    2.3672   -1.3671    0.3907 O   0  0  0  0  0  0  0  0  0  0  0  0
    1.5922   -1.0638    2.4837 N   0  0  0  0  0  0  0  0  0  0  0  0
    0.7066   -1.0202    2.9828 H   0  0  0  0  0  0  0  0  0  0  0  0
    2.6636   -1.8374    3.0982 C   0  0  0  0  0  0  0  0  0  0  0  0
    3.6415   -1.4531    2.7897 H   0  0  0  0  0  0  0  0  0  0  0  0
    2.5982   -1.7730    4.1884 H   0  0  0  0  0  0  0  0  0  0  0  0
    2.5899   -2.8903    2.8062 H   0  0  0  0  0  0  0  0  0  0  0  0
  1  2  1  0  0  0  0
  2  3  1  0  0  0  0
  2  4  1  0  0  0  0
  2  5  1  0  0  0  0
  5  6  2  0  0  0  0
  5  7  1  0  0  0  0
  7  8  1  0  0  0  0
  7  9  1  0  0  0  0
  9 10  1  0  0  0  0
  9 11  1  0  0  0  0
  9 15  1  0  0  0  0
 11 12  1  0  0  0  0
 11 13  1  0  0  0  0
 11 14  1  0  0  0  0
 15 16  2  0  0  0  0
 15 17  1  0  0  0  0
 17 18  1  0  0  0  0
 17 19  1  0  0  0  0
 19 20  1  0  0  0  0
 19 21  1  0  0  0  0
 19 22  1  0  0  0  0
M  END
$$$$

  -OEChem-11182114133D

 22 21  0     1  0  0  0  0  0999 V2000
   -3.1325   -3.4467    1.0146 H   0  0  0  0  0  0  0  0  0  0  0  0
   -2.9306   -2.4677    0.5700 C   0  0  0  0  0  0  0  0  0  0  0  0
   -3.6736   -1.7551    0.9364 H   0  0  0  0  0  0  0  0  0  0  0  0
   -3.0193   -2.5523   -0.5159 H   0  0  0  0  0  0  0  0  0  0  0  0
   -1.5354   -2.0014    0.9422 C   0  0  0  0  0  0  0  0  0  0  0  0
   -0.8872   -2.6601    1.7343 O   0  0  0  0  0  0  0  0  0  0  0  0
   -1.0759   -0.8006    0.4322 N   0  0  0  0  0  0  0  0  0  0  0  0
   -1.7290   -0.3395   -0.1940 H   0  0  0  0  0  0  0  0  0  0  0  0
    0.2941   -0.2358    0.4581 C   0  0  1  0  0  0  0  0  0  0  0  0
    0.5968   -0.0965   -0.5852 H   0  0  0  0  0  0  0  0  0  0  0  0
    0.1793    1.1447    1.1127 C   0  0  0  0  0  0  0  0  0  0  0  0
   -0.1475    1.0512    2.1535 H   0  0  0  0  0  0  0  0  0  0  0  0
    1.1488    1.6537    1.0976 H   0  0  0  0  0  0  0  0  0  0  0  0
   -0.5430    1.7659    0.5744 H   0  0  0  0  0  0  0  0  0  0  0  0
    1.4697   -1.0044    1.1206 C   0  0  0  0  0  0  0  0  0  0  0  0
    2.5147   -1.1177    0.4912 O   0  0  0  0  0  0  0  0  0  0  0  0
    1.4530   -1.3519    2.4585 N   0  0  0  0  0  0  0  0  0  0  0  0
    0.5144   -1.5573    2.8025 H   0  0  0  0  0  0  0  0  0  0  0  0
    2.5571   -2.0710    3.0807 C   0  0  0  0  0  0  0  0  0  0  0  0
    3.4830   -1.4907    3.0102 H   0  0  0  0  0  0  0  0  0  0  0  0
    2.3424   -2.2472    4.1389 H   0  0  0  0  0  0  0  0  0  0  0  0
    2.7087   -3.0381    2.5900 H   0  0  0  0  0  0  0  0  0  0  0  0
  1  2  1  0  0  0  0
  2  3  1  0  0  0  0
  2  4  1  0  0  0  0
  2  5  1  0  0  0  0
  5  6  2  0  0  0  0
  5  7  1  0  0  0  0
  7  8  1  0  0  0  0
  7  9  1  0  0  0  0
  9 10  1  0  0  0  0
  9 11  1  0  0  0  0
  9 15  1  0  0  0  0
 11 12  1  0  0  0  0
 11 13  1  0  0  0  0
 11 14  1  0  0  0  0
 15 16  2  0  0  0  0
 15 17  1  0  0  0  0
 17 18  1  0  0  0  0
 17 19  1  0  0  0  0
 19 20  1  0  0  0  0
 19 21  1  0  0  0  0
 19 22  1  0  0  0  0
M  END
$$$$

  -OEChem-11182114133D

 22 21  0     1  0  0  0  0  0999 V2000
   -3.2740   -3.3743    0.9428 H   0  0  0  0  0  0  0  0  0  0  0  0
   -3.0262   -2.3860    0.5449 C   0  0  0  0  0  0  0  0  0  0  0  0
   -3.6960   -1.6484    0.9936 H   0  0  0  0  0  0  0  0  0  0  0  0
   -3.1777   -2.3966   -0.5371 H   0  0  0  0  0  0  0  0  0  0  0  0
   -1.5841   -2.0383    0.8642 C   0  0  0  0  0  0  0  0  0  0  0  0
   -0.9389   -2.8009    1.5582 O   0  0  0  0  0  0  0  0  0  0  0  0
   -1.0727   -0.8456    0.3867 N   0  0  0  0  0  0  0  0  0  0  0  0
   -1.7329   -0.3103   -0.1692 H   0  0  0  0  0  0  0  0  0  0  0  0
    0.2992   -0.2849    0.4549 C   0  0  1  0  0  0  0  0  0  0  0  0
    0.6224   -0.1384   -0.5813 H   0  0  0  0  0  0  0  0  0  0  0  0
    0.1544    1.0901    1.1150 C   0  0  0  0  0  0  0  0  0  0  0  0
   -0.1702    0.9832    2.1551 H   0  0  0  0  0  0  0  0  0  0  0  0
    1.1126    1.6202    1.1034 H   0  0  0  0  0  0  0  0  0  0  0  0
   -0.5799    1.6997    0.5798 H   0  0  0  0  0  0  0  0  0  0  0  0
    1.4867   -1.0205    1.1380 C   0  0  0  0  0  0  0  0  0  0  0  0
    2.5990   -0.8868    0.6418 O   0  0  0  0  0  0  0  0  0  0  0  0
    1.3872   -1.6384    2.3696 N   0  0  0  0  0  0  0  0  0  0  0  0
    0.4487   -1.9858    2.5765 H   0  0  0  0  0  0  0  0  0  0  0  0
    2.5086   -2.3365    2.9852 C   0  0  0  0  0  0  0  0  0  0  0  0
    3.3474   -1.6512    3.1458 H   0  0  0  0  0  0  0  0  0  0  0  0
    2.2097   -2.7462    3.9547 H   0  0  0  0  0  0  0  0  0  0  0  0
    2.8435   -3.1609    2.3470 H   0  0  0  0  0  0  0  0  0  0  0  0
  1  2  1  0  0  0  0
  2  3  1  0  0  0  0
  2  4  1  0  0  0  0
  2  5  1  0  0  0  0
  5  6  2  0  0  0  0
  5  7  1  0  0  0  0
  7  8  1  0  0  0  0
  7  9  1  0  0  0  0
  9 10  1  0  0  0  0
  9 11  1  0  0  0  0
  9 15  1  0  0  0  0
 11 12  1  0  0  0  0
 11 13  1  0  0  0  0
 11 14  1  0  0  0  0
 15 16  2  0  0  0  0
 15 17  1  0  0  0  0
 17 18  1  0  0  0  0
 17 19  1  0  0  0  0
 19 20  1  0  0  0  0
 19 21  1  0  0  0  0
 19 22  1  0  0  0  0
M  END
$$$$

  -OEChem-11182114133D

 22 21  0     1  0  0  0  0  0999 V2000
   -3.4044   -3.2862    0.9219 H   0  0  0  0  0  0  0  0  0  0  0  0
   -3.1099   -2.3065    0.5341 C   0  0  0  0  0  0  0  0  0  0  0  0
   -3.7172   -1.5400    1.0217 H   0  0  0  0  0  0  0  0  0  0  0  0
   -3.3005   -2.2845   -0.5417 H   0  0  0  0  0  0  0  0  0  0  0  0
   -1.6382   -2.0546    0.8068 C   0  0  0  0  0  0  0  0  0  0  0  0
   -1.0082   -2.9006    1.4116 O   0  0  0  0  0  0  0  0  0  0  0  0
   -1.0816   -0.8713    0.3560 N   0  0  0  0  0  0  0  0  0  0  0  0
   -1.7423   -0.2792   -0.1383 H   0  0  0  0  0  0  0  0  0  0  0  0
    0.2964   -0.3244    0.4509 C   0  0  1  0  0  0  0  0  0  0  0  0
    0.6319   -0.1713   -0.5802 H   0  0  0  0  0  0  0  0  0  0  0  0
    0.1350    1.0467    1.1183 C   0  0  0  0  0  0  0  0  0  0  0  0
   -0.1895    0.9294    2.1574 H   0  0  0  0  0  0  0  0  0  0  0  0
    1.0864    1.5893    1.1117 H   0  0  0  0  0  0  0  0  0  0  0  0
   -0.6049    1.6522    0.5859 H   0  0  0  0  0  0  0  0  0  0  0  0
    1.4928   -1.0436    1.1415 C   0  0  0  0  0  0  0  0  0  0  0  0
    2.6204   -0.7224    0.7849 O   0  0  0  0  0  0  0  0  0  0  0  0
    1.3806   -1.9119    2.2089 N   0  0  0  0  0  0  0  0  0  0  0  0
    0.4567   -2.3337    2.3223 H   0  0  0  0  0  0  0  0  0  0  0  0
    2.5214   -2.6036    2.7954 C   0  0  0  0  0  0  0  0  0  0  0  0
    3.2511   -1.8835    3.1800 H   0  0  0  0  0  0  0  0  0  0  0  0
    2.1914   -3.2351    3.6256 H   0  0  0  0  0  0  0  0  0  0  0  0
    3.0106   -3.2378    2.0488 H   0  0  0  0  0  0  0  0  0  0  0  0
  1  2  1  0  0  0  0
  2  3  1  0  0  0  0
  2  4  1  0  0  0  0
  2  5  1  0  0  0  0
  5  6  2  0  0  0  0
  5  7  1  0  0  0  0
  7  8  1  0  0  0  0
  7  9  1  0  0  0  0
  9 10  1  0  0  0  0
  9 11  1  0  0  0  0
  9 15  1  0  0  0  0
 11 12  1  0  0  0  0
 11 13  1  0  0  0  0
 11 14  1  0  0  0  0
 15 16  2  0  0  0  0
 15 17  1  0  0  0  0
 17 18  1  0  0  0  0
 17 19  1  0  0  0  0
 19 20  1  0  0  0  0
 19 21  1  0  0  0  0
 19 22  1  0  0  0  0
M  END
$$$$

  -OEChem-11182114133D

 22 21  0     1  0  0  0  0  0999 V2000
   -3.0191   -3.6770    1.0572 H   0  0  0  0  0  0  0  0  0  0  0  0
   -2.7582   -2.7715    0.5018 C   0  0  0  0  0  0  0  0  0  0  0  0
   -3.5533   -2.0348    0.6394 H   0  0  0  0  0  0  0  0  0  0  0  0
   -2.6804   -3.0221   -0.5587 H   0  0  0  0  0  0  0  0  0  0  0  0
   -1.4390   -2.2106    1.0016 C   0  0  0  0  0  0  0  0  0  0  0  0
   -0.9124   -2.7534    1.9484 O   0  0  0  0  0  0  0  0  0  0  0  0
   -0.9456   -1.0781    0.3811 N   0  0  0  0  0  0  0  0  0  0  0  0
   -1.5573   -0.7405   -0.3552 H   0  0  0  0  0  0  0  0  0  0  0  0
    0.3259   -0.3207    0.5127 C   0  0  1  0  0  0  0  0  0  0  0  0
    0.7808   -0.3373   -0.4824 H   0  0  0  0  0  0  0  0  0  0  0  0
   -0.1482    1.1122    0.8078 C   0  0  0  0  0  0  0  0  0  0  0  0
   -0.5707    1.1704    1.8162 H   0  0  0  0  0  0  0  0  0  0  0  0
    0.6836    1.8211    0.7399 H   0  0  0  0  0  0  0  0  0  0  0  0
   -0.9122    1.4256    0.0896 H   0  0  0  0  0  0  0  0  0  0  0  0
    1.5275   -0.6414    1.4633 C   0  0  0  0  0  0  0  0  0  0  0  0
    2.4867    0.1172    1.4508 O   0  0  0  0  0  0  0  0  0  0  0  0
    1.5994   -1.4768    2.5487 N   0  0  0  0  0  0  0  0  0  0  0  0
    2.2110   -1.0584    3.2431 H   0  0  0  0  0  0  0  0  0  0  0  0
    1.9400   -2.8710    2.2898 C   0  0  0  0  0  0  0  0  0  0  0  0
    3.0267   -3.0009    2.3028 H   0  0  0  0  0  0  0  0  0  0  0  0
    1.5009   -3.5134    3.0597 H   0  0  0  0  0  0  0  0  0  0  0  0
    1.5687   -3.2007    1.3137 H   0  0  0  0  0  0  0  0  0  0  0  0
  1  2  1  0  0  0  0
  2  3  1  0  0  0  0
  2  4  1  0  0  0  0
  2  5  1  0  0  0  0
  5  6  2  0  0  0  0
  5  7  1  0  0  0  0
  7  8  1  0  0  0  0
  7  9  1  0  0  0  0
  9 10  1  0  0  0  0
  9 11  1  0  0  0  0
  9 15  1  0  0  0  0
 11 12  1  0  0  0  0
 11 13  1  0  0  0  0
 11 14  1  0  0  0  0
 15 16  2  0  0  0  0
 15 17  1  0  0  0  0
 17 18  1  0  0  0  0
 17 19  1  0  0  0  0
 19 20  1  0  0  0  0
 19 21  1  0  0  0  0
 19 22  1  0  0  0  0
M  END
$$$$

  -OEChem-11182114133D

 22 21  0     1  0  0  0  0  0999 V2000
   -2.8265   -3.7981    1.2829 H   0  0  0  0  0  0  0  0  0  0  0  0
   -2.7506   -2.7403    1.0151 C   0  0  0  0  0  0  0  0  0  0  0  0
   -3.1012   -2.1399    1.8578 H   0  0  0  0  0  0  0  0  0  0  0  0
   -3.3896   -2.5509    0.1493 H   0  0  0  0  0  0  0  0  0  0  0  0
   -1.3123   -2.3849    0.6856 C   0  0  0  0  0  0  0  0  0  0  0  0
   -0.4955   -3.2806    0.6247 O   0  0  0  0  0  0  0  0  0  0  0  0
   -1.0301   -1.0861    0.3101 N   0  0  0  0  0  0  0  0  0  0  0  0
   -1.8600   -0.5033    0.2731 H   0  0  0  0  0  0  0  0  0  0  0  0
    0.2456   -0.3299    0.2416 C   0  0  1  0  0  0  0  0  0  0  0  0
    0.3428   -0.0209   -0.8044 H   0  0  0  0  0  0  0  0  0  0  0  0
   -0.0146    0.9168    1.0982 C   0  0  0  0  0  0  0  0  0  0  0  0
   -0.1035    0.6423    2.1542 H   0  0  0  0  0  0  0  0  0  0  0  0
    0.8074    1.6331    0.9948 H   0  0  0  0  0  0  0  0  0  0  0  0
   -0.9368    1.4167    0.7863 H   0  0  0  0  0  0  0  0  0  0  0  0
    1.6737   -0.8502    0.6079 C   0  0  0  0  0  0  0  0  0  0  0  0
    2.6262   -0.1970    0.2078 O   0  0  0  0  0  0  0  0  0  0  0  0
    2.0940   -2.0727    1.0692 N   0  0  0  0  0  0  0  0  0  0  0  0
    3.0830   -2.2005    0.8754 H   0  0  0  0  0  0  0  0  0  0  0  0
    1.6687   -2.5309    2.3863 C   0  0  0  0  0  0  0  0  0  0  0  0
    2.4307   -2.2852    3.1325 H   0  0  0  0  0  0  0  0  0  0  0  0
    0.7292   -2.0595    2.6915 H   0  0  0  0  0  0  0  0  0  0  0  0
    1.5251   -3.6162    2.3787 H   0  0  0  0  0  0  0  0  0  0  0  0
  1  2  1  0  0  0  0
  2  3  1  0  0  0  0
  2  4  1  0  0  0  0
  2  5  1  0  0  0  0
  5  6  2  0  0  0  0
  5  7  1  0  0  0  0
  7  8  1  0  0  0  0
  7  9  1  0  0  0  0
  9 10  1  0  0  0  0
  9 11  1  0  0  0  0
  9 15  1  0  0  0  0
 11 12  1  0  0  0  0
 11 13  1  0  0  0  0
 11 14  1  0  0  0  0
 15 16  2  0  0  0  0
 15 17  1  0  0  0  0
 17 18  1  0  0  0  0
 17 19  1  0  0  0  0
 19 20  1  0  0  0  0
 19 21  1  0  0  0  0
 19 22  1  0  0  0  0
M  END
$$$$

  -OEChem-11182114133D

 22 21  0     1  0  0  0  0  0999 V2000
   -3.0604   -3.5956    1.3748 H   0  0  0  0  0  0  0  0  0  0  0  0
   -2.9218   -2.5333    1.1536 C   0  0  0  0  0  0  0  0  0  0  0  0
   -3.2315   -1.9514    2.0250 H   0  0  0  0  0  0  0  0  0  0  0  0
   -3.5525   -2.2676    0.3018 H   0  0  0  0  0  0  0  0  0  0  0  0
   -1.4662   -2.2504    0.8296 C   0  0  0  0  0  0  0  0  0  0  0  0
   -0.7014   -3.1892    0.7764 O   0  0  0  0  0  0  0  0  0  0  0  0
   -1.1126   -0.9480    0.5316 N   0  0  0  0  0  0  0  0  0  0  0  0
   -1.9065   -0.3160    0.5497 H   0  0  0  0  0  0  0  0  0  0  0  0
    0.1973   -0.2739    0.3416 C   0  0  1  0  0  0  0  0  0  0  0  0
    0.1705    0.1260   -0.6771 H   0  0  0  0  0  0  0  0  0  0  0  0
    0.1438    0.9015    1.3301 C   0  0  0  0  0  0  0  0  0  0  0  0
    0.1920    0.5343    2.3603 H   0  0  0  0  0  0  0  0  0  0  0  0
    0.9837    1.5851    1.1670 H   0  0  0  0  0  0  0  0  0  0  0  0
   -0.7807    1.4734    1.2045 H   0  0  0  0  0  0  0  0  0  0  0  0
    1.6216   -0.9132    0.4410 C   0  0  0  0  0  0  0  0  0  0  0  0
    2.5721   -0.2110    0.1268 O   0  0  0  0  0  0  0  0  0  0  0  0
    2.0029   -2.2304    0.4492 N   0  0  0  0  0  0  0  0  0  0  0  0
    2.8891   -2.3227   -0.0386 H   0  0  0  0  0  0  0  0  0  0  0  0
    1.9928   -2.9241    1.7318 C   0  0  0  0  0  0  0  0  0  0  0  0
    1.2242   -2.5213    2.4000 H   0  0  0  0  0  0  0  0  0  0  0  0
    1.7932   -3.9897    1.5801 H   0  0  0  0  0  0  0  0  0  0  0  0
    2.9638   -2.8164    2.2253 H   0  0  0  0  0  0  0  0  0  0  0  0
  1  2  1  0  0  0  0
  2  3  1  0  0  0  0
  2  4  1  0  0  0  0
  2  5  1  0  0  0  0
  5  6  2  0  0  0  0
  5  7  1  0  0  0  0
  7  8  1  0  0  0  0
  7  9  1  0  0  0  0
  9 10  1  0  0  0  0
  9 11  1  0  0  0  0
  9 15  1  0  0  0  0
 11 12  1  0  0  0  0
 11 13  1  0  0  0  0
 11 14  1  0  0  0  0
 15 16  2  0  0  0  0
 15 17  1  0  0  0  0
 17 18  1  0  0  0  0
 17 19  1  0  0  0  0
 19 20  1  0  0  0  0
 19 21  1  0  0  0  0
 19 22  1  0  0  0  0
M  END
$$$$

  -OEChem-11182114133D

 22 21  0     1  0  0  0  0  0999 V2000
   -3.4074   -3.2586    1.0146 H   0  0  0  0  0  0  0  0  0  0  0  0
   -3.1202   -2.2740    0.6341 C   0  0  0  0  0  0  0  0  0  0  0  0
   -3.6725   -1.5106    1.1875 H   0  0  0  0  0  0  0  0  0  0  0  0
   -3.3889   -2.2151   -0.4234 H   0  0  0  0  0  0  0  0  0  0  0  0
   -1.6271   -2.0600    0.8036 C   0  0  0  0  0  0  0  0  0  0  0  0
   -0.9671   -2.9541    1.2960 O   0  0  0  0  0  0  0  0  0  0  0  0
   -1.0901   -0.8532    0.3926 N   0  0  0  0  0  0  0  0  0  0  0  0
   -1.7853   -0.2169    0.0147 H   0  0  0  0  0  0  0  0  0  0  0  0
    0.2946   -0.3131    0.4197 C   0  0  1  0  0  0  0  0  0  0  0  0
    0.5611   -0.1124   -0.6225 H   0  0  0  0  0  0  0  0  0  0  0  0
    0.1461    1.0356    1.1450 C   0  0  0  0  0  0  0  0  0  0  0  0
   -0.0504    0.8734    2.2098 H   0  0  0  0  0  0  0  0  0  0  0  0
    1.0591    1.6322    1.0481 H   0  0  0  0  0  0  0  0  0  0  0  0
   -0.6778    1.6177    0.7211 H   0  0  0  0  0  0  0  0  0  0  0  0
    1.5362   -1.0861    0.9741 C   0  0  0  0  0  0  0  0  0  0  0  0
    2.5193   -0.4469    1.3329 O   0  0  0  0  0  0  0  0  0  0  0  0
    1.6665   -2.4604    0.9466 N   0  0  0  0  0  0  0  0  0  0  0  0
    0.7863   -2.9730    0.8661 H   0  0  0  0  0  0  0  0  0  0  0  0
    2.8144   -3.1673    1.5009 C   0  0  0  0  0  0  0  0  0  0  0  0
    2.9186   -2.9513    2.5692 H   0  0  0  0  0  0  0  0  0  0  0  0
    2.6866   -4.2467    1.3756 H   0  0  0  0  0  0  0  0  0  0  0  0
    3.7344   -2.8678    0.9881 H   0  0  0  0  0  0  0  0  0  0  0  0
  1  2  1  0  0  0  0
  2  3  1  0  0  0  0
  2  4  1  0  0  0  0
  2  5  1  0  0  0  0
  5  6  2  0  0  0  0
  5  7  1  0  0  0  0
  7  8  1  0  0  0  0
  7  9  1  0  0  0  0
  9 10  1  0  0  0  0
  9 11  1  0  0  0  0
  9 15  1  0  0  0  0
 11 12  1  0  0  0  0
 11 13  1  0  0  0  0
 11 14  1  0  0  0  0
 15 16  2  0  0  0  0
 15 17  1  0  0  0  0
 17 18  1  0  0  0  0
 17 19  1  0  0  0  0
 19 20  1  0  0  0  0
 19 21  1  0  0  0  0
 19 22  1  0  0  0  0
M  END
$$$$

  -OEChem-11182114133D

 22 21  0     1  0  0  0  0  0999 V2000
   -3.2794   -3.3098    1.1029 H   0  0  0  0  0  0  0  0  0  0  0  0
   -3.0391   -2.3177    0.7097 C   0  0  0  0  0  0  0  0  0  0  0  0
   -3.5646   -1.5687    1.3070 H   0  0  0  0  0  0  0  0  0  0  0  0
   -3.3841   -2.2574   -0.3254 H   0  0  0  0  0  0  0  0  0  0  0  0
   -1.5421   -2.0763    0.7737 C   0  0  0  0  0  0  0  0  0  0  0  0
   -0.8222   -2.9809    1.1510 O   0  0  0  0  0  0  0  0  0  0  0  0
   -1.0555   -0.8478    0.3647 N   0  0  0  0  0  0  0  0  0  0  0  0
   -1.7816   -0.2027    0.0686 H   0  0  0  0  0  0  0  0  0  0  0  0
    0.3151   -0.2780    0.4026 C   0  0  1  0  0  0  0  0  0  0  0  0
    0.5916   -0.0731   -0.6360 H   0  0  0  0  0  0  0  0  0  0  0  0
    0.1467    1.0702    1.1235 C   0  0  0  0  0  0  0  0  0  0  0  0
   -0.0655    0.9093    2.1856 H   0  0  0  0  0  0  0  0  0  0  0  0
    1.0592    1.6696    1.0394 H   0  0  0  0  0  0  0  0  0  0  0  0
   -0.6736    1.6466    0.6854 H   0  0  0  0  0  0  0  0  0  0  0  0
    1.5424   -1.0617    0.9695 C   0  0  0  0  0  0  0  0  0  0  0  0
    2.4247   -0.4597    1.5722 O   0  0  0  0  0  0  0  0  0  0  0  0
    1.7801   -2.3850    0.6517 N   0  0  0  0  0  0  0  0  0  0  0  0
    0.9299   -2.9136    0.4470 H   0  0  0  0  0  0  0  0  0  0  0  0
    2.9114   -3.1302    1.1902 C   0  0  0  0  0  0  0  0  0  0  0  0
    2.8655   -3.1588    2.2838 H   0  0  0  0  0  0  0  0  0  0  0  0
    2.8968   -4.1578    0.8148 H   0  0  0  0  0  0  0  0  0  0  0  0
    3.8566   -2.6671    0.8880 H   0  0  0  0  0  0  0  0  0  0  0  0
  1  2  1  0  0  0  0
  2  3  1  0  0  0  0
  2  4  1  0  0  0  0
  2  5  1  0  0  0  0
  5  6  2  0  0  0  0
  5  7  1  0  0  0  0
  7  8  1  0  0  0  0
  7  9  1  0  0  0  0
  9 10  1  0  0  0  0
  9 11  1  0  0  0  0
  9 15  1  0  0  0  0
 11 12  1  0  0  0  0
 11 13  1  0  0  0  0
 11 14  1  0  0  0  0
 15 16  2  0  0  0  0
 15 17  1  0  0  0  0
 17 18  1  0  0  0  0
 17 19  1  0  0  0  0
 19 20  1  0  0  0  0
 19 21  1  0  0  0  0
 19 22  1  0  0  0  0
M  END
$$$$

  -OEChem-11182114133D

 22 21  0     1  0  0  0  0  0999 V2000
   -3.1283   -3.3662    1.1706 H   0  0  0  0  0  0  0  0  0  0  0  0
   -2.9438   -2.3634    0.7746 C   0  0  0  0  0  0  0  0  0  0  0  0
   -3.4316   -1.6349    1.4269 H   0  0  0  0  0  0  0  0  0  0  0  0
   -3.3765   -2.2955   -0.2264 H   0  0  0  0  0  0  0  0  0  0  0  0
   -1.4524   -2.0903    0.7153 C   0  0  0  0  0  0  0  0  0  0  0  0
   -0.6792   -2.9999    0.9511 O   0  0  0  0  0  0  0  0  0  0  0  0
   -1.0219   -0.8392    0.3124 N   0  0  0  0  0  0  0  0  0  0  0  0
   -1.7767   -0.1868    0.1236 H   0  0  0  0  0  0  0  0  0  0  0  0
    0.3328   -0.2403    0.3828 C   0  0  1  0  0  0  0  0  0  0  0  0
    0.6368   -0.0244   -0.6458 H   0  0  0  0  0  0  0  0  0  0  0  0
    0.1382    1.1016    1.1074 C   0  0  0  0  0  0  0  0  0  0  0  0
   -0.1343    0.9334    2.1545 H   0  0  0  0  0  0  0  0  0  0  0  0
    1.0618    1.6894    1.0801 H   0  0  0  0  0  0  0  0  0  0  0  0
   -0.6507    1.6901    0.6294 H   0  0  0  0  0  0  0  0  0  0  0  0
    1.5313   -1.0403    0.9807 C   0  0  0  0  0  0  0  0  0  0  0  0
    2.2635   -0.5298    1.8221 O   0  0  0  0  0  0  0  0  0  0  0  0
    1.9246   -2.2396    0.4176 N   0  0  0  0  0  0  0  0  0  0  0  0
    1.1431   -2.7676    0.0272 H   0  0  0  0  0  0  0  0  0  0  0  0
    3.0378   -3.0147    0.9517 C   0  0  0  0  0  0  0  0  0  0  0  0
    2.8455   -3.2926    1.9933 H   0  0  0  0  0  0  0  0  0  0  0  0
    3.1736   -3.9294    0.3670 H   0  0  0  0  0  0  0  0  0  0  0  0
    3.9668   -2.4370    0.9060 H   0  0  0  0  0  0  0  0  0  0  0  0
  1  2  1  0  0  0  0
  2  3  1  0  0  0  0
  2  4  1  0  0  0  0
  2  5  1  0  0  0  0
  5  6  2  0  0  0  0
  5  7  1  0  0  0  0
  7  8  1  0  0  0  0
  7  9  1  0  0  0  0
  9 10  1  0  0  0  0
  9 11  1  0  0  0  0
  9 15  1  0  0  0  0
 11 12  1  0  0  0  0
 11 13  1  0  0  0  0
 11 14  1  0  0  0  0
 15 16  2  0  0  0  0
 15 17  1  0  0  0  0
 17 18  1  0  0  0  0
 17 19  1  0  0  0  0
 19 20  1  0  0  0  0
 19 21  1  0  0  0  0
 19 22  1  0  0  0  0
M  END
$$$$

  -OEChem-11182114133D

 22 21  0     1  0  0  0  0  0999 V2000
   -2.9779   -3.4232    1.2147 H   0  0  0  0  0  0  0  0  0  0  0  0
   -2.8484   -2.4055    0.8354 C   0  0  0  0  0  0  0  0  0  0  0  0
   -3.2985   -1.7081    1.5458 H   0  0  0  0  0  0  0  0  0  0  0  0
   -3.3611   -2.3194   -0.1255 H   0  0  0  0  0  0  0  0  0  0  0  0
   -1.3732   -2.0949    0.6667 C   0  0  0  0  0  0  0  0  0  0  0  0
   -0.5619   -2.9947    0.7889 O   0  0  0  0  0  0  0  0  0  0  0  0
   -0.9977   -0.8267    0.2620 N   0  0  0  0  0  0  0  0  0  0  0  0
   -1.7739   -0.1799    0.1617 H   0  0  0  0  0  0  0  0  0  0  0  0
    0.3420   -0.2041    0.3566 C   0  0  1  0  0  0  0  0  0  0  0  0
    0.6660    0.0245   -0.6633 H   0  0  0  0  0  0  0  0  0  0  0  0
    0.1276    1.1291    1.0896 C   0  0  0  0  0  0  0  0  0  0  0  0
   -0.2019    0.9522    2.1189 H   0  0  0  0  0  0  0  0  0  0  0  0
    1.0600    1.7022    1.1192 H   0  0  0  0  0  0  0  0  0  0  0  0
   -0.6278    1.7337    0.5787 H   0  0  0  0  0  0  0  0  0  0  0  0
    1.5156   -1.0170    0.9795 C   0  0  0  0  0  0  0  0  0  0  0  0
    2.0521   -0.6504    2.0198 O   0  0  0  0  0  0  0  0  0  0  0  0
    2.1058   -2.0332    0.2505 N   0  0  0  0  0  0  0  0  0  0  0  0
    1.4648   -2.4945   -0.3915 H   0  0  0  0  0  0  0  0  0  0  0  0
    3.1829   -2.8458    0.8024 C   0  0  0  0  0  0  0  0  0  0  0  0
    2.8450   -3.3658    1.7052 H   0  0  0  0  0  0  0  0  0  0  0  0
    3.5042   -3.5929    0.0705 H   0  0  0  0  0  0  0  0  0  0  0  0
    4.0454   -2.2208    1.0564 H   0  0  0  0  0  0  0  0  0  0  0  0
  1  2  1  0  0  0  0
  2  3  1  0  0  0  0
  2  4  1  0  0  0  0
  2  5  1  0  0  0  0
  5  6  2  0  0  0  0
  5  7  1  0  0  0  0
  7  8  1  0  0  0  0
  7  9  1  0  0  0  0
  9 10  1  0  0  0  0
  9 11  1  0  0  0  0
  9 15  1  0  0  0  0
 11 12  1  0  0  0  0
 11 13  1  0  0  0  0
 11 14  1  0  0  0  0
 15 16  2  0  0  0  0
 15 17  1  0  0  0  0
 17 18  1  0  0  0  0
 17 19  1  0  0  0  0
 19 20  1  0  0  0  0
 19 21  1  0  0  0  0
 19 22  1  0  0  0  0
M  END
$$$$

  -OEChem-11182114133D

 22 21  0     1  0  0  0  0  0999 V2000
   -2.8882   -3.4567    1.2432 H   0  0  0  0  0  0  0  0  0  0  0  0
   -2.7908   -2.4298    0.8795 C   0  0  0  0  0  0  0  0  0  0  0  0
   -3.2066   -1.7531    1.6300 H   0  0  0  0  0  0  0  0  0  0  0  0
   -3.3585   -2.3295   -0.0487 H   0  0  0  0  0  0  0  0  0  0  0  0
   -1.3301   -2.0992    0.6343 C   0  0  0  0  0  0  0  0  0  0  0  0
   -0.5018   -2.9908    0.6915 O   0  0  0  0  0  0  0  0  0  0  0  0
   -0.9893   -0.8229    0.2234 N   0  0  0  0  0  0  0  0  0  0  0  0
   -1.7764   -0.1838    0.1763 H   0  0  0  0  0  0  0  0  0  0  0  0
    0.3411   -0.1862    0.3338 C   0  0  1  0  0  0  0  0  0  0  0  0
    0.6764    0.0508   -0.6803 H   0  0  0  0  0  0  0  0  0  0  0  0
    0.1201    1.1400    1.0750 C   0  0  0  0  0  0  0  0  0  0  0  0
   -0.2458    0.9560    2.0906 H   0  0  0  0  0  0  0  0  0  0  0  0
    1.0596    1.6980    1.1427 H   0  0  0  0  0  0  0  0  0  0  0  0
   -0.6098    1.7602    0.5465 H   0  0  0  0  0  0  0  0  0  0  0  0
    1.5000   -1.0013    0.9761 C   0  0  0  0  0  0  0  0  0  0  0  0
    1.8287   -0.8113    2.1426 O   0  0  0  0  0  0  0  0  0  0  0  0
    2.3032   -1.7925    0.1747 N   0  0  0  0  0  0  0  0  0  0  0  0
    1.8639   -2.1105   -0.6843 H   0  0  0  0  0  0  0  0  0  0  0  0
    3.3669   -2.6200    0.7306 C   0  0  0  0  0  0  0  0  0  0  0  0
    2.9536   -3.3526    1.4321 H   0  0  0  0  0  0  0  0  0  0  0  0
    3.8840   -3.1577   -0.0698 H   0  0  0  0  0  0  0  0  0  0  0  0
    4.1004   -2.0013    1.2582 H   0  0  0  0  0  0  0  0  0  0  0  0
  1  2  1  0  0  0  0
  2  3  1  0  0  0  0
  2  4  1  0  0  0  0
  2  5  1  0  0  0  0
  5  6  2  0  0  0  0
  5  7  1  0  0  0  0
  7  8  1  0  0  0  0
  7  9  1  0  0  0  0
  9 10  1  0  0  0  0
  9 11  1  0  0  0  0
  9 15  1  0  0  0  0
 11 12  1  0  0  0  0
 11 13  1  0  0  0  0
 11 14  1  0  0  0  0
 15 16  2  0  0  0  0
 15 17  1  0  0  0  0
 17 18  1  0  0  0  0
 17 19  1  0  0  0  0
 19 20  1  0  0  0  0
 19 21  1  0  0  0  0
 19 22  1  0  0  0  0
M  END
$$$$

  -OEChem-11182114133D

 22 21  0     1  0  0  0  0  0999 V2000
   -2.8290   -3.4741    1.2641 H   0  0  0  0  0  0  0  0  0  0  0  0
   -2.7523   -2.4415    0.9119 C   0  0  0  0  0  0  0  0  0  0  0  0
   -3.1295   -1.7771    1.6929 H   0  0  0  0  0  0  0  0  0  0  0  0
   -3.3660   -2.3281    0.0153 H   0  0  0  0  0  0  0  0  0  0  0  0
   -1.3071   -2.1036    0.5982 C   0  0  0  0  0  0  0  0  0  0  0  0
   -0.4780   -2.9968    0.5787 O   0  0  0  0  0  0  0  0  0  0  0  0
   -0.9878   -0.8220    0.1859 N   0  0  0  0  0  0  0  0  0  0  0  0
   -1.7793   -0.1866    0.1888 H   0  0  0  0  0  0  0  0  0  0  0  0
    0.3376   -0.1796    0.3129 C   0  0  1  0  0  0  0  0  0  0  0  0
    0.6812    0.0643   -0.6967 H   0  0  0  0  0  0  0  0  0  0  0  0
    0.1156    1.1401    1.0640 C   0  0  0  0  0  0  0  0  0  0  0  0
   -0.2588    0.9492    2.0753 H   0  0  0  0  0  0  0  0  0  0  0  0
    1.0570    1.6933    1.1438 H   0  0  0  0  0  0  0  0  0  0  0  0
   -0.6087    1.7672    0.5355 H   0  0  0  0  0  0  0  0  0  0  0  0
    1.4848   -0.9968    0.9699 C   0  0  0  0  0  0  0  0  0  0  0  0
    1.6258   -0.9950    2.1884 O   0  0  0  0  0  0  0  0  0  0  0  0
    2.4856   -1.5360    0.1813 N   0  0  0  0  0  0  0  0  0  0  0  0
    2.2452   -1.6788   -0.7946 H   0  0  0  0  0  0  0  0  0  0  0  0
    3.5552   -2.3511    0.7439 C   0  0  0  0  0  0  0  0  0  0  0  0
    3.1408   -3.2371    1.2369 H   0  0  0  0  0  0  0  0  0  0  0  0
    4.2356   -2.6796   -0.0473 H   0  0  0  0  0  0  0  0  0  0  0  0
    4.1320   -1.7769    1.4766 H   0  0  0  0  0  0  0  0  0  0  0  0
  1  2  1  0  0  0  0
  2  3  1  0  0  0  0
  2  4  1  0  0  0  0
  2  5  1  0  0  0  0
  5  6  2  0  0  0  0
  5  7  1  0  0  0  0
  7  8  1  0  0  0  0
  7  9  1  0  0  0  0
  9 10  1  0  0  0  0
  9 11  1  0  0  0  0
  9 15  1  0  0  0  0
 11 12  1  0  0  0  0
 11 13  1  0  0  0  0
 11 14  1  0  0  0  0
 15 16  2  0  0  0  0
 15 17  1  0  0  0  0
 17 18  1  0  0  0  0
 17 19  1  0  0  0  0
 19 20  1  0  0  0  0
 19 21  1  0  0  0  0
 19 22  1  0  0  0  0
M  END
$$$$

  -OEChem-11182114133D

 22 21  0     1  0  0  0  0  0999 V2000
   -2.8006   -3.4767    1.2843 H   0  0  0  0  0  0  0  0  0  0  0  0
   -2.7350   -2.4418    0.9368 C   0  0  0  0  0  0  0  0  0  0  0  0
   -3.0702   -1.7820    1.7405 H   0  0  0  0  0  0  0  0  0  0  0  0
   -3.3909   -2.3177    0.0720 H   0  0  0  0  0  0  0  0  0  0  0  0
   -1.3043   -2.1095    0.5566 C   0  0  0  0  0  0  0  0  0  0  0  0
   -0.4888   -3.0103    0.4560 O   0  0  0  0  0  0  0  0  0  0  0  0
   -0.9915   -0.8251    0.1485 N   0  0  0  0  0  0  0  0  0  0  0  0
   -1.7801   -0.1882    0.1966 H   0  0  0  0  0  0  0  0  0  0  0  0
    0.3344   -0.1886    0.2949 C   0  0  1  0  0  0  0  0  0  0  0  0
    0.6875    0.0588   -0.7104 H   0  0  0  0  0  0  0  0  0  0  0  0
    0.1168    1.1238    1.0574 C   0  0  0  0  0  0  0  0  0  0  0  0
   -0.2700    0.9246    2.0624 H   0  0  0  0  0  0  0  0  0  0  0  0
    1.0622    1.6673    1.1534 H   0  0  0  0  0  0  0  0  0  0  0  0
   -0.5960    1.7631    0.5280 H   0  0  0  0  0  0  0  0  0  0  0  0
    1.4719   -1.0091    0.9626 C   0  0  0  0  0  0  0  0  0  0  0  0
    1.4634   -1.1887    2.1759 O   0  0  0  0  0  0  0  0  0  0  0  0
    2.6318   -1.2836    0.2593 N   0  0  0  0  0  0  0  0  0  0  0  0
    2.5668   -1.2334   -0.7522 H   0  0  0  0  0  0  0  0  0  0  0  0
    3.7308   -2.0457    0.8396 C   0  0  0  0  0  0  0  0  0  0  0  0
    3.3862   -3.0387    1.1474 H   0  0  0  0  0  0  0  0  0  0  0  0
    4.5341   -2.1685    0.1071 H   0  0  0  0  0  0  0  0  0  0  0  0
    4.1388   -1.5275    1.7138 H   0  0  0  0  0  0  0  0  0  0  0  0
  1  2  1  0  0  0  0
  2  3  1  0  0  0  0
  2  4  1  0  0  0  0
  2  5  1  0  0  0  0
  5  6  2  0  0  0  0
  5  7  1  0  0  0  0
  7  8  1  0  0  0  0
  7  9  1  0  0  0  0
  9 10  1  0  0  0  0
  9 11  1  0  0  0  0
  9 15  1  0  0  0  0
 11 12  1  0  0  0  0
 11 13  1  0  0  0  0
 11 14  1  0  0  0  0
 15 16  2  0  0  0  0
 15 17  1  0  0  0  0
 17 18  1  0  0  0  0
 17 19  1  0  0  0  0
 19 20  1  0  0  0  0
 19 21  1  0  0  0  0
 19 22  1  0  0  0  0
M  END
$$$$

  -OEChem-11182114133D

 22 21  0     1  0  0  0  0  0999 V2000
   -2.7886   -3.4848    1.2580 H   0  0  0  0  0  0  0  0  0  0  0  0
   -2.7165   -2.4325    0.9684 C   0  0  0  0  0  0  0  0  0  0  0  0
   -2.9715   -1.8143    1.8324 H   0  0  0  0  0  0  0  0  0  0  0  0
   -3.4287   -2.2379    0.1631 H   0  0  0  0  0  0  0  0  0  0  0  0
   -1.3071   -2.1164    0.5050 C   0  0  0  0  0  0  0  0  0  0  0  0
   -0.5202   -3.0276    0.3113 O   0  0  0  0  0  0  0  0  0  0  0  0
   -0.9938   -0.8309    0.1023 N   0  0  0  0  0  0  0  0  0  0  0  0
   -1.7746   -0.1899    0.1950 H   0  0  0  0  0  0  0  0  0  0  0  0
    0.3357   -0.2071    0.2682 C   0  0  1  0  0  0  0  0  0  0  0  0
    0.6985    0.0438   -0.7327 H   0  0  0  0  0  0  0  0  0  0  0  0
    0.1229    1.0971    1.0449 C   0  0  0  0  0  0  0  0  0  0  0  0
   -0.2640    0.8874    2.0478 H   0  0  0  0  0  0  0  0  0  0  0  0
    1.0700    1.6365    1.1467 H   0  0  0  0  0  0  0  0  0  0  0  0
   -0.5879    1.7448    0.5230 H   0  0  0  0  0  0  0  0  0  0  0  0
    1.4629   -1.0341    0.9452 C   0  0  0  0  0  0  0  0  0  0  0  0
    1.3402   -1.3829    2.1148 O   0  0  0  0  0  0  0  0  0  0  0  0
    2.7314   -1.0498    0.3912 N   0  0  0  0  0  0  0  0  0  0  0  0
    2.8038   -0.8125   -0.5929 H   0  0  0  0  0  0  0  0  0  0  0  0
    3.8550   -1.7293    1.0250 C   0  0  0  0  0  0  0  0  0  0  0  0
    3.6321   -2.7933    1.1578 H   0  0  0  0  0  0  0  0  0  0  0  0
    4.7518   -1.6370    0.4052 H   0  0  0  0  0  0  0  0  0  0  0  0
    4.0670   -1.2887    2.0048 H   0  0  0  0  0  0  0  0  0  0  0  0
  1  2  1  0  0  0  0
  2  3  1  0  0  0  0
  2  4  1  0  0  0  0
  2  5  1  0  0  0  0
  5  6  2  0  0  0  0
  5  7  1  0  0  0  0
  7  8  1  0  0  0  0
  7  9  1  0  0  0  0
  9 10  1  0  0  0  0
  9 11  1  0  0  0  0
  9 15  1  0  0  0  0
 11 12  1  0  0  0  0
 11 13  1  0  0  0  0
 11 14  1  0  0  0  0
 15 16  2  0  0  0  0
 15 17  1  0  0  0  0
 17 18  1  0  0  0  0
 17 19  1  0  0  0  0
 19 20  1  0  0  0  0
 19 21  1  0  0  0  0
 19 22  1  0  0  0  0
M  END
$$$$

  -OEChem-11182114133D

 22 21  0     1  0  0  0  0  0999 V2000
   -2.8073   -3.4755    1.2437 H   0  0  0  0  0  0  0  0  0  0  0  0
   -2.7127   -2.4143    0.9968 C   0  0  0  0  0  0  0  0  0  0  0  0
   -2.9014   -1.8279    1.8990 H   0  0  0  0  0  0  0  0  0  0  0  0
   -3.4572   -2.1595    0.2391 H   0  0  0  0  0  0  0  0  0  0  0  0
   -1.3181   -2.1245    0.4749 C   0  0  0  0  0  0  0  0  0  0  0  0
   -0.5694   -3.0496    0.2086 O   0  0  0  0  0  0  0  0  0  0  0  0
   -0.9907   -0.8426    0.0741 N   0  0  0  0  0  0  0  0  0  0  0  0
   -1.7608   -0.1932    0.1923 H   0  0  0  0  0  0  0  0  0  0  0  0
    0.3462   -0.2359    0.2481 C   0  0  1  0  0  0  0  0  0  0  0  0
    0.7139    0.0131   -0.7515 H   0  0  0  0  0  0  0  0  0  0  0  0
    0.1380    1.0649    1.0315 C   0  0  0  0  0  0  0  0  0  0  0  0
   -0.2386    0.8491    2.0369 H   0  0  0  0  0  0  0  0  0  0  0  0
    1.0836    1.6079    1.1272 H   0  0  0  0  0  0  0  0  0  0  0  0
   -0.5797    1.7127    0.5191 H   0  0  0  0  0  0  0  0  0  0  0  0
    1.4719   -1.0626    0.9296 C   0  0  0  0  0  0  0  0  0  0  0  0
    1.2771   -1.5716    2.0281 O   0  0  0  0  0  0  0  0  0  0  0  0
    2.7885   -0.8353    0.5651 N   0  0  0  0  0  0  0  0  0  0  0  0
    2.9507   -0.4020   -0.3380 H   0  0  0  0  0  0  0  0  0  0  0  0
    3.9201   -1.4328    1.2651 C   0  0  0  0  0  0  0  0  0  0  0  0
    3.8446   -2.5252    1.2518 H   0  0  0  0  0  0  0  0  0  0  0  0
    4.8587   -1.1441    0.7826 H   0  0  0  0  0  0  0  0  0  0  0  0
    3.9498   -1.0949    2.3064 H   0  0  0  0  0  0  0  0  0  0  0  0
  1  2  1  0  0  0  0
  2  3  1  0  0  0  0
  2  4  1  0  0  0  0
  2  5  1  0  0  0  0
  5  6  2  0  0  0  0
  5  7  1  0  0  0  0
  7  8  1  0  0  0  0
  7  9  1  0  0  0  0
  9 10  1  0  0  0  0
  9 11  1  0  0  0  0
  9 15  1  0  0  0  0
 11 12  1  0  0  0  0
 11 13  1  0  0  0  0
 11 14  1  0  0  0  0
 15 16  2  0  0  0  0
 15 17  1  0  0  0  0
 17 18  1  0  0  0  0
 17 19  1  0  0  0  0
 19 20  1  0  0  0  0
 19 21  1  0  0  0  0
 19 22  1  0  0  0  0
M  END
$$$$

  -OEChem-11182114133D

 22 21  0     1  0  0  0  0  0999 V2000
   -2.8130   -3.4640    1.2586 H   0  0  0  0  0  0  0  0  0  0  0  0
   -2.7078   -2.4031    1.0140 C   0  0  0  0  0  0  0  0  0  0  0  0
   -2.8581   -1.8179    1.9244 H   0  0  0  0  0  0  0  0  0  0  0  0
   -3.4708   -2.1318    0.2807 H   0  0  0  0  0  0  0  0  0  0  0  0
   -1.3250   -2.1356    0.4504 C   0  0  0  0  0  0  0  0  0  0  0  0
   -0.6208   -3.0722    0.1129 O   0  0  0  0  0  0  0  0  0  0  0  0
   -0.9801   -0.8569    0.0557 N   0  0  0  0  0  0  0  0  0  0  0  0
   -1.7402   -0.1999    0.1930 H   0  0  0  0  0  0  0  0  0  0  0  0
    0.3629   -0.2635    0.2359 C   0  0  1  0  0  0  0  0  0  0  0  0
    0.7332   -0.0137   -0.7626 H   0  0  0  0  0  0  0  0  0  0  0  0
    0.1459    1.0347    1.0231 C   0  0  0  0  0  0  0  0  0  0  0  0
   -0.2252    0.8122    2.0292 H   0  0  0  0  0  0  0  0  0  0  0  0
    1.0850    1.5891    1.1177 H   0  0  0  0  0  0  0  0  0  0  0  0
   -0.5798    1.6771    0.5146 H   0  0  0  0  0  0  0  0  0  0  0  0
    1.4976   -1.0817    0.9178 C   0  0  0  0  0  0  0  0  0  0  0  0
    1.2658   -1.7654    1.9079 O   0  0  0  0  0  0  0  0  0  0  0  0
    2.8028   -0.6353    0.7828 N   0  0  0  0  0  0  0  0  0  0  0  0
    3.0048   -0.0173    0.0037 H   0  0  0  0  0  0  0  0  0  0  0  0
    3.9182   -1.1728    1.5550 C   0  0  0  0  0  0  0  0  0  0  0  0
    3.9992   -2.2550    1.4078 H   0  0  0  0  0  0  0  0  0  0  0  0
    4.8569   -0.7094    1.2373 H   0  0  0  0  0  0  0  0  0  0  0  0
    3.7787   -0.9720    2.6225 H   0  0  0  0  0  0  0  0  0  0  0  0
  1  2  1  0  0  0  0
  2  3  1  0  0  0  0
  2  4  1  0  0  0  0
  2  5  1  0  0  0  0
  5  6  2  0  0  0  0
  5  7  1  0  0  0  0
  7  8  1  0  0  0  0
  7  9  1  0  0  0  0
  9 10  1  0  0  0  0
  9 11  1  0  0  0  0
  9 15  1  0  0  0  0
 11 12  1  0  0  0  0
 11 13  1  0  0  0  0
 11 14  1  0  0  0  0
 15 16  2  0  0  0  0
 15 17  1  0  0  0  0
 17 18  1  0  0  0  0
 17 19  1  0  0  0  0
 19 20  1  0  0  0  0
 19 21  1  0  0  0  0
 19 22  1  0  0  0  0
M  END
$$$$

  -OEChem-11182114133D

 22 21  0     1  0  0  0  0  0999 V2000
   -2.7155   -3.5692    1.2230 H   0  0  0  0  0  0  0  0  0  0  0  0
   -2.5828   -2.6649    0.6223 C   0  0  0  0  0  0  0  0  0  0  0  0
   -3.5148   -2.0951    0.6294 H   0  0  0  0  0  0  0  0  0  0  0  0
   -2.3472   -2.9590   -0.4032 H   0  0  0  0  0  0  0  0  0  0  0  0
   -1.4547   -1.8260    1.1919 C   0  0  0  0  0  0  0  0  0  0  0  0
   -1.0117   -2.0790    2.3006 O   0  0  0  0  0  0  0  0  0  0  0  0
   -1.1024   -0.6357    0.5830 N   0  0  0  0  0  0  0  0  0  0  0  0
   -1.6612   -0.4465   -0.2421 H   0  0  0  0  0  0  0  0  0  0  0  0
    0.2881   -0.1336    0.5078 C   0  0  1  0  0  0  0  0  0  0  0  0
    0.4514    0.2346   -0.5095 H   0  0  0  0  0  0  0  0  0  0  0  0
    0.3390    1.0577    1.4737 C   0  0  0  0  0  0  0  0  0  0  0  0
    0.2297    0.7104    2.5068 H   0  0  0  0  0  0  0  0  0  0  0  0
    1.2865    1.5967    1.3847 H   0  0  0  0  0  0  0  0  0  0  0  0
   -0.4723    1.7598    1.2574 H   0  0  0  0  0  0  0  0  0  0  0  0
    1.4778   -1.0976    0.7989 C   0  0  0  0  0  0  0  0  0  0  0  0
    1.3731   -2.3043    0.6154 O   0  0  0  0  0  0  0  0  0  0  0  0
    2.7680   -0.5957    0.7266 N   0  0  0  0  0  0  0  0  0  0  0  0
    2.8797    0.4094    0.8104 H   0  0  0  0  0  0  0  0  0  0  0  0
    3.9613   -1.4355    0.7529 C   0  0  0  0  0  0  0  0  0  0  0  0
    3.9961   -2.0794   -0.1323 H   0  0  0  0  0  0  0  0  0  0  0  0
    4.8619   -0.8142    0.7634 H   0  0  0  0  0  0  0  0  0  0  0  0
    3.9661   -2.0664    1.6482 H   0  0  0  0  0  0  0  0  0  0  0  0
  1  2  1  0  0  0  0
  2  3  1  0  0  0  0
  2  4  1  0  0  0  0
  2  5  1  0  0  0  0
  5  6  2  0  0  0  0
  5  7  1  0  0  0  0
  7  8  1  0  0  0  0
  7  9  1  0  0  0  0
  9 10  1  0  0  0  0
  9 11  1  0  0  0  0
  9 15  1  0  0  0  0
 11 12  1  0  0  0  0
 11 13  1  0  0  0  0
 11 14  1  0  0  0  0
 15 16  2  0  0  0  0
 15 17  1  0  0  0  0
 17 18  1  0  0  0  0
 17 19  1  0  0  0  0
 19 20  1  0  0  0  0
 19 21  1  0  0  0  0
 19 22  1  0  0  0  0
M  END
$$$$

  -OEChem-11182114133D

 22 21  0     1  0  0  0  0  0999 V2000
   -2.7408   -3.5505    1.2507 H   0  0  0  0  0  0  0  0  0  0  0  0
   -2.6013   -2.6538    0.6405 C   0  0  0  0  0  0  0  0  0  0  0  0
   -3.5145   -2.0553    0.6781 H   0  0  0  0  0  0  0  0  0  0  0  0
   -2.4122   -2.9592   -0.3912 H   0  0  0  0  0  0  0  0  0  0  0  0
   -1.4278   -1.8473    1.1635 C   0  0  0  0  0  0  0  0  0  0  0  0
   -0.9114   -2.1499    2.2274 O   0  0  0  0  0  0  0  0  0  0  0  0
   -1.0974   -0.6455    0.5640 N   0  0  0  0  0  0  0  0  0  0  0  0
   -1.6748   -0.4404   -0.2447 H   0  0  0  0  0  0  0  0  0  0  0  0
    0.2835   -0.1197    0.4898 C   0  0  1  0  0  0  0  0  0  0  0  0
    0.4478    0.2512   -0.5261 H   0  0  0  0  0  0  0  0  0  0  0  0
    0.3138    1.0737    1.4548 C   0  0  0  0  0  0  0  0  0  0  0  0
    0.2246    0.7254    2.4894 H   0  0  0  0  0  0  0  0  0  0  0  0
    1.2444    1.6391    1.3523 H   0  0  0  0  0  0  0  0  0  0  0  0
   -0.5181    1.7538    1.2462 H   0  0  0  0  0  0  0  0  0  0  0  0
    1.4661   -1.0923    0.7759 C   0  0  0  0  0  0  0  0  0  0  0  0
    1.4162   -2.2444    0.3601 O   0  0  0  0  0  0  0  0  0  0  0  0
    2.7317   -0.5867    1.0278 N   0  0  0  0  0  0  0  0  0  0  0  0
    2.7867    0.3714    1.3568 H   0  0  0  0  0  0  0  0  0  0  0  0
    3.9219   -1.4251    1.1246 C   0  0  0  0  0  0  0  0  0  0  0  0
    4.1181   -1.9244    0.1698 H   0  0  0  0  0  0  0  0  0  0  0  0
    4.7944   -0.8163    1.3803 H   0  0  0  0  0  0  0  0  0  0  0  0
    3.7911   -2.1869    1.9006 H   0  0  0  0  0  0  0  0  0  0  0  0
  1  2  1  0  0  0  0
  2  3  1  0  0  0  0
  2  4  1  0  0  0  0
  2  5  1  0  0  0  0
  5  6  2  0  0  0  0
  5  7  1  0  0  0  0
  7  8  1  0  0  0  0
  7  9  1  0  0  0  0
  9 10  1  0  0  0  0
  9 11  1  0  0  0  0
  9 15  1  0  0  0  0
 11 12  1  0  0  0  0
 11 13  1  0  0  0  0
 11 14  1  0  0  0  0
 15 16  2  0  0  0  0
 15 17  1  0  0  0  0
 17 18  1  0  0  0  0
 17 19  1  0  0  0  0
 19 20  1  0  0  0  0
 19 21  1  0  0  0  0
 19 22  1  0  0  0  0
M  END
$$$$

  -OEChem-11182114133D

 22 21  0     1  0  0  0  0  0999 V2000
   -2.7060   -3.5715    1.2395 H   0  0  0  0  0  0  0  0  0  0  0  0
   -2.5975   -2.6548    0.6529 C   0  0  0  0  0  0  0  0  0  0  0  0
   -3.5110   -2.0634    0.7495 H   0  0  0  0  0  0  0  0  0  0  0  0
   -2.4527   -2.9255   -0.3957 H   0  0  0  0  0  0  0  0  0  0  0  0
   -1.4062   -1.8575    1.1497 C   0  0  0  0  0  0  0  0  0  0  0  0
   -0.8382   -2.1943    2.1764 O   0  0  0  0  0  0  0  0  0  0  0  0
   -1.0969   -0.6459    0.5579 N   0  0  0  0  0  0  0  0  0  0  0  0
   -1.6928   -0.4283   -0.2339 H   0  0  0  0  0  0  0  0  0  0  0  0
    0.2751   -0.0997    0.4774 C   0  0  1  0  0  0  0  0  0  0  0  0
    0.4327    0.2701   -0.5403 H   0  0  0  0  0  0  0  0  0  0  0  0
    0.3003    1.1003    1.4346 C   0  0  0  0  0  0  0  0  0  0  0  0
    0.2136    0.7602    2.4721 H   0  0  0  0  0  0  0  0  0  0  0  0
    1.2286    1.6687    1.3244 H   0  0  0  0  0  0  0  0  0  0  0  0
   -0.5349    1.7748    1.2214 H   0  0  0  0  0  0  0  0  0  0  0  0
    1.4540   -1.0784    0.7518 C   0  0  0  0  0  0  0  0  0  0  0  0
    1.4745   -2.1540    0.1633 O   0  0  0  0  0  0  0  0  0  0  0  0
    2.6446   -0.6315    1.3014 N   0  0  0  0  0  0  0  0  0  0  0  0
    2.6067    0.2398    1.8200 H   0  0  0  0  0  0  0  0  0  0  0  0
    3.8080   -1.4936    1.4769 C   0  0  0  0  0  0  0  0  0  0  0  0
    4.1641   -1.8613    0.5088 H   0  0  0  0  0  0  0  0  0  0  0  0
    4.6213   -0.9381    1.9535 H   0  0  0  0  0  0  0  0  0  0  0  0
    3.5562   -2.3519    2.1091 H   0  0  0  0  0  0  0  0  0  0  0  0
  1  2  1  0  0  0  0
  2  3  1  0  0  0  0
  2  4  1  0  0  0  0
  2  5  1  0  0  0  0
  5  6  2  0  0  0  0
  5  7  1  0  0  0  0
  7  8  1  0  0  0  0
  7  9  1  0  0  0  0
  9 10  1  0  0  0  0
  9 11  1  0  0  0  0
  9 15  1  0  0  0  0
 11 12  1  0  0  0  0
 11 13  1  0  0  0  0
 11 14  1  0  0  0  0
 15 16  2  0  0  0  0
 15 17  1  0  0  0  0
 17 18  1  0  0  0  0
 17 19  1  0  0  0  0
 19 20  1  0  0  0  0
 19 21  1  0  0  0  0
 19 22  1  0  0  0  0
M  END
$$$$

  -OEChem-11182114133D

 22 21  0     1  0  0  0  0  0999 V2000
   -2.6868   -3.5781    1.2453 H   0  0  0  0  0  0  0  0  0  0  0  0
   -2.5920   -2.6556    0.6658 C   0  0  0  0  0  0  0  0  0  0  0  0
   -3.5003   -2.0623    0.7951 H   0  0  0  0  0  0  0  0  0  0  0  0
   -2.4783   -2.9160   -0.3893 H   0  0  0  0  0  0  0  0  0  0  0  0
   -1.3843   -1.8675    1.1361 C   0  0  0  0  0  0  0  0  0  0  0  0
   -0.7740   -2.2332    2.1281 O   0  0  0  0  0  0  0  0  0  0  0  0
   -1.0925   -0.6484    0.5505 N   0  0  0  0  0  0  0  0  0  0  0  0
   -1.7059   -0.4197   -0.2250 H   0  0  0  0  0  0  0  0  0  0  0  0
    0.2707   -0.0831    0.4638 C   0  0  1  0  0  0  0  0  0  0  0  0
    0.4197    0.2892   -0.5543 H   0  0  0  0  0  0  0  0  0  0  0  0
    0.2911    1.1170    1.4203 C   0  0  0  0  0  0  0  0  0  0  0  0
    0.1833    0.7798    2.4567 H   0  0  0  0  0  0  0  0  0  0  0  0
    1.2282    1.6739    1.3241 H   0  0  0  0  0  0  0  0  0  0  0  0
   -0.5334    1.7995    1.1919 H   0  0  0  0  0  0  0  0  0  0  0  0
    1.4530   -1.0586    0.7272 C   0  0  0  0  0  0  0  0  0  0  0  0
    1.5634   -2.0436    0.0056 O   0  0  0  0  0  0  0  0  0  0  0  0
    2.5229   -0.7151    1.5367 N   0  0  0  0  0  0  0  0  0  0  0  0
    2.3634    0.0427    2.1925 H   0  0  0  0  0  0  0  0  0  0  0  0
    3.6360   -1.6224    1.7876 C   0  0  0  0  0  0  0  0  0  0  0  0
    4.1499   -1.8685    0.8524 H   0  0  0  0  0  0  0  0  0  0  0  0
    4.3586   -1.1569    2.4646 H   0  0  0  0  0  0  0  0  0  0  0  0
    3.2761   -2.5494    2.2466 H   0  0  0  0  0  0  0  0  0  0  0  0
  1  2  1  0  0  0  0
  2  3  1  0  0  0  0
  2  4  1  0  0  0  0
  2  5  1  0  0  0  0
  5  6  2  0  0  0  0
  5  7  1  0  0  0  0
  7  8  1  0  0  0  0
  7  9  1  0  0  0  0
  9 10  1  0  0  0  0
  9 11  1  0  0  0  0
  9 15  1  0  0  0  0
 11 12  1  0  0  0  0
 11 13  1  0  0  0  0
 11 14  1  0  0  0  0
 15 16  2  0  0  0  0
 15 17  1  0  0  0  0
 17 18  1  0  0  0  0
 17 19  1  0  0  0  0
 19 20  1  0  0  0  0
 19 21  1  0  0  0  0
 19 22  1  0  0  0  0
M  END
$$$$

  -OEChem-11182114133D

 22 21  0     1  0  0  0  0  0999 V2000
   -2.6943   -3.5877    1.2163 H   0  0  0  0  0  0  0  0  0  0  0  0
   -2.6190   -2.6401    0.6755 C   0  0  0  0  0  0  0  0  0  0  0  0
   -3.5085   -2.0419    0.8869 H   0  0  0  0  0  0  0  0  0  0  0  0
   -2.5737   -2.8514   -0.3955 H   0  0  0  0  0  0  0  0  0  0  0  0
   -1.3731   -1.8903    1.1086 C   0  0  0  0  0  0  0  0  0  0  0  0
   -0.7278   -2.2968    2.0614 O   0  0  0  0  0  0  0  0  0  0  0  0
   -1.0779   -0.6683    0.5310 N   0  0  0  0  0  0  0  0  0  0  0  0
   -1.7088   -0.4103   -0.2211 H   0  0  0  0  0  0  0  0  0  0  0  0
    0.2788   -0.0874    0.4528 C   0  0  1  0  0  0  0  0  0  0  0  0
    0.4311    0.2854   -0.5648 H   0  0  0  0  0  0  0  0  0  0  0  0
    0.2832    1.1154    1.4053 C   0  0  0  0  0  0  0  0  0  0  0  0
    0.1270    0.7862    2.4378 H   0  0  0  0  0  0  0  0  0  0  0  0
    1.2352    1.6520    1.3444 H   0  0  0  0  0  0  0  0  0  0  0  0
   -0.5181    1.8121    1.1406 H   0  0  0  0  0  0  0  0  0  0  0  0
    1.4677   -1.0517    0.7212 C   0  0  0  0  0  0  0  0  0  0  0  0
    1.7076   -1.9165   -0.1134 O   0  0  0  0  0  0  0  0  0  0  0  0
    2.3694   -0.8475    1.7519 N   0  0  0  0  0  0  0  0  0  0  0  0
    2.0516   -0.2414    2.5015 H   0  0  0  0  0  0  0  0  0  0  0  0
    3.4463   -1.7867    2.0400 C   0  0  0  0  0  0  0  0  0  0  0  0
    4.1079   -1.8912    1.1735 H   0  0  0  0  0  0  0  0  0  0  0  0
    4.0418   -1.4306    2.8860 H   0  0  0  0  0  0  0  0  0  0  0  0
    3.0371   -2.7709    2.2920 H   0  0  0  0  0  0  0  0  0  0  0  0
  1  2  1  0  0  0  0
  2  3  1  0  0  0  0
  2  4  1  0  0  0  0
  2  5  1  0  0  0  0
  5  6  2  0  0  0  0
  5  7  1  0  0  0  0
  7  8  1  0  0  0  0
  7  9  1  0  0  0  0
  9 10  1  0  0  0  0
  9 11  1  0  0  0  0
  9 15  1  0  0  0  0
 11 12  1  0  0  0  0
 11 13  1  0  0  0  0
 11 14  1  0  0  0  0
 15 16  2  0  0  0  0
 15 17  1  0  0  0  0
 17 18  1  0  0  0  0
 17 19  1  0  0  0  0
 19 20  1  0  0  0  0
 19 21  1  0  0  0  0
 19 22  1  0  0  0  0
M  END
$$$$

  -OEChem-11182114133D

 22 21  0     1  0  0  0  0  0999 V2000
   -2.7202   -3.5820    1.2015 H   0  0  0  0  0  0  0  0  0  0  0  0
   -2.6428   -2.6257    0.6764 C   0  0  0  0  0  0  0  0  0  0  0  0
   -3.5195   -2.0193    0.9161 H   0  0  0  0  0  0  0  0  0  0  0  0
   -2.6221   -2.8182   -0.3990 H   0  0  0  0  0  0  0  0  0  0  0  0
   -1.3782   -1.9008    1.0972 C   0  0  0  0  0  0  0  0  0  0  0  0
   -0.7168   -2.3364    2.0254 O   0  0  0  0  0  0  0  0  0  0  0  0
   -1.0716   -0.6806    0.5222 N   0  0  0  0  0  0  0  0  0  0  0  0
   -1.7096   -0.4034   -0.2171 H   0  0  0  0  0  0  0  0  0  0  0  0
    0.2836   -0.0961    0.4498 C   0  0  1  0  0  0  0  0  0  0  0  0
    0.4379    0.2740   -0.5688 H   0  0  0  0  0  0  0  0  0  0  0  0
    0.2867    1.1109    1.3968 C   0  0  0  0  0  0  0  0  0  0  0  0
    0.1014    0.7930    2.4279 H   0  0  0  0  0  0  0  0  0  0  0  0
    1.2504    1.6287    1.3550 H   0  0  0  0  0  0  0  0  0  0  0  0
   -0.4958    1.8197    1.1093 H   0  0  0  0  0  0  0  0  0  0  0  0
    1.4769   -1.0514    0.7254 C   0  0  0  0  0  0  0  0  0  0  0  0
    1.8677   -1.7659   -0.1901 O   0  0  0  0  0  0  0  0  0  0  0  0
    2.1862   -1.0247    1.9136 N   0  0  0  0  0  0  0  0  0  0  0  0
    1.6926   -0.6097    2.6981 H   0  0  0  0  0  0  0  0  0  0  0  0
    3.2343   -1.9937    2.2085 C   0  0  0  0  0  0  0  0  0  0  0  0
    4.0288   -1.9423    1.4567 H   0  0  0  0  0  0  0  0  0  0  0  0
    3.6755   -1.7867    3.1881 H   0  0  0  0  0  0  0  0  0  0  0  0
    2.8234   -3.0089    2.2187 H   0  0  0  0  0  0  0  0  0  0  0  0
  1  2  1  0  0  0  0
  2  3  1  0  0  0  0
  2  4  1  0  0  0  0
  2  5  1  0  0  0  0
  5  6  2  0  0  0  0
  5  7  1  0  0  0  0
  7  8  1  0  0  0  0
  7  9  1  0  0  0  0
  9 10  1  0  0  0  0
  9 11  1  0  0  0  0
  9 15  1  0  0  0  0
 11 12  1  0  0  0  0
 11 13  1  0  0  0  0
 11 14  1  0  0  0  0
 15 16  2  0  0  0  0
 15 17  1  0  0  0  0
 17 18  1  0  0  0  0
 17 19  1  0  0  0  0
 19 20  1  0  0  0  0
 19 21  1  0  0  0  0
 19 22  1  0  0  0  0
M  END
$$$$

  -OEChem-11182114133D

 22 21  0     1  0  0  0  0  0999 V2000
   -2.8166   -3.5399    1.2096 H   0  0  0  0  0  0  0  0  0  0  0  0
   -2.7025   -2.5941    0.6721 C   0  0  0  0  0  0  0  0  0  0  0  0
   -3.5539   -1.9506    0.9062 H   0  0  0  0  0  0  0  0  0  0  0  0
   -2.6922   -2.8005   -0.4009 H   0  0  0  0  0  0  0  0  0  0  0  0
   -1.4091   -1.9141    1.0802 C   0  0  0  0  0  0  0  0  0  0  0  0
   -0.7457   -2.3847    1.9890 O   0  0  0  0  0  0  0  0  0  0  0  0
   -1.0710   -0.7008    0.5094 N   0  0  0  0  0  0  0  0  0  0  0  0
   -1.7150   -0.3888   -0.2111 H   0  0  0  0  0  0  0  0  0  0  0  0
    0.2889   -0.1240    0.4479 C   0  0  1  0  0  0  0  0  0  0  0  0
    0.4472    0.2468   -0.5703 H   0  0  0  0  0  0  0  0  0  0  0  0
    0.2995    1.0809    1.3962 C   0  0  0  0  0  0  0  0  0  0  0  0
    0.0936    0.7662    2.4242 H   0  0  0  0  0  0  0  0  0  0  0  0
    1.2748    1.5774    1.3704 H   0  0  0  0  0  0  0  0  0  0  0  0
   -0.4636    1.8061    1.0980 H   0  0  0  0  0  0  0  0  0  0  0  0
    1.4876   -1.0687    0.7349 C   0  0  0  0  0  0  0  0  0  0  0  0
    2.0702   -1.5737   -0.2170 O   0  0  0  0  0  0  0  0  0  0  0  0
    1.9888   -1.2474    2.0120 N   0  0  0  0  0  0  0  0  0  0  0  0
    1.3053   -1.0811    2.7469 H   0  0  0  0  0  0  0  0  0  0  0  0
    3.0489   -2.2069    2.2932 C   0  0  0  0  0  0  0  0  0  0  0  0
    3.9463   -1.9708    1.7118 H   0  0  0  0  0  0  0  0  0  0  0  0
    3.3108   -2.1788    3.3551 H   0  0  0  0  0  0  0  0  0  0  0  0
    2.7221   -3.2216    2.0421 H   0  0  0  0  0  0  0  0  0  0  0  0
  1  2  1  0  0  0  0
  2  3  1  0  0  0  0
  2  4  1  0  0  0  0
  2  5  1  0  0  0  0
  5  6  2  0  0  0  0
  5  7  1  0  0  0  0
  7  8  1  0  0  0  0
  7  9  1  0  0  0  0
  9 10  1  0  0  0  0
  9 11  1  0  0  0  0
  9 15  1  0  0  0  0
 11 12  1  0  0  0  0
 11 13  1  0  0  0  0
 11 14  1  0  0  0  0
 15 16  2  0  0  0  0
 15 17  1  0  0  0  0
 17 18  1  0  0  0  0
 17 19  1  0  0  0  0
 19 20  1  0  0  0  0
 19 21  1  0  0  0  0
 19 22  1  0  0  0  0
M  END
$$$$

  -OEChem-11182114133D

 22 21  0     1  0  0  0  0  0999 V2000
   -2.9596   -3.4919    1.1596 H   0  0  0  0  0  0  0  0  0  0  0  0
   -2.8111   -2.5317    0.6573 C   0  0  0  0  0  0  0  0  0  0  0  0
   -3.6171   -1.8536    0.9482 H   0  0  0  0  0  0  0  0  0  0  0  0
   -2.8496   -2.6925   -0.4228 H   0  0  0  0  0  0  0  0  0  0  0  0
   -1.4693   -1.9402    1.0466 C   0  0  0  0  0  0  0  0  0  0  0  0
   -0.8172   -2.4724    1.9281 O   0  0  0  0  0  0  0  0  0  0  0  0
   -1.0737   -0.7399    0.4860 N   0  0  0  0  0  0  0  0  0  0  0  0
   -1.7219   -0.3708   -0.2031 H   0  0  0  0  0  0  0  0  0  0  0  0
    0.2947   -0.1784    0.4430 C   0  0  1  0  0  0  0  0  0  0  0  0
    0.4614    0.1943   -0.5730 H   0  0  0  0  0  0  0  0  0  0  0  0
    0.3058    1.0220    1.3956 C   0  0  0  0  0  0  0  0  0  0  0  0
    0.1057    0.7012    2.4230 H   0  0  0  0  0  0  0  0  0  0  0  0
    1.2811    1.5189    1.3692 H   0  0  0  0  0  0  0  0  0  0  0  0
   -0.4588    1.7484    1.1040 H   0  0  0  0  0  0  0  0  0  0  0  0
    1.5052   -1.1027    0.7472 C   0  0  0  0  0  0  0  0  0  0  0  0
    2.2834   -1.3590   -0.1634 O   0  0  0  0  0  0  0  0  0  0  0  0
    1.8129   -1.5094    2.0322 N   0  0  0  0  0  0  0  0  0  0  0  0
    0.9909   -1.5845    2.6327 H   0  0  0  0  0  0  0  0  0  0  0  0
    2.9205   -2.4149    2.3087 C   0  0  0  0  0  0  0  0  0  0  0  0
    3.8664   -1.9806    1.9686 H   0  0  0  0  0  0  0  0  0  0  0  0
    2.9954   -2.6010    3.3843 H   0  0  0  0  0  0  0  0  0  0  0  0
    2.7678   -3.3720    1.7990 H   0  0  0  0  0  0  0  0  0  0  0  0
  1  2  1  0  0  0  0
  2  3  1  0  0  0  0
  2  4  1  0  0  0  0
  2  5  1  0  0  0  0
  5  6  2  0  0  0  0
  5  7  1  0  0  0  0
  7  8  1  0  0  0  0
  7  9  1  0  0  0  0
  9 10  1  0  0  0  0
  9 11  1  0  0  0  0
  9 15  1  0  0  0  0
 11 12  1  0  0  0  0
 11 13  1  0  0  0  0
 11 14  1  0  0  0  0
 15 16  2  0  0  0  0
 15 17  1  0  0  0  0
 17 18  1  0  0  0  0
 17 19  1  0  0  0  0
 19 20  1  0  0  0  0
 19 21  1  0  0  0  0
 19 22  1  0  0  0  0
M  END
$$$$

  -OEChem-11182114133D

 22 21  0     1  0  0  0  0  0999 V2000
   -3.1459   -3.4068    1.1312 H   0  0  0  0  0  0  0  0  0  0  0  0
   -2.9307   -2.4566    0.6339 C   0  0  0  0  0  0  0  0  0  0  0  0
   -3.6756   -1.7204    0.9455 H   0  0  0  0  0  0  0  0  0  0  0  0
   -3.0017   -2.6036   -0.4465 H   0  0  0  0  0  0  0  0  0  0  0  0
   -1.5395   -1.9751    1.0019 C   0  0  0  0  0  0  0  0  0  0  0  0
   -0.9017   -2.5963    1.8325 O   0  0  0  0  0  0  0  0  0  0  0  0
   -1.0809   -0.7881    0.4610 N   0  0  0  0  0  0  0  0  0  0  0  0
   -1.7361   -0.3486   -0.1786 H   0  0  0  0  0  0  0  0  0  0  0  0
    0.2947   -0.2361    0.4393 C   0  0  1  0  0  0  0  0  0  0  0  0
    0.4662    0.1419   -0.5741 H   0  0  0  0  0  0  0  0  0  0  0  0
    0.2920    0.9572    1.4000 C   0  0  0  0  0  0  0  0  0  0  0  0
    0.1055    0.6238    2.4261 H   0  0  0  0  0  0  0  0  0  0  0  0
    1.2589    1.4702    1.3716 H   0  0  0  0  0  0  0  0  0  0  0  0
   -0.4857    1.6740    1.1197 H   0  0  0  0  0  0  0  0  0  0  0  0
    1.5303   -1.1240    0.7569 C   0  0  0  0  0  0  0  0  0  0  0  0
    2.4499   -1.1400   -0.0522 O   0  0  0  0  0  0  0  0  0  0  0  0
    1.6992   -1.7721    1.9652 N   0  0  0  0  0  0  0  0  0  0  0  0
    0.8195   -1.9844    2.4416 H   0  0  0  0  0  0  0  0  0  0  0  0
    2.8361   -2.6426    2.2345 C   0  0  0  0  0  0  0  0  0  0  0  0
    3.7757   -2.0882    2.1414 H   0  0  0  0  0  0  0  0  0  0  0  0
    2.7718   -3.0409    3.2515 H   0  0  0  0  0  0  0  0  0  0  0  0
    2.8500   -3.4822    1.5319 H   0  0  0  0  0  0  0  0  0  0  0  0
  1  2  1  0  0  0  0
  2  3  1  0  0  0  0
  2  4  1  0  0  0  0
  2  5  1  0  0  0  0
  5  6  2  0  0  0  0
  5  7  1  0  0  0  0
  7  8  1  0  0  0  0
  7  9  1  0  0  0  0
  9 10  1  0  0  0  0
  9 11  1  0  0  0  0
  9 15  1  0  0  0  0
 11 12  1  0  0  0  0
 11 13  1  0  0  0  0
 11 14  1  0  0  0  0
 15 16  2  0  0  0  0
 15 17  1  0  0  0  0
 17 18  1  0  0  0  0
 17 19  1  0  0  0  0
 19 20  1  0  0  0  0
 19 21  1  0  0  0  0
 19 22  1  0  0  0  0
M  END
$$$$

  -OEChem-11182114133D

 22 21  0     1  0  0  0  0  0999 V2000
   -3.2923   -3.3416    1.0603 H   0  0  0  0  0  0  0  0  0  0  0  0
   -3.0407   -2.3730    0.6187 C   0  0  0  0  0  0  0  0  0  0  0  0
   -3.7288   -1.6193    1.0088 H   0  0  0  0  0  0  0  0  0  0  0  0
   -3.1605   -2.4415   -0.4652 H   0  0  0  0  0  0  0  0  0  0  0  0
   -1.6113   -1.9965    0.9611 C   0  0  0  0  0  0  0  0  0  0  0  0
   -0.9954   -2.6962    1.7430 O   0  0  0  0  0  0  0  0  0  0  0  0
   -1.0947   -0.8262    0.4360 N   0  0  0  0  0  0  0  0  0  0  0  0
   -1.7494   -0.3263   -0.1583 H   0  0  0  0  0  0  0  0  0  0  0  0
    0.2896   -0.2913    0.4315 C   0  0  1  0  0  0  0  0  0  0  0  0
    0.4686    0.0860   -0.5809 H   0  0  0  0  0  0  0  0  0  0  0  0
    0.2751    0.9010    1.3929 C   0  0  0  0  0  0  0  0  0  0  0  0
    0.0981    0.5623    2.4189 H   0  0  0  0  0  0  0  0  0  0  0  0
    1.2350    1.4269    1.3611 H   0  0  0  0  0  0  0  0  0  0  0  0
   -0.5126    1.6090    1.1178 H   0  0  0  0  0  0  0  0  0  0  0  0
    1.5432   -1.1523    0.7614 C   0  0  0  0  0  0  0  0  0  0  0  0
    2.5507   -0.9605    0.0915 O   0  0  0  0  0  0  0  0  0  0  0  0
    1.6290   -2.0325    1.8214 N   0  0  0  0  0  0  0  0  0  0  0  0
    0.7305   -2.3235    2.2138 H   0  0  0  0  0  0  0  0  0  0  0  0
    2.7924   -2.8729    2.0727 C   0  0  0  0  0  0  0  0  0  0  0  0
    3.6863   -2.2579    2.2202 H   0  0  0  0  0  0  0  0  0  0  0  0
    2.6347   -3.4718    2.9747 H   0  0  0  0  0  0  0  0  0  0  0  0
    2.9645   -3.5511    1.2306 H   0  0  0  0  0  0  0  0  0  0  0  0
  1  2  1  0  0  0  0
  2  3  1  0  0  0  0
  2  4  1  0  0  0  0
  2  5  1  0  0  0  0
  5  6  2  0  0  0  0
  5  7  1  0  0  0  0
  7  8  1  0  0  0  0
  7  9  1  0  0  0  0
  9 10  1  0  0  0  0
  9 11  1  0  0  0  0
  9 15  1  0  0  0  0
 11 12  1  0  0  0  0
 11 13  1  0  0  0  0
 11 14  1  0  0  0  0
 15 16  2  0  0  0  0
 15 17  1  0  0  0  0
 17 18  1  0  0  0  0
 17 19  1  0  0  0  0
 19 20  1  0  0  0  0
 19 21  1  0  0  0  0
 19 22  1  0  0  0  0
M  END
$$$$

  -OEChem-11182114133D

 22 21  0     1  0  0  0  0  0999 V2000
   -3.3860   -3.2968    1.2029 H   0  0  0  0  0  0  0  0  0  0  0  0
   -3.1247   -2.3387    0.7441 C   0  0  0  0  0  0  0  0  0  0  0  0
   -3.7759   -1.5632    1.1545 H   0  0  0  0  0  0  0  0  0  0  0  0
   -3.2886   -2.4109   -0.3338 H   0  0  0  0  0  0  0  0  0  0  0  0
   -1.6732   -1.9994    1.0282 C   0  0  0  0  0  0  0  0  0  0  0  0
   -1.0566   -2.6978    1.8101 O   0  0  0  0  0  0  0  0  0  0  0  0
   -1.1412   -0.8607    0.4512 N   0  0  0  0  0  0  0  0  0  0  0  0
   -1.8090   -0.3578   -0.1256 H   0  0  0  0  0  0  0  0  0  0  0  0
    0.2515   -0.3489    0.3755 C   0  0  1  0  0  0  0  0  0  0  0  0
    0.3919   -0.0029   -0.6539 H   0  0  0  0  0  0  0  0  0  0  0  0
    0.2779    0.8705    1.3035 C   0  0  0  0  0  0  0  0  0  0  0  0
    0.1386    0.5602    2.3442 H   0  0  0  0  0  0  0  0  0  0  0  0
    1.2371    1.3924    1.2226 H   0  0  0  0  0  0  0  0  0  0  0  0
   -0.5167    1.5745    1.0387 H   0  0  0  0  0  0  0  0  0  0  0  0
    1.5255   -1.1933    0.6781 C   0  0  0  0  0  0  0  0  0  0  0  0
    2.5592   -0.8632    0.1093 O   0  0  0  0  0  0  0  0  0  0  0  0
    1.6000   -2.2474    1.5646 N   0  0  0  0  0  0  0  0  0  0  0  0
    0.7146   -2.5655    1.9639 H   0  0  0  0  0  0  0  0  0  0  0  0
    2.7992   -3.0420    1.7938 C   0  0  0  0  0  0  0  0  0  0  0  0
    3.6129   -2.4105    2.1651 H   0  0  0  0  0  0  0  0  0  0  0  0
    2.5982   -3.8188    2.5377 H   0  0  0  0  0  0  0  0  0  0  0  0
    3.1213   -3.5255    0.8659 H   0  0  0  0  0  0  0  0  0  0  0  0
  1  2  1  0  0  0  0
  2  3  1  0  0  0  0
  2  4  1  0  0  0  0
  2  5  1  0  0  0  0
  5  6  2  0  0  0  0
  5  7  1  0  0  0  0
  7  8  1  0  0  0  0
  7  9  1  0  0  0  0
  9 10  1  0  0  0  0
  9 11  1  0  0  0  0
  9 15  1  0  0  0  0
 11 12  1  0  0  0  0
 11 13  1  0  0  0  0
 11 14  1  0  0  0  0
 15 16  2  0  0  0  0
 15 17  1  0  0  0  0
 17 18  1  0  0  0  0
 17 19  1  0  0  0  0
 19 20  1  0  0  0  0
 19 21  1  0  0  0  0
 19 22  1  0  0  0  0
M  END
$$$$

  -OEChem-11182114133D

 22 21  0     1  0  0  0  0  0999 V2000
   -2.6833   -3.8231    1.1734 H   0  0  0  0  0  0  0  0  0  0  0  0
   -2.5548   -2.8952    0.6089 C   0  0  0  0  0  0  0  0  0  0  0  0
   -3.4581   -2.2898    0.7171 H   0  0  0  0  0  0  0  0  0  0  0  0
   -2.4136   -3.1440   -0.4455 H   0  0  0  0  0  0  0  0  0  0  0  0
   -1.3525   -2.1295    1.1293 C   0  0  0  0  0  0  0  0  0  0  0  0
   -0.8459   -2.4774    2.1778 O   0  0  0  0  0  0  0  0  0  0  0  0
   -0.9925   -0.9519    0.5055 N   0  0  0  0  0  0  0  0  0  0  0  0
   -1.6115   -0.7030   -0.2595 H   0  0  0  0  0  0  0  0  0  0  0  0
    0.2973   -0.2185    0.5185 C   0  0  1  0  0  0  0  0  0  0  0  0
    0.4812    0.0893   -0.5153 H   0  0  0  0  0  0  0  0  0  0  0  0
   -0.0092    1.0369    1.3497 C   0  0  0  0  0  0  0  0  0  0  0  0
   -0.1559    0.7665    2.4007 H   0  0  0  0  0  0  0  0  0  0  0  0
    0.8138    1.7563    1.2886 H   0  0  0  0  0  0  0  0  0  0  0  0
   -0.9155    1.5311    0.9868 H   0  0  0  0  0  0  0  0  0  0  0  0
    1.6761   -0.7937    0.9871 C   0  0  0  0  0  0  0  0  0  0  0  0
    2.6520   -0.0605    0.9231 O   0  0  0  0  0  0  0  0  0  0  0  0
    1.9811   -1.9217    1.7095 N   0  0  0  0  0  0  0  0  0  0  0  0
    2.8858   -1.8075    2.1576 H   0  0  0  0  0  0  0  0  0  0  0  0
    1.7704   -3.2406    1.1256 C   0  0  0  0  0  0  0  0  0  0  0  0
    2.7192   -3.6378    0.7517 H   0  0  0  0  0  0  0  0  0  0  0  0
    1.3789   -3.9291    1.8813 H   0  0  0  0  0  0  0  0  0  0  0  0
    1.0663   -3.2044    0.2888 H   0  0  0  0  0  0  0  0  0  0  0  0
  1  2  1  0  0  0  0
  2  3  1  0  0  0  0
  2  4  1  0  0  0  0
  2  5  1  0  0  0  0
  5  6  2  0  0  0  0
  5  7  1  0  0  0  0
  7  8  1  0  0  0  0
  7  9  1  0  0  0  0
  9 10  1  0  0  0  0
  9 11  1  0  0  0  0
  9 15  1  0  0  0  0
 11 12  1  0  0  0  0
 11 13  1  0  0  0  0
 11 14  1  0  0  0  0
 15 16  2  0  0  0  0
 15 17  1  0  0  0  0
 17 18  1  0  0  0  0
 17 19  1  0  0  0  0
 19 20  1  0  0  0  0
 19 21  1  0  0  0  0
 19 22  1  0  0  0  0
M  END
$$$$

  -OEChem-11182114133D

 22 21  0     1  0  0  0  0  0999 V2000
   -2.9795   -3.6587    1.3571 H   0  0  0  0  0  0  0  0  0  0  0  0
   -2.8860   -2.6341    0.9859 C   0  0  0  0  0  0  0  0  0  0  0  0
   -3.5787   -1.9956    1.5393 H   0  0  0  0  0  0  0  0  0  0  0  0
   -3.1528   -2.6200   -0.0736 H   0  0  0  0  0  0  0  0  0  0  0  0
   -1.4629   -2.1394    1.1682 C   0  0  0  0  0  0  0  0  0  0  0  0
   -0.6740   -2.8410    1.7681 O   0  0  0  0  0  0  0  0  0  0  0  0
   -1.1670   -0.8348    0.8280 N   0  0  0  0  0  0  0  0  0  0  0  0
   -1.9783   -0.3311    0.4840 H   0  0  0  0  0  0  0  0  0  0  0  0
    0.1292   -0.2190    0.4544 C   0  0  1  0  0  0  0  0  0  0  0  0
   -0.0789    0.4318   -0.4010 H   0  0  0  0  0  0  0  0  0  0  0  0
    0.4979    0.6604    1.6547 C   0  0  0  0  0  0  0  0  0  0  0  0
    0.7186    0.0380    2.5281 H   0  0  0  0  0  0  0  0  0  0  0  0
    1.3797    1.2691    1.4296 H   0  0  0  0  0  0  0  0  0  0  0  0
   -0.3263    1.3347    1.9064 H   0  0  0  0  0  0  0  0  0  0  0  0
    1.4123   -1.0051    0.0401 C   0  0  0  0  0  0  0  0  0  0  0  0
    2.2368   -0.4033   -0.6320 O   0  0  0  0  0  0  0  0  0  0  0  0
    1.6076   -2.3605   -0.0609 N   0  0  0  0  0  0  0  0  0  0  0  0
    2.1835   -2.5429   -0.8778 H   0  0  0  0  0  0  0  0  0  0  0  0
    2.1153   -3.0472    1.1219 C   0  0  0  0  0  0  0  0  0  0  0  0
    1.8614   -2.5088    2.0415 H   0  0  0  0  0  0  0  0  0  0  0  0
    1.6908   -4.0543    1.1833 H   0  0  0  0  0  0  0  0  0  0  0  0
    3.2052   -3.1302    1.0684 H   0  0  0  0  0  0  0  0  0  0  0  0
  1  2  1  0  0  0  0
  2  3  1  0  0  0  0
  2  4  1  0  0  0  0
  2  5  1  0  0  0  0
  5  6  2  0  0  0  0
  5  7  1  0  0  0  0
  7  8  1  0  0  0  0
  7  9  1  0  0  0  0
  9 10  1  0  0  0  0
  9 11  1  0  0  0  0
  9 15  1  0  0  0  0
 11 12  1  0  0  0  0
 11 13  1  0  0  0  0
 11 14  1  0  0  0  0
 15 16  2  0  0  0  0
 15 17  1  0  0  0  0
 17 18  1  0  0  0  0
 17 19  1  0  0  0  0
 19 20  1  0  0  0  0
 19 21  1  0  0  0  0
 19 22  1  0  0  0  0
M  END
$$$$

  -OEChem-11182114133D

 22 21  0     1  0  0  0  0  0999 V2000
   -3.3659   -3.2644    1.1245 H   0  0  0  0  0  0  0  0  0  0  0  0
   -3.1057   -2.2870    0.7081 C   0  0  0  0  0  0  0  0  0  0  0  0
   -3.7102   -1.5230    1.2029 H   0  0  0  0  0  0  0  0  0  0  0  0
   -3.3352   -2.2893   -0.3602 H   0  0  0  0  0  0  0  0  0  0  0  0
   -1.6309   -2.0011    0.9231 C   0  0  0  0  0  0  0  0  0  0  0  0
   -0.9675   -2.7992    1.5579 O   0  0  0  0  0  0  0  0  0  0  0  0
   -1.1122   -0.8126    0.4433 N   0  0  0  0  0  0  0  0  0  0  0  0
   -1.8022   -0.2254   -0.0155 H   0  0  0  0  0  0  0  0  0  0  0  0
    0.2820   -0.3020    0.3901 C   0  0  1  0  0  0  0  0  0  0  0  0
    0.4164    0.1259   -0.6080 H   0  0  0  0  0  0  0  0  0  0  0  0
    0.3009    0.8426    1.4154 C   0  0  0  0  0  0  0  0  0  0  0  0
    0.2195    0.4423    2.4312 H   0  0  0  0  0  0  0  0  0  0  0  0
    1.2310    1.4155    1.3424 H   0  0  0  0  0  0  0  0  0  0  0  0
   -0.5318    1.5313    1.2430 H   0  0  0  0  0  0  0  0  0  0  0  0
    1.5473   -1.1951    0.5902 C   0  0  0  0  0  0  0  0  0  0  0  0
    2.6402   -0.6427    0.6466 O   0  0  0  0  0  0  0  0  0  0  0  0
    1.5427   -2.5754    0.5424 N   0  0  0  0  0  0  0  0  0  0  0  0
    0.6372   -3.0042    0.7403 H   0  0  0  0  0  0  0  0  0  0  0  0
    2.7356   -3.3840    0.7616 C   0  0  0  0  0  0  0  0  0  0  0  0
    3.1503   -3.1938    1.7570 H   0  0  0  0  0  0  0  0  0  0  0  0
    2.4877   -4.4469    0.6856 H   0  0  0  0  0  0  0  0  0  0  0  0
    3.4989   -3.1545    0.0108 H   0  0  0  0  0  0  0  0  0  0  0  0
  1  2  1  0  0  0  0
  2  3  1  0  0  0  0
  2  4  1  0  0  0  0
  2  5  1  0  0  0  0
  5  6  2  0  0  0  0
  5  7  1  0  0  0  0
  7  8  1  0  0  0  0
  7  9  1  0  0  0  0
  9 10  1  0  0  0  0
  9 11  1  0  0  0  0
  9 15  1  0  0  0  0
 11 12  1  0  0  0  0
 11 13  1  0  0  0  0
 11 14  1  0  0  0  0
 15 16  2  0  0  0  0
 15 17  1  0  0  0  0
 17 18  1  0  0  0  0
 17 19  1  0  0  0  0
 19 20  1  0  0  0  0
 19 21  1  0  0  0  0
 19 22  1  0  0  0  0
M  END
$$$$

  -OEChem-11182114133D

 22 21  0     1  0  0  0  0  0999 V2000
   -3.2787   -3.2967    1.1813 H   0  0  0  0  0  0  0  0  0  0  0  0
   -3.0478   -2.3134    0.7618 C   0  0  0  0  0  0  0  0  0  0  0  0
   -3.6168   -1.5575    1.3085 H   0  0  0  0  0  0  0  0  0  0  0  0
   -3.3507   -2.3004   -0.2879 H   0  0  0  0  0  0  0  0  0  0  0  0
   -1.5617   -2.0293    0.8780 C   0  0  0  0  0  0  0  0  0  0  0  0
   -0.8434   -2.8669    1.3904 O   0  0  0  0  0  0  0  0  0  0  0  0
   -1.0801   -0.8194    0.4128 N   0  0  0  0  0  0  0  0  0  0  0  0
   -1.7985   -0.2064    0.0390 H   0  0  0  0  0  0  0  0  0  0  0  0
    0.3017   -0.2772    0.3787 C   0  0  1  0  0  0  0  0  0  0  0  0
    0.4427    0.1558   -0.6162 H   0  0  0  0  0  0  0  0  0  0  0  0
    0.2881    0.8670    1.4052 C   0  0  0  0  0  0  0  0  0  0  0  0
    0.2148    0.4639    2.4205 H   0  0  0  0  0  0  0  0  0  0  0  0
    1.2035    1.4634    1.3344 H   0  0  0  0  0  0  0  0  0  0  0  0
   -0.5613    1.5343    1.2312 H   0  0  0  0  0  0  0  0  0  0  0  0
    1.5642   -1.1720    0.5856 C   0  0  0  0  0  0  0  0  0  0  0  0
    2.6265   -0.6421    0.8924 O   0  0  0  0  0  0  0  0  0  0  0  0
    1.5991   -2.5055    0.2244 N   0  0  0  0  0  0  0  0  0  0  0  0
    0.6896   -2.9657    0.2834 H   0  0  0  0  0  0  0  0  0  0  0  0
    2.7786   -3.3397    0.4202 C   0  0  0  0  0  0  0  0  0  0  0  0
    3.0487   -3.3791    1.4807 H   0  0  0  0  0  0  0  0  0  0  0  0
    2.5797   -4.3584    0.0741 H   0  0  0  0  0  0  0  0  0  0  0  0
    3.6282   -2.9442   -0.1462 H   0  0  0  0  0  0  0  0  0  0  0  0
  1  2  1  0  0  0  0
  2  3  1  0  0  0  0
  2  4  1  0  0  0  0
  2  5  1  0  0  0  0
  5  6  2  0  0  0  0
  5  7  1  0  0  0  0
  7  8  1  0  0  0  0
  7  9  1  0  0  0  0
  9 10  1  0  0  0  0
  9 11  1  0  0  0  0
  9 15  1  0  0  0  0
 11 12  1  0  0  0  0
 11 13  1  0  0  0  0
 11 14  1  0  0  0  0
 15 16  2  0  0  0  0
 15 17  1  0  0  0  0
 17 18  1  0  0  0  0
 17 19  1  0  0  0  0
 19 20  1  0  0  0  0
 19 21  1  0  0  0  0
 19 22  1  0  0  0  0
M  END
$$$$

  -OEChem-11182114133D

 22 21  0     1  0  0  0  0  0999 V2000
   -3.1744   -3.3321    1.2352 H   0  0  0  0  0  0  0  0  0  0  0  0
   -2.9784   -2.3431    0.8109 C   0  0  0  0  0  0  0  0  0  0  0  0
   -3.5061   -1.5959    1.4086 H   0  0  0  0  0  0  0  0  0  0  0  0
   -3.3599   -2.3180   -0.2127 H   0  0  0  0  0  0  0  0  0  0  0  0
   -1.4883   -2.0563    0.8176 C   0  0  0  0  0  0  0  0  0  0  0  0
   -0.7239   -2.9249    1.1933 O   0  0  0  0  0  0  0  0  0  0  0  0
   -1.0465   -0.8254    0.3679 N   0  0  0  0  0  0  0  0  0  0  0  0
   -1.7905   -0.1901    0.0953 H   0  0  0  0  0  0  0  0  0  0  0  0
    0.3216   -0.2523    0.3686 C   0  0  1  0  0  0  0  0  0  0  0  0
    0.4823    0.1842   -0.6217 H   0  0  0  0  0  0  0  0  0  0  0  0
    0.2688    0.8920    1.3933 C   0  0  0  0  0  0  0  0  0  0  0  0
    0.1704    0.4894    2.4068 H   0  0  0  0  0  0  0  0  0  0  0  0
    1.1819    1.4943    1.3471 H   0  0  0  0  0  0  0  0  0  0  0  0
   -0.5807    1.5521    1.1942 H   0  0  0  0  0  0  0  0  0  0  0  0
    1.5731   -1.1537    0.6000 C   0  0  0  0  0  0  0  0  0  0  0  0
    2.5601   -0.7003    1.1694 O   0  0  0  0  0  0  0  0  0  0  0  0
    1.6991   -2.3692   -0.0466 N   0  0  0  0  0  0  0  0  0  0  0  0
    0.8043   -2.8389   -0.1832 H   0  0  0  0  0  0  0  0  0  0  0  0
    2.8685   -3.2216    0.1312 C   0  0  0  0  0  0  0  0  0  0  0  0
    2.9791   -3.5055    1.1831 H   0  0  0  0  0  0  0  0  0  0  0  0
    2.7645   -4.1324   -0.4660 H   0  0  0  0  0  0  0  0  0  0  0  0
    3.7765   -2.7014   -0.1915 H   0  0  0  0  0  0  0  0  0  0  0  0
  1  2  1  0  0  0  0
  2  3  1  0  0  0  0
  2  4  1  0  0  0  0
  2  5  1  0  0  0  0
  5  6  2  0  0  0  0
  5  7  1  0  0  0  0
  7  8  1  0  0  0  0
  7  9  1  0  0  0  0
  9 10  1  0  0  0  0
  9 11  1  0  0  0  0
  9 15  1  0  0  0  0
 11 12  1  0  0  0  0
 11 13  1  0  0  0  0
 11 14  1  0  0  0  0
 15 16  2  0  0  0  0
 15 17  1  0  0  0  0
 17 18  1  0  0  0  0
 17 19  1  0  0  0  0
 19 20  1  0  0  0  0
 19 21  1  0  0  0  0
 19 22  1  0  0  0  0
M  END
$$$$

  -OEChem-11182114133D

 22 21  0     1  0  0  0  0  0999 V2000
   -3.0531   -3.3835    1.2660 H   0  0  0  0  0  0  0  0  0  0  0  0
   -2.8985   -2.3850    0.8469 C   0  0  0  0  0  0  0  0  0  0  0  0
   -3.4008   -1.6561    1.4873 H   0  0  0  0  0  0  0  0  0  0  0  0
   -3.3403   -2.3498   -0.1518 H   0  0  0  0  0  0  0  0  0  0  0  0
   -1.4154   -2.0740    0.7705 C   0  0  0  0  0  0  0  0  0  0  0  0
   -0.6152   -2.9462    1.0514 O   0  0  0  0  0  0  0  0  0  0  0  0
   -1.0189   -0.8241    0.3299 N   0  0  0  0  0  0  0  0  0  0  0  0
   -1.7849   -0.1866    0.1350 H   0  0  0  0  0  0  0  0  0  0  0  0
    0.3340   -0.2214    0.3577 C   0  0  1  0  0  0  0  0  0  0  0  0
    0.5089    0.2247   -0.6258 H   0  0  0  0  0  0  0  0  0  0  0  0
    0.2522    0.9170    1.3867 C   0  0  0  0  0  0  0  0  0  0  0  0
    0.1189    0.5101    2.3945 H   0  0  0  0  0  0  0  0  0  0  0  0
    1.1706    1.5129    1.3728 H   0  0  0  0  0  0  0  0  0  0  0  0
   -0.5872    1.5822    1.1633 H   0  0  0  0  0  0  0  0  0  0  0  0
    1.5748   -1.1292    0.6072 C   0  0  0  0  0  0  0  0  0  0  0  0
    2.4365   -0.8085    1.4190 O   0  0  0  0  0  0  0  0  0  0  0  0
    1.8473   -2.1656   -0.2673 N   0  0  0  0  0  0  0  0  0  0  0  0
    1.0162   -2.5659   -0.6954 H   0  0  0  0  0  0  0  0  0  0  0  0
    2.9872   -3.0539   -0.0750 C   0  0  0  0  0  0  0  0  0  0  0  0
    2.9125   -3.5679    0.8892 H   0  0  0  0  0  0  0  0  0  0  0  0
    3.0169   -3.8059   -0.8691 H   0  0  0  0  0  0  0  0  0  0  0  0
    3.9251   -2.4892   -0.1020 H   0  0  0  0  0  0  0  0  0  0  0  0
  1  2  1  0  0  0  0
  2  3  1  0  0  0  0
  2  4  1  0  0  0  0
  2  5  1  0  0  0  0
  5  6  2  0  0  0  0
  5  7  1  0  0  0  0
  7  8  1  0  0  0  0
  7  9  1  0  0  0  0
  9 10  1  0  0  0  0
  9 11  1  0  0  0  0
  9 15  1  0  0  0  0
 11 12  1  0  0  0  0
 11 13  1  0  0  0  0
 11 14  1  0  0  0  0
 15 16  2  0  0  0  0
 15 17  1  0  0  0  0
 17 18  1  0  0  0  0
 17 19  1  0  0  0  0
 19 20  1  0  0  0  0
 19 21  1  0  0  0  0
 19 22  1  0  0  0  0
M  END
$$$$

  -OEChem-11182114133D

 22 21  0     1  0  0  0  0  0999 V2000
   -2.9777   -3.4140    1.2952 H   0  0  0  0  0  0  0  0  0  0  0  0
   -2.8489   -2.4142    0.8705 C   0  0  0  0  0  0  0  0  0  0  0  0
   -3.3395   -1.6907    1.5261 H   0  0  0  0  0  0  0  0  0  0  0  0
   -3.3227   -2.3863   -0.1137 H   0  0  0  0  0  0  0  0  0  0  0  0
   -1.3728   -2.0853    0.7457 C   0  0  0  0  0  0  0  0  0  0  0  0
   -0.5548   -2.9588    0.9669 O   0  0  0  0  0  0  0  0  0  0  0  0
   -1.0049   -0.8257    0.3058 N   0  0  0  0  0  0  0  0  0  0  0  0
   -1.7834   -0.1907    0.1596 H   0  0  0  0  0  0  0  0  0  0  0  0
    0.3383   -0.2050    0.3506 C   0  0  1  0  0  0  0  0  0  0  0  0
    0.5241    0.2471   -0.6283 H   0  0  0  0  0  0  0  0  0  0  0  0
    0.2417    0.9301    1.3808 C   0  0  0  0  0  0  0  0  0  0  0  0
    0.0660    0.5228    2.3821 H   0  0  0  0  0  0  0  0  0  0  0  0
    1.1721    1.5069    1.4004 H   0  0  0  0  0  0  0  0  0  0  0  0
   -0.5772    1.6111    1.1310 H   0  0  0  0  0  0  0  0  0  0  0  0
    1.5718   -1.1153    0.6169 C   0  0  0  0  0  0  0  0  0  0  0  0
    2.2773   -0.9566    1.6076 O   0  0  0  0  0  0  0  0  0  0  0  0
    2.0310   -1.9340   -0.3993 N   0  0  0  0  0  0  0  0  0  0  0  0
    1.3265   -2.2009   -1.0800 H   0  0  0  0  0  0  0  0  0  0  0  0
    3.1618   -2.8345   -0.2115 C   0  0  0  0  0  0  0  0  0  0  0  0
    2.9539   -3.5446    0.5960 H   0  0  0  0  0  0  0  0  0  0  0  0
    3.3525   -3.3978   -1.1298 H   0  0  0  0  0  0  0  0  0  0  0  0
    4.0660   -2.2700    0.0393 H   0  0  0  0  0  0  0  0  0  0  0  0
  1  2  1  0  0  0  0
  2  3  1  0  0  0  0
  2  4  1  0  0  0  0
  2  5  1  0  0  0  0
  5  6  2  0  0  0  0
  5  7  1  0  0  0  0
  7  8  1  0  0  0  0
  7  9  1  0  0  0  0
  9 10  1  0  0  0  0
  9 11  1  0  0  0  0
  9 15  1  0  0  0  0
 11 12  1  0  0  0  0
 11 13  1  0  0  0  0
 11 14  1  0  0  0  0
 15 16  2  0  0  0  0
 15 17  1  0  0  0  0
 17 18  1  0  0  0  0
 17 19  1  0  0  0  0
 19 20  1  0  0  0  0
 19 21  1  0  0  0  0
 19 22  1  0  0  0  0
M  END
$$$$

  -OEChem-11182114133D

 22 21  0     1  0  0  0  0  0999 V2000
   -2.9438   -3.4312    1.2957 H   0  0  0  0  0  0  0  0  0  0  0  0
   -2.8280   -2.4153    0.9071 C   0  0  0  0  0  0  0  0  0  0  0  0
   -3.2649   -1.7155    1.6236 H   0  0  0  0  0  0  0  0  0  0  0  0
   -3.3625   -2.3383   -0.0427 H   0  0  0  0  0  0  0  0  0  0  0  0
   -1.3582   -2.0985    0.7030 C   0  0  0  0  0  0  0  0  0  0  0  0
   -0.5388   -2.9877    0.8423 O   0  0  0  0  0  0  0  0  0  0  0  0
   -1.0035   -0.8343    0.2653 N   0  0  0  0  0  0  0  0  0  0  0  0
   -1.7864   -0.1944    0.1750 H   0  0  0  0  0  0  0  0  0  0  0  0
    0.3353   -0.2080    0.3301 C   0  0  1  0  0  0  0  0  0  0  0  0
    0.5306    0.2518   -0.6432 H   0  0  0  0  0  0  0  0  0  0  0  0
    0.2247    0.9195    1.3666 C   0  0  0  0  0  0  0  0  0  0  0  0
    0.0086    0.5082    2.3584 H   0  0  0  0  0  0  0  0  0  0  0  0
    1.1645    1.4783    1.4221 H   0  0  0  0  0  0  0  0  0  0  0  0
   -0.5737    1.6165    1.0956 H   0  0  0  0  0  0  0  0  0  0  0  0
    1.5664   -1.1154    0.6148 C   0  0  0  0  0  0  0  0  0  0  0  0
    2.0976   -1.1308    1.7203 O   0  0  0  0  0  0  0  0  0  0  0  0
    2.2394   -1.6918   -0.4482 N   0  0  0  0  0  0  0  0  0  0  0  0
    1.7001   -1.7997   -1.3011 H   0  0  0  0  0  0  0  0  0  0  0  0
    3.3867   -2.5698   -0.2521 C   0  0  0  0  0  0  0  0  0  0  0  0
    3.1056   -3.4339    0.3593 H   0  0  0  0  0  0  0  0  0  0  0  0
    3.7552   -2.9316   -1.2166 H   0  0  0  0  0  0  0  0  0  0  0  0
    4.2004   -2.0340    0.2479 H   0  0  0  0  0  0  0  0  0  0  0  0
  1  2  1  0  0  0  0
  2  3  1  0  0  0  0
  2  4  1  0  0  0  0
  2  5  1  0  0  0  0
  5  6  2  0  0  0  0
  5  7  1  0  0  0  0
  7  8  1  0  0  0  0
  7  9  1  0  0  0  0
  9 10  1  0  0  0  0
  9 11  1  0  0  0  0
  9 15  1  0  0  0  0
 11 12  1  0  0  0  0
 11 13  1  0  0  0  0
 11 14  1  0  0  0  0
 15 16  2  0  0  0  0
 15 17  1  0  0  0  0
 17 18  1  0  0  0  0
 17 19  1  0  0  0  0
 19 20  1  0  0  0  0
 19 21  1  0  0  0  0
 19 22  1  0  0  0  0
M  END
$$$$

  -OEChem-11182114133D

 22 21  0     1  0  0  0  0  0999 V2000
   -2.9395   -3.4406    1.2879 H   0  0  0  0  0  0  0  0  0  0  0  0
   -2.8250   -2.4122    0.9333 C   0  0  0  0  0  0  0  0  0  0  0  0
   -3.2152   -1.7344    1.6962 H   0  0  0  0  0  0  0  0  0  0  0  0
   -3.4029   -2.2903    0.0142 H   0  0  0  0  0  0  0  0  0  0  0  0
   -1.3612   -2.1104    0.6711 C   0  0  0  0  0  0  0  0  0  0  0  0
   -0.5520   -3.0173    0.7364 O   0  0  0  0  0  0  0  0  0  0  0  0
   -1.0083   -0.8453    0.2345 N   0  0  0  0  0  0  0  0  0  0  0  0
   -1.7891   -0.1985    0.1873 H   0  0  0  0  0  0  0  0  0  0  0  0
    0.3311   -0.2225    0.3123 C   0  0  1  0  0  0  0  0  0  0  0  0
    0.5315    0.2395   -0.6586 H   0  0  0  0  0  0  0  0  0  0  0  0
    0.2230    0.9021    1.3516 C   0  0  0  0  0  0  0  0  0  0  0  0
   -0.0126    0.4907    2.3390 H   0  0  0  0  0  0  0  0  0  0  0  0
    1.1702    1.4464    1.4221 H   0  0  0  0  0  0  0  0  0  0  0  0
   -0.5618    1.6114    1.0724 H   0  0  0  0  0  0  0  0  0  0  0  0
    1.5607   -1.1276    0.6092 C   0  0  0  0  0  0  0  0  0  0  0  0
    1.9323   -1.3153    1.7629 O   0  0  0  0  0  0  0  0  0  0  0  0
    2.4308   -1.4518   -0.4175 N   0  0  0  0  0  0  0  0  0  0  0  0
    2.0555   -1.3915   -1.3584 H   0  0  0  0  0  0  0  0  0  0  0  0
    3.6147   -2.2753   -0.2019 C   0  0  0  0  0  0  0  0  0  0  0  0
    3.3305   -3.2545    0.1980 H   0  0  0  0  0  0  0  0  0  0  0  0
    4.1480   -2.4265   -1.1450 H   0  0  0  0  0  0  0  0  0  0  0  0
    4.2966   -1.7908    0.5048 H   0  0  0  0  0  0  0  0  0  0  0  0
  1  2  1  0  0  0  0
  2  3  1  0  0  0  0
  2  4  1  0  0  0  0
  2  5  1  0  0  0  0
  5  6  2  0  0  0  0
  5  7  1  0  0  0  0
  7  8  1  0  0  0  0
  7  9  1  0  0  0  0
  9 10  1  0  0  0  0
  9 11  1  0  0  0  0
  9 15  1  0  0  0  0
 11 12  1  0  0  0  0
 11 13  1  0  0  0  0
 11 14  1  0  0  0  0
 15 16  2  0  0  0  0
 15 17  1  0  0  0  0
 17 18  1  0  0  0  0
 17 19  1  0  0  0  0
 19 20  1  0  0  0  0
 19 21  1  0  0  0  0
 19 22  1  0  0  0  0
M  END
$$$$

  -OEChem-11182114133D

 22 21  0     1  0  0  0  0  0999 V2000
   -2.9291   -3.4380    1.2983 H   0  0  0  0  0  0  0  0  0  0  0  0
   -2.8152   -2.3999    0.9728 C   0  0  0  0  0  0  0  0  0  0  0  0
   -3.1301   -1.7420    1.7863 H   0  0  0  0  0  0  0  0  0  0  0  0
   -3.4559   -2.2311    0.1043 H   0  0  0  0  0  0  0  0  0  0  0  0
   -1.3674   -2.1228    0.6133 C   0  0  0  0  0  0  0  0  0  0  0  0
   -0.5841   -3.0531    0.5628 O   0  0  0  0  0  0  0  0  0  0  0  0
   -1.0131   -0.8563    0.1827 N   0  0  0  0  0  0  0  0  0  0  0  0
   -1.7869   -0.2002    0.1939 H   0  0  0  0  0  0  0  0  0  0  0  0
    0.3289   -0.2431    0.2836 C   0  0  1  0  0  0  0  0  0  0  0  0
    0.5414    0.2222   -0.6831 H   0  0  0  0  0  0  0  0  0  0  0  0
    0.2206    0.8739    1.3300 C   0  0  0  0  0  0  0  0  0  0  0  0
   -0.0311    0.4575    2.3112 H   0  0  0  0  0  0  0  0  0  0  0  0
    1.1731    1.4066    1.4163 H   0  0  0  0  0  0  0  0  0  0  0  0
   -0.5530    1.5940    1.0471 H   0  0  0  0  0  0  0  0  0  0  0  0
    1.5531   -1.1488    0.5970 C   0  0  0  0  0  0  0  0  0  0  0  0
    1.7743   -1.5107    1.7477 O   0  0  0  0  0  0  0  0  0  0  0  0
    2.5956   -1.2204   -0.3114 N   0  0  0  0  0  0  0  0  0  0  0  0
    2.3805   -0.9738   -1.2717 H   0  0  0  0  0  0  0  0  0  0  0  0
    3.8141   -1.9772   -0.0483 C   0  0  0  0  0  0  0  0  0  0  0  0
    3.5772   -3.0301    0.1389 H   0  0  0  0  0  0  0  0  0  0  0  0
    4.4883   -1.9205   -0.9082 H   0  0  0  0  0  0  0  0  0  0  0  0
    4.3365   -1.5729    0.8252 H   0  0  0  0  0  0  0  0  0  0  0  0
  1  2  1  0  0  0  0
  2  3  1  0  0  0  0
  2  4  1  0  0  0  0
  2  5  1  0  0  0  0
  5  6  2  0  0  0  0
  5  7  1  0  0  0  0
  7  8  1  0  0  0  0
  7  9  1  0  0  0  0
  9 10  1  0  0  0  0
  9 11  1  0  0  0  0
  9 15  1  0  0  0  0
 11 12  1  0  0  0  0
 11 13  1  0  0  0  0
 11 14  1  0  0  0  0
 15 16  2  0  0  0  0
 15 17  1  0  0  0  0
 17 18  1  0  0  0  0
 17 19  1  0  0  0  0
 19 20  1  0  0  0  0
 19 21  1  0  0  0  0
 19 22  1  0  0  0  0
M  END
$$$$

  -OEChem-11182114133D

 22 21  0     1  0  0  0  0  0999 V2000
   -2.9002   -3.4316    1.3266 H   0  0  0  0  0  0  0  0  0  0  0  0
   -2.7869   -2.3863    1.0252 C   0  0  0  0  0  0  0  0  0  0  0  0
   -3.0130   -1.7490    1.8834 H   0  0  0  0  0  0  0  0  0  0  0  0
   -3.4946   -2.1726    0.2207 H   0  0  0  0  0  0  0  0  0  0  0  0
   -1.3682   -2.1330    0.5507 C   0  0  0  0  0  0  0  0  0  0  0  0
   -0.6300   -3.0822    0.3579 O   0  0  0  0  0  0  0  0  0  0  0  0
   -1.0151   -0.8658    0.1235 N   0  0  0  0  0  0  0  0  0  0  0  0
   -1.7800   -0.2037    0.1977 H   0  0  0  0  0  0  0  0  0  0  0  0
    0.3299   -0.2624    0.2454 C   0  0  1  0  0  0  0  0  0  0  0  0
    0.5550    0.2031   -0.7182 H   0  0  0  0  0  0  0  0  0  0  0  0
    0.2193    0.8476    1.2983 C   0  0  0  0  0  0  0  0  0  0  0  0
   -0.0355    0.4248    2.2760 H   0  0  0  0  0  0  0  0  0  0  0  0
    1.1715    1.3797    1.3913 H   0  0  0  0  0  0  0  0  0  0  0  0
   -0.5526    1.5703    1.0177 H   0  0  0  0  0  0  0  0  0  0  0  0
    1.5490   -1.1685    0.5752 C   0  0  0  0  0  0  0  0  0  0  0  0
    1.6390   -1.6959    1.6784 O   0  0  0  0  0  0  0  0  0  0  0  0
    2.7223   -1.0073   -0.1432 N   0  0  0  0  0  0  0  0  0  0  0  0
    2.6456   -0.5790   -1.0598 H   0  0  0  0  0  0  0  0  0  0  0  0
    3.9575   -1.7049    0.1957 C   0  0  0  0  0  0  0  0  0  0  0  0
    3.7994   -2.7886    0.1872 H   0  0  0  0  0  0  0  0  0  0  0  0
    4.7403   -1.4631   -0.5295 H   0  0  0  0  0  0  0  0  0  0  0  0
    4.3056   -1.4078    1.1905 H   0  0  0  0  0  0  0  0  0  0  0  0
  1  2  1  0  0  0  0
  2  3  1  0  0  0  0
  2  4  1  0  0  0  0
  2  5  1  0  0  0  0
  5  6  2  0  0  0  0
  5  7  1  0  0  0  0
  7  8  1  0  0  0  0
  7  9  1  0  0  0  0
  9 10  1  0  0  0  0
  9 11  1  0  0  0  0
  9 15  1  0  0  0  0
 11 12  1  0  0  0  0
 11 13  1  0  0  0  0
 11 14  1  0  0  0  0
 15 16  2  0  0  0  0
 15 17  1  0  0  0  0
 17 18  1  0  0  0  0
 17 19  1  0  0  0  0
 19 20  1  0  0  0  0
 19 21  1  0  0  0  0
 19 22  1  0  0  0  0
M  END
$$$$

  -OEChem-11182114133D

 22 21  0     1  0  0  0  0  0999 V2000
   -2.8699   -3.4128    1.3748 H   0  0  0  0  0  0  0  0  0  0  0  0
   -2.7526   -2.3659    1.0807 C   0  0  0  0  0  0  0  0  0  0  0  0
   -2.8852   -1.7383    1.9651 H   0  0  0  0  0  0  0  0  0  0  0  0
   -3.5203   -2.1177    0.3442 H   0  0  0  0  0  0  0  0  0  0  0  0
   -1.3727   -2.1439    0.4902 C   0  0  0  0  0  0  0  0  0  0  0  0
   -0.6986   -3.1080    0.1744 O   0  0  0  0  0  0  0  0  0  0  0  0
   -1.0123   -0.8799    0.0619 N   0  0  0  0  0  0  0  0  0  0  0  0
   -1.7651   -0.2107    0.1802 H   0  0  0  0  0  0  0  0  0  0  0  0
    0.3374   -0.2902    0.2004 C   0  0  1  0  0  0  0  0  0  0  0  0
    0.5754    0.1755   -0.7603 H   0  0  0  0  0  0  0  0  0  0  0  0
    0.2191    0.8112    1.2606 C   0  0  0  0  0  0  0  0  0  0  0  0
   -0.0351    0.3781    2.2339 H   0  0  0  0  0  0  0  0  0  0  0  0
    1.1677    1.3484    1.3602 H   0  0  0  0  0  0  0  0  0  0  0  0
   -0.5563    1.5320    0.9841 H   0  0  0  0  0  0  0  0  0  0  0  0
    1.5554   -1.1919    0.5482 C   0  0  0  0  0  0  0  0  0  0  0  0
    1.5429   -1.8848    1.5588 O   0  0  0  0  0  0  0  0  0  0  0  0
    2.8047   -0.8261    0.0734 N   0  0  0  0  0  0  0  0  0  0  0  0
    2.8338   -0.2125   -0.7340 H   0  0  0  0  0  0  0  0  0  0  0  0
    4.0426   -1.4618    0.5115 C   0  0  0  0  0  0  0  0  0  0  0  0
    4.0048   -2.5407    0.3269 H   0  0  0  0  0  0  0  0  0  0  0  0
    4.8952   -1.0469   -0.0342 H   0  0  0  0  0  0  0  0  0  0  0  0
    4.2032   -1.2927    1.5815 H   0  0  0  0  0  0  0  0  0  0  0  0
  1  2  1  0  0  0  0
  2  3  1  0  0  0  0
  2  4  1  0  0  0  0
  2  5  1  0  0  0  0
  5  6  2  0  0  0  0
  5  7  1  0  0  0  0
  7  8  1  0  0  0  0
  7  9  1  0  0  0  0
  9 10  1  0  0  0  0
  9 11  1  0  0  0  0
  9 15  1  0  0  0  0
 11 12  1  0  0  0  0
 11 13  1  0  0  0  0
 11 14  1  0  0  0  0
 15 16  2  0  0  0  0
 15 17  1  0  0  0  0
 17 18  1  0  0  0  0
 17 19  1  0  0  0  0
 19 20  1  0  0  0  0
 19 21  1  0  0  0  0
 19 22  1  0  0  0  0
M  END
$$$$

  -OEChem-11182114133D

 22 21  0     1  0  0  0  0  0999 V2000
   -2.7607   -3.5475    1.2317 H   0  0  0  0  0  0  0  0  0  0  0  0
   -2.5778   -2.6684    0.6073 C   0  0  0  0  0  0  0  0  0  0  0  0
   -3.5004   -2.0879    0.5343 H   0  0  0  0  0  0  0  0  0  0  0  0
   -2.2818   -3.0032   -0.3895 H   0  0  0  0  0  0  0  0  0  0  0  0
   -1.4753   -1.8224    1.2150 C   0  0  0  0  0  0  0  0  0  0  0  0
   -1.1068   -2.0409    2.3569 O   0  0  0  0  0  0  0  0  0  0  0  0
   -1.1000   -0.6410    0.6044 N   0  0  0  0  0  0  0  0  0  0  0  0
   -1.6521   -0.4541   -0.2256 H   0  0  0  0  0  0  0  0  0  0  0  0
    0.2951   -0.1528    0.5211 C   0  0  1  0  0  0  0  0  0  0  0  0
    0.4435    0.2151   -0.4982 H   0  0  0  0  0  0  0  0  0  0  0  0
    0.3676    1.0366    1.4854 C   0  0  0  0  0  0  0  0  0  0  0  0
    0.2382    0.6924    2.5173 H   0  0  0  0  0  0  0  0  0  0  0  0
    1.3324    1.5461    1.4069 H   0  0  0  0  0  0  0  0  0  0  0  0
   -0.4214    1.7609    1.2605 H   0  0  0  0  0  0  0  0  0  0  0  0
    1.5039   -1.0965    0.8027 C   0  0  0  0  0  0  0  0  0  0  0  0
    1.3900   -2.3076    0.9298 O   0  0  0  0  0  0  0  0  0  0  0  0
    2.7578   -0.6585    0.4053 N   0  0  0  0  0  0  0  0  0  0  0  0
    2.8682    0.3337    0.2239 H   0  0  0  0  0  0  0  0  0  0  0  0
    3.9459   -1.5059    0.3958 C   0  0  0  0  0  0  0  0  0  0  0  0
    3.8311   -2.3197   -0.3281 H   0  0  0  0  0  0  0  0  0  0  0  0
    4.8266   -0.9192    0.1180 H   0  0  0  0  0  0  0  0  0  0  0  0
    4.1168   -1.9374    1.3878 H   0  0  0  0  0  0  0  0  0  0  0  0
  1  2  1  0  0  0  0
  2  3  1  0  0  0  0
  2  4  1  0  0  0  0
  2  5  1  0  0  0  0
  5  6  2  0  0  0  0
  5  7  1  0  0  0  0
  7  8  1  0  0  0  0
  7  9  1  0  0  0  0
  9 10  1  0  0  0  0
  9 11  1  0  0  0  0
  9 15  1  0  0  0  0
 11 12  1  0  0  0  0
 11 13  1  0  0  0  0
 11 14  1  0  0  0  0
 15 16  2  0  0  0  0
 15 17  1  0  0  0  0
 17 18  1  0  0  0  0
 17 19  1  0  0  0  0
 19 20  1  0  0  0  0
 19 21  1  0  0  0  0
 19 22  1  0  0  0  0
M  END
$$$$

  -OEChem-11182114133D

 22 21  0     1  0  0  0  0  0999 V2000
   -2.6697   -3.5697    1.2661 H   0  0  0  0  0  0  0  0  0  0  0  0
   -2.5664   -2.6602    0.6675 C   0  0  0  0  0  0  0  0  0  0  0  0
   -3.4821   -2.0713    0.7581 H   0  0  0  0  0  0  0  0  0  0  0  0
   -2.4214   -2.9440   -0.3777 H   0  0  0  0  0  0  0  0  0  0  0  0
   -1.3770   -1.8525    1.1510 C   0  0  0  0  0  0  0  0  0  0  0  0
   -0.7831   -2.1921    2.1627 O   0  0  0  0  0  0  0  0  0  0  0  0
   -1.0775   -0.6415    0.5522 N   0  0  0  0  0  0  0  0  0  0  0  0
   -1.6673   -0.4409   -0.2486 H   0  0  0  0  0  0  0  0  0  0  0  0
    0.2986   -0.1063    0.4712 C   0  0  1  0  0  0  0  0  0  0  0  0
    0.3651    0.5010   -0.4363 H   0  0  0  0  0  0  0  0  0  0  0  0
    0.4802    0.8186    1.6828 C   0  0  0  0  0  0  0  0  0  0  0  0
    0.4868    0.2357    2.6100 H   0  0  0  0  0  0  0  0  0  0  0  0
    1.4201    1.3735    1.6138 H   0  0  0  0  0  0  0  0  0  0  0  0
   -0.3394    1.5420    1.7352 H   0  0  0  0  0  0  0  0  0  0  0  0
    1.4723   -1.1262    0.3886 C   0  0  0  0  0  0  0  0  0  0  0  0
    1.2882   -2.2606   -0.0379 O   0  0  0  0  0  0  0  0  0  0  0  0
    2.7712   -0.6490    0.3175 N   0  0  0  0  0  0  0  0  0  0  0  0
    2.9329    0.3012    0.6345 H   0  0  0  0  0  0  0  0  0  0  0  0
    3.9244   -1.4989    0.0412 C   0  0  0  0  0  0  0  0  0  0  0  0
    3.8510   -1.9306   -0.9626 H   0  0  0  0  0  0  0  0  0  0  0  0
    4.8476   -0.9143    0.0984 H   0  0  0  0  0  0  0  0  0  0  0  0
    3.9844   -2.3130    0.7713 H   0  0  0  0  0  0  0  0  0  0  0  0
  1  2  1  0  0  0  0
  2  3  1  0  0  0  0
  2  4  1  0  0  0  0
  2  5  1  0  0  0  0
  5  6  2  0  0  0  0
  5  7  1  0  0  0  0
  7  8  1  0  0  0  0
  7  9  1  0  0  0  0
  9 10  1  0  0  0  0
  9 11  1  0  0  0  0
  9 15  1  0  0  0  0
 11 12  1  0  0  0  0
 11 13  1  0  0  0  0
 11 14  1  0  0  0  0
 15 16  2  0  0  0  0
 15 17  1  0  0  0  0
 17 18  1  0  0  0  0
 17 19  1  0  0  0  0
 19 20  1  0  0  0  0
 19 21  1  0  0  0  0
 19 22  1  0  0  0  0
M  END
$$$$

  -OEChem-11182114133D

 22 21  0     1  0  0  0  0  0999 V2000
   -2.6491   -3.5712    1.2806 H   0  0  0  0  0  0  0  0  0  0  0  0
   -2.5540   -2.6630    0.6787 C   0  0  0  0  0  0  0  0  0  0  0  0
   -3.4658   -2.0707    0.7855 H   0  0  0  0  0  0  0  0  0  0  0  0
   -2.4303   -2.9491   -0.3687 H   0  0  0  0  0  0  0  0  0  0  0  0
   -1.3533   -1.8576    1.1377 C   0  0  0  0  0  0  0  0  0  0  0  0
   -0.7119   -2.2230    2.1108 O   0  0  0  0  0  0  0  0  0  0  0  0
   -1.0783   -0.6361    0.5483 N   0  0  0  0  0  0  0  0  0  0  0  0
   -1.6831   -0.4272   -0.2393 H   0  0  0  0  0  0  0  0  0  0  0  0
    0.2887   -0.0808    0.4643 C   0  0  1  0  0  0  0  0  0  0  0  0
    0.3496    0.5292   -0.4417 H   0  0  0  0  0  0  0  0  0  0  0  0
    0.4615    0.8451    1.6772 C   0  0  0  0  0  0  0  0  0  0  0  0
    0.4974    0.2598    2.6022 H   0  0  0  0  0  0  0  0  0  0  0  0
    1.3831    1.4284    1.5949 H   0  0  0  0  0  0  0  0  0  0  0  0
   -0.3777    1.5446    1.7437 H   0  0  0  0  0  0  0  0  0  0  0  0
    1.4538   -1.1077    0.3671 C   0  0  0  0  0  0  0  0  0  0  0  0
    1.2912   -2.1519   -0.2554 O   0  0  0  0  0  0  0  0  0  0  0  0
    2.7595   -0.7076    0.5989 N   0  0  0  0  0  0  0  0  0  0  0  0
    2.8902    0.1500    1.1255 H   0  0  0  0  0  0  0  0  0  0  0  0
    3.9076   -1.5849    0.3992 C   0  0  0  0  0  0  0  0  0  0  0  0
    3.9930   -1.8715   -0.6544 H   0  0  0  0  0  0  0  0  0  0  0  0
    4.8295   -1.0740    0.6929 H   0  0  0  0  0  0  0  0  0  0  0  0
    3.8064   -2.4923    1.0043 H   0  0  0  0  0  0  0  0  0  0  0  0
  1  2  1  0  0  0  0
  2  3  1  0  0  0  0
  2  4  1  0  0  0  0
  2  5  1  0  0  0  0
  5  6  2  0  0  0  0
  5  7  1  0  0  0  0
  7  8  1  0  0  0  0
  7  9  1  0  0  0  0
  9 10  1  0  0  0  0
  9 11  1  0  0  0  0
  9 15  1  0  0  0  0
 11 12  1  0  0  0  0
 11 13  1  0  0  0  0
 11 14  1  0  0  0  0
 15 16  2  0  0  0  0
 15 17  1  0  0  0  0
 17 18  1  0  0  0  0
 17 19  1  0  0  0  0
 19 20  1  0  0  0  0
 19 21  1  0  0  0  0
 19 22  1  0  0  0  0
M  END
$$$$

  -OEChem-11182114133D

 22 21  0     1  0  0  0  0  0999 V2000
   -2.6041   -3.5952    1.2573 H   0  0  0  0  0  0  0  0  0  0  0  0
   -2.5444   -2.6646    0.6861 C   0  0  0  0  0  0  0  0  0  0  0  0
   -3.4559   -2.0870    0.8559 H   0  0  0  0  0  0  0  0  0  0  0  0
   -2.4661   -2.9102   -0.3757 H   0  0  0  0  0  0  0  0  0  0  0  0
   -1.3314   -1.8642    1.1207 C   0  0  0  0  0  0  0  0  0  0  0  0
   -0.6543   -2.2509    2.0609 O   0  0  0  0  0  0  0  0  0  0  0  0
   -1.0732   -0.6357    0.5382 N   0  0  0  0  0  0  0  0  0  0  0  0
   -1.6901   -0.4177   -0.2376 H   0  0  0  0  0  0  0  0  0  0  0  0
    0.2850   -0.0610    0.4565 C   0  0  1  0  0  0  0  0  0  0  0  0
    0.3437    0.5481   -0.4504 H   0  0  0  0  0  0  0  0  0  0  0  0
    0.4424    0.8703    1.6674 C   0  0  0  0  0  0  0  0  0  0  0  0
    0.4592    0.2907    2.5964 H   0  0  0  0  0  0  0  0  0  0  0  0
    1.3679    1.4488    1.5956 H   0  0  0  0  0  0  0  0  0  0  0  0
   -0.3943    1.5740    1.7153 H   0  0  0  0  0  0  0  0  0  0  0  0
    1.4476   -1.0889    0.3546 C   0  0  0  0  0  0  0  0  0  0  0  0
    1.3382   -2.0284   -0.4261 O   0  0  0  0  0  0  0  0  0  0  0  0
    2.7035   -0.8129    0.8683 N   0  0  0  0  0  0  0  0  0  0  0  0
    2.7571   -0.0782    1.5664 H   0  0  0  0  0  0  0  0  0  0  0  0
    3.8294   -1.7302    0.7365 C   0  0  0  0  0  0  0  0  0  0  0  0
    4.0668   -1.8974   -0.3194 H   0  0  0  0  0  0  0  0  0  0  0  0
    4.7153   -1.3147    1.2261 H   0  0  0  0  0  0  0  0  0  0  0  0
    3.5950   -2.6936    1.2018 H   0  0  0  0  0  0  0  0  0  0  0  0
  1  2  1  0  0  0  0
  2  3  1  0  0  0  0
  2  4  1  0  0  0  0
  2  5  1  0  0  0  0
  5  6  2  0  0  0  0
  5  7  1  0  0  0  0
  7  8  1  0  0  0  0
  7  9  1  0  0  0  0
  9 10  1  0  0  0  0
  9 11  1  0  0  0  0
  9 15  1  0  0  0  0
 11 12  1  0  0  0  0
 11 13  1  0  0  0  0
 11 14  1  0  0  0  0
 15 16  2  0  0  0  0
 15 17  1  0  0  0  0
 17 18  1  0  0  0  0
 17 19  1  0  0  0  0
 19 20  1  0  0  0  0
 19 21  1  0  0  0  0
 19 22  1  0  0  0  0
M  END
$$$$

  -OEChem-11182114133D

 22 21  0     1  0  0  0  0  0999 V2000
   -2.5710   -3.6160    1.2327 H   0  0  0  0  0  0  0  0  0  0  0  0
   -2.5370   -2.6666    0.6908 C   0  0  0  0  0  0  0  0  0  0  0  0
   -3.4440   -2.0998    0.9134 H   0  0  0  0  0  0  0  0  0  0  0  0
   -2.4971   -2.8766   -0.3809 H   0  0  0  0  0  0  0  0  0  0  0  0
   -1.3129   -1.8734    1.1069 C   0  0  0  0  0  0  0  0  0  0  0  0
   -0.6096   -2.2781    2.0200 O   0  0  0  0  0  0  0  0  0  0  0  0
   -1.0664   -0.6397    0.5308 N   0  0  0  0  0  0  0  0  0  0  0  0
   -1.6952   -0.4123   -0.2330 H   0  0  0  0  0  0  0  0  0  0  0  0
    0.2838   -0.0478    0.4505 C   0  0  1  0  0  0  0  0  0  0  0  0
    0.3373    0.5615   -0.4567 H   0  0  0  0  0  0  0  0  0  0  0  0
    0.4345    0.8878    1.6585 C   0  0  0  0  0  0  0  0  0  0  0  0
    0.4263    0.3145    2.5915 H   0  0  0  0  0  0  0  0  0  0  0  0
    1.3714    1.4497    1.5968 H   0  0  0  0  0  0  0  0  0  0  0  0
   -0.3914    1.6052    1.6875 H   0  0  0  0  0  0  0  0  0  0  0  0
    1.4493   -1.0703    0.3442 C   0  0  0  0  0  0  0  0  0  0  0  0
    1.4204   -1.8936   -0.5637 O   0  0  0  0  0  0  0  0  0  0  0  0
    2.6040   -0.9522    1.0989 N   0  0  0  0  0  0  0  0  0  0  0  0
    2.5406   -0.3629    1.9229 H   0  0  0  0  0  0  0  0  0  0  0  0
    3.6899   -1.9218    1.0256 C   0  0  0  0  0  0  0  0  0  0  0  0
    4.0917   -1.9726    0.0082 H   0  0  0  0  0  0  0  0  0  0  0  0
    4.5006   -1.6328    1.7010 H   0  0  0  0  0  0  0  0  0  0  0  0
    3.3343   -2.9166    1.3142 H   0  0  0  0  0  0  0  0  0  0  0  0
  1  2  1  0  0  0  0
  2  3  1  0  0  0  0
  2  4  1  0  0  0  0
  2  5  1  0  0  0  0
  5  6  2  0  0  0  0
  5  7  1  0  0  0  0
  7  8  1  0  0  0  0
  7  9  1  0  0  0  0
  9 10  1  0  0  0  0
  9 11  1  0  0  0  0
  9 15  1  0  0  0  0
 11 12  1  0  0  0  0
 11 13  1  0  0  0  0
 11 14  1  0  0  0  0
 15 16  2  0  0  0  0
 15 17  1  0  0  0  0
 17 18  1  0  0  0  0
 17 19  1  0  0  0  0
 19 20  1  0  0  0  0
 19 21  1  0  0  0  0
 19 22  1  0  0  0  0
M  END
$$$$

  -OEChem-11182114133D

 22 21  0     1  0  0  0  0  0999 V2000
   -2.5975   -3.6020    1.2514 H   0  0  0  0  0  0  0  0  0  0  0  0
   -2.5472   -2.6600    0.6980 C   0  0  0  0  0  0  0  0  0  0  0  0
   -3.4393   -2.0707    0.9228 H   0  0  0  0  0  0  0  0  0  0  0  0
   -2.5237   -2.8829   -0.3715 H   0  0  0  0  0  0  0  0  0  0  0  0
   -1.3015   -1.8889    1.0917 C   0  0  0  0  0  0  0  0  0  0  0  0
   -0.5776   -2.3179    1.9769 O   0  0  0  0  0  0  0  0  0  0  0  0
   -1.0542   -0.6527    0.5223 N   0  0  0  0  0  0  0  0  0  0  0  0
   -1.6960   -0.4053   -0.2244 H   0  0  0  0  0  0  0  0  0  0  0  0
    0.2897   -0.0473    0.4466 C   0  0  1  0  0  0  0  0  0  0  0  0
    0.3416    0.5624   -0.4607 H   0  0  0  0  0  0  0  0  0  0  0  0
    0.4295    0.8906    1.6541 C   0  0  0  0  0  0  0  0  0  0  0  0
    0.3820    0.3243    2.5900 H   0  0  0  0  0  0  0  0  0  0  0  0
    1.3819    1.4284    1.6148 H   0  0  0  0  0  0  0  0  0  0  0  0
   -0.3794    1.6276    1.6568 H   0  0  0  0  0  0  0  0  0  0  0  0
    1.4628   -1.0594    0.3412 C   0  0  0  0  0  0  0  0  0  0  0  0
    1.5492   -1.7414   -0.6734 O   0  0  0  0  0  0  0  0  0  0  0  0
    2.4710   -1.1260    1.2871 N   0  0  0  0  0  0  0  0  0  0  0  0
    2.2571   -0.7028    2.1850 H   0  0  0  0  0  0  0  0  0  0  0  0
    3.5140   -2.1426    1.2411 C   0  0  0  0  0  0  0  0  0  0  0  0
    4.0688   -2.0824    0.2989 H   0  0  0  0  0  0  0  0  0  0  0  0
    4.2194   -1.9970    2.0646 H   0  0  0  0  0  0  0  0  0  0  0  0
    3.0766   -3.1427    1.3296 H   0  0  0  0  0  0  0  0  0  0  0  0
  1  2  1  0  0  0  0
  2  3  1  0  0  0  0
  2  4  1  0  0  0  0
  2  5  1  0  0  0  0
  5  6  2  0  0  0  0
  5  7  1  0  0  0  0
  7  8  1  0  0  0  0
  7  9  1  0  0  0  0
  9 10  1  0  0  0  0
  9 11  1  0  0  0  0
  9 15  1  0  0  0  0
 11 12  1  0  0  0  0
 11 13  1  0  0  0  0
 11 14  1  0  0  0  0
 15 16  2  0  0  0  0
 15 17  1  0  0  0  0
 17 18  1  0  0  0  0
 17 19  1  0  0  0  0
 19 20  1  0  0  0  0
 19 21  1  0  0  0  0
 19 22  1  0  0  0  0
M  END
$$$$

  -OEChem-11182114133D

 22 21  0     1  0  0  0  0  0999 V2000
   -2.6267   -3.5978    1.2380 H   0  0  0  0  0  0  0  0  0  0  0  0
   -2.5818   -2.6411    0.7100 C   0  0  0  0  0  0  0  0  0  0  0  0
   -3.4564   -2.0460    0.9837 H   0  0  0  0  0  0  0  0  0  0  0  0
   -2.6000   -2.8329   -0.3656 H   0  0  0  0  0  0  0  0  0  0  0  0
   -1.3115   -1.8998    1.0810 C   0  0  0  0  0  0  0  0  0  0  0  0
   -0.5819   -2.3483    1.9514 O   0  0  0  0  0  0  0  0  0  0  0  0
   -1.0460   -0.6690    0.5088 N   0  0  0  0  0  0  0  0  0  0  0  0
   -1.6967   -0.3979   -0.2221 H   0  0  0  0  0  0  0  0  0  0  0  0
    0.2990   -0.0648    0.4394 C   0  0  1  0  0  0  0  0  0  0  0  0
    0.3553    0.5413   -0.4704 H   0  0  0  0  0  0  0  0  0  0  0  0
    0.4350    0.8793    1.6417 C   0  0  0  0  0  0  0  0  0  0  0  0
    0.3458    0.3255    2.5818 H   0  0  0  0  0  0  0  0  0  0  0  0
    1.4052    1.3856    1.6225 H   0  0  0  0  0  0  0  0  0  0  0  0
   -0.3503    1.6406    1.6151 H   0  0  0  0  0  0  0  0  0  0  0  0
    1.4780   -1.0705    0.3490 C   0  0  0  0  0  0  0  0  0  0  0  0
    1.7259   -1.5764   -0.7389 O   0  0  0  0  0  0  0  0  0  0  0  0
    2.3009   -1.3403    1.4280 N   0  0  0  0  0  0  0  0  0  0  0  0
    1.8895   -1.1308    2.3338 H   0  0  0  0  0  0  0  0  0  0  0  0
    3.3294   -2.3713    1.3767 C   0  0  0  0  0  0  0  0  0  0  0  0
    4.0425   -2.1645    0.5719 H   0  0  0  0  0  0  0  0  0  0  0  0
    3.8794   -2.4027    2.3220 H   0  0  0  0  0  0  0  0  0  0  0  0
    2.8767   -3.3532    1.2033 H   0  0  0  0  0  0  0  0  0  0  0  0
  1  2  1  0  0  0  0
  2  3  1  0  0  0  0
  2  4  1  0  0  0  0
  2  5  1  0  0  0  0
  5  6  2  0  0  0  0
  5  7  1  0  0  0  0
  7  8  1  0  0  0  0
  7  9  1  0  0  0  0
  9 10  1  0  0  0  0
  9 11  1  0  0  0  0
  9 15  1  0  0  0  0
 11 12  1  0  0  0  0
 11 13  1  0  0  0  0
 11 14  1  0  0  0  0
 15 16  2  0  0  0  0
 15 17  1  0  0  0  0
 17 18  1  0  0  0  0
 17 19  1  0  0  0  0
 19 20  1  0  0  0  0
 19 21  1  0  0  0  0
 19 22  1  0  0  0  0
M  END
$$$$

  -OEChem-11182114133D

 22 21  0     1  0  0  0  0  0999 V2000
   -2.7038   -3.5780    1.2195 H   0  0  0  0  0  0  0  0  0  0  0  0
   -2.6444   -2.6092    0.7154 C   0  0  0  0  0  0  0  0  0  0  0  0
   -3.4961   -1.9981    1.0239 H   0  0  0  0  0  0  0  0  0  0  0  0
   -2.6924   -2.7732   -0.3639 H   0  0  0  0  0  0  0  0  0  0  0  0
   -1.3470   -1.9111    1.0766 C   0  0  0  0  0  0  0  0  0  0  0  0
   -0.6286   -2.3832    1.9436 O   0  0  0  0  0  0  0  0  0  0  0  0
   -1.0458   -0.6908    0.5006 N   0  0  0  0  0  0  0  0  0  0  0  0
   -1.7016   -0.3900   -0.2142 H   0  0  0  0  0  0  0  0  0  0  0  0
    0.3051   -0.0978    0.4338 C   0  0  1  0  0  0  0  0  0  0  0  0
    0.3647    0.5049   -0.4784 H   0  0  0  0  0  0  0  0  0  0  0  0
    0.4474    0.8497    1.6318 C   0  0  0  0  0  0  0  0  0  0  0  0
    0.3470    0.3022    2.5743 H   0  0  0  0  0  0  0  0  0  0  0  0
    1.4258    1.3402    1.6149 H   0  0  0  0  0  0  0  0  0  0  0  0
   -0.3266    1.6224    1.5981 H   0  0  0  0  0  0  0  0  0  0  0  0
    1.4923   -1.0949    0.3588 C   0  0  0  0  0  0  0  0  0  0  0  0
    1.9303   -1.3965   -0.7446 O   0  0  0  0  0  0  0  0  0  0  0  0
    2.1150   -1.5799    1.4942 N   0  0  0  0  0  0  0  0  0  0  0  0
    1.5110   -1.5842    2.3153 H   0  0  0  0  0  0  0  0  0  0  0  0
    3.1558   -2.5974    1.4276 C   0  0  0  0  0  0  0  0  0  0  0  0
    4.0030   -2.2436    0.8308 H   0  0  0  0  0  0  0  0  0  0  0  0
    3.5181   -2.8314    2.4332 H   0  0  0  0  0  0  0  0  0  0  0  0
    2.7644   -3.5151    0.9761 H   0  0  0  0  0  0  0  0  0  0  0  0
  1  2  1  0  0  0  0
  2  3  1  0  0  0  0
  2  4  1  0  0  0  0
  2  5  1  0  0  0  0
  5  6  2  0  0  0  0
  5  7  1  0  0  0  0
  7  8  1  0  0  0  0
  7  9  1  0  0  0  0
  9 10  1  0  0  0  0
  9 11  1  0  0  0  0
  9 15  1  0  0  0  0
 11 12  1  0  0  0  0
 11 13  1  0  0  0  0
 11 14  1  0  0  0  0
 15 16  2  0  0  0  0
 15 17  1  0  0  0  0
 17 18  1  0  0  0  0
 17 19  1  0  0  0  0
 19 20  1  0  0  0  0
 19 21  1  0  0  0  0
 19 22  1  0  0  0  0
M  END
$$$$

  -OEChem-11182114133D

 22 21  0     1  0  0  0  0  0999 V2000
   -2.8711   -3.5089    1.2316 H   0  0  0  0  0  0  0  0  0  0  0  0
   -2.7498   -2.5541    0.7119 C   0  0  0  0  0  0  0  0  0  0  0  0
   -3.5601   -1.8852    1.0113 H   0  0  0  0  0  0  0  0  0  0  0  0
   -2.8103   -2.7316   -0.3646 H   0  0  0  0  0  0  0  0  0  0  0  0
   -1.4099   -1.9346    1.0612 C   0  0  0  0  0  0  0  0  0  0  0  0
   -0.7128   -2.4574    1.9151 O   0  0  0  0  0  0  0  0  0  0  0  0
   -1.0529   -0.7275    0.4900 N   0  0  0  0  0  0  0  0  0  0  0  0
   -1.7173   -0.3739   -0.1920 H   0  0  0  0  0  0  0  0  0  0  0  0
    0.3063   -0.1483    0.4276 C   0  0  1  0  0  0  0  0  0  0  0  0
    0.3655    0.4580   -0.4824 H   0  0  0  0  0  0  0  0  0  0  0  0
    0.4510    0.7918    1.6299 C   0  0  0  0  0  0  0  0  0  0  0  0
    0.3657    0.2359    2.5691 H   0  0  0  0  0  0  0  0  0  0  0  0
    1.4256    1.2899    1.6075 H   0  0  0  0  0  0  0  0  0  0  0  0
   -0.3291    1.5588    1.6096 H   0  0  0  0  0  0  0  0  0  0  0  0
    1.5145   -1.1214    0.3649 C   0  0  0  0  0  0  0  0  0  0  0  0
    2.1416   -1.2030   -0.6839 O   0  0  0  0  0  0  0  0  0  0  0  0
    1.9542   -1.8265    1.4689 N   0  0  0  0  0  0  0  0  0  0  0  0
    1.2251   -1.9775    2.1696 H   0  0  0  0  0  0  0  0  0  0  0  0
    3.0226   -2.8136    1.3887 C   0  0  0  0  0  0  0  0  0  0  0  0
    3.9451   -2.3527    1.0207 H   0  0  0  0  0  0  0  0  0  0  0  0
    3.2202   -3.2351    2.3788 H   0  0  0  0  0  0  0  0  0  0  0  0
    2.7408   -3.6278    0.7131 H   0  0  0  0  0  0  0  0  0  0  0  0
  1  2  1  0  0  0  0
  2  3  1  0  0  0  0
  2  4  1  0  0  0  0
  2  5  1  0  0  0  0
  5  6  2  0  0  0  0
  5  7  1  0  0  0  0
  7  8  1  0  0  0  0
  7  9  1  0  0  0  0
  9 10  1  0  0  0  0
  9 11  1  0  0  0  0
  9 15  1  0  0  0  0
 11 12  1  0  0  0  0
 11 13  1  0  0  0  0
 11 14  1  0  0  0  0
 15 16  2  0  0  0  0
 15 17  1  0  0  0  0
 17 18  1  0  0  0  0
 17 19  1  0  0  0  0
 19 20  1  0  0  0  0
 19 21  1  0  0  0  0
 19 22  1  0  0  0  0
M  END
$$$$

  -OEChem-11182114133D

 22 21  0     1  0  0  0  0  0999 V2000
   -3.0518   -3.4262    1.2307 H   0  0  0  0  0  0  0  0  0  0  0  0
   -2.8707   -2.4831    0.7069 C   0  0  0  0  0  0  0  0  0  0  0  0
   -3.6320   -1.7606    1.0109 H   0  0  0  0  0  0  0  0  0  0  0  0
   -2.9520   -2.6591   -0.3685 H   0  0  0  0  0  0  0  0  0  0  0  0
   -1.4892   -1.9533    1.0435 C   0  0  0  0  0  0  0  0  0  0  0  0
   -0.8189   -2.5331    1.8803 O   0  0  0  0  0  0  0  0  0  0  0  0
   -1.0708   -0.7636    0.4773 N   0  0  0  0  0  0  0  0  0  0  0  0
   -1.7387   -0.3573   -0.1713 H   0  0  0  0  0  0  0  0  0  0  0  0
    0.2997   -0.2046    0.4167 C   0  0  1  0  0  0  0  0  0  0  0  0
    0.3589    0.4048   -0.4912 H   0  0  0  0  0  0  0  0  0  0  0  0
    0.4472    0.7279    1.6239 C   0  0  0  0  0  0  0  0  0  0  0  0
    0.3817    0.1610    2.5583 H   0  0  0  0  0  0  0  0  0  0  0  0
    1.4154    1.2382    1.5941 H   0  0  0  0  0  0  0  0  0  0  0  0
   -0.3418    1.4859    1.6212 H   0  0  0  0  0  0  0  0  0  0  0  0
    1.5299   -1.1532    0.3642 C   0  0  0  0  0  0  0  0  0  0  0  0
    2.3091   -1.0330   -0.5730 O   0  0  0  0  0  0  0  0  0  0  0  0
    1.8241   -2.0721    1.3520 N   0  0  0  0  0  0  0  0  0  0  0  0
    1.0404   -2.3020    1.9686 H   0  0  0  0  0  0  0  0  0  0  0  0
    2.9275   -3.0187    1.2594 C   0  0  0  0  0  0  0  0  0  0  0  0
    3.8781   -2.4896    1.1330 H   0  0  0  0  0  0  0  0  0  0  0  0
    2.9863   -3.6169    2.1737 H   0  0  0  0  0  0  0  0  0  0  0  0
    2.7830   -3.6940    0.4098 H   0  0  0  0  0  0  0  0  0  0  0  0
  1  2  1  0  0  0  0
  2  3  1  0  0  0  0
  2  4  1  0  0  0  0
  2  5  1  0  0  0  0
  5  6  2  0  0  0  0
  5  7  1  0  0  0  0
  7  8  1  0  0  0  0
  7  9  1  0  0  0  0
  9 10  1  0  0  0  0
  9 11  1  0  0  0  0
  9 15  1  0  0  0  0
 11 12  1  0  0  0  0
 11 13  1  0  0  0  0
 11 14  1  0  0  0  0
 15 16  2  0  0  0  0
 15 17  1  0  0  0  0
 17 18  1  0  0  0  0
 17 19  1  0  0  0  0
 19 20  1  0  0  0  0
 19 21  1  0  0  0  0
 19 22  1  0  0  0  0
M  END
$$$$

  -OEChem-11182114133D

 22 21  0     1  0  0  0  0  0999 V2000
   -3.1781   -3.3675    1.2052 H   0  0  0  0  0  0  0  0  0  0  0  0
   -2.9696   -2.4130    0.7135 C   0  0  0  0  0  0  0  0  0  0  0  0
   -3.6932   -1.6724    1.0628 H   0  0  0  0  0  0  0  0  0  0  0  0
   -3.0829   -2.5434   -0.3655 H   0  0  0  0  0  0  0  0  0  0  0  0
   -1.5599   -1.9537    1.0366 C   0  0  0  0  0  0  0  0  0  0  0  0
   -0.9110   -2.5741    1.8602 O   0  0  0  0  0  0  0  0  0  0  0  0
   -1.0956   -0.7798    0.4733 N   0  0  0  0  0  0  0  0  0  0  0  0
   -1.7626   -0.3340   -0.1496 H   0  0  0  0  0  0  0  0  0  0  0  0
    0.2874   -0.2494    0.4019 C   0  0  1  0  0  0  0  0  0  0  0  0
    0.3444    0.3637   -0.5035 H   0  0  0  0  0  0  0  0  0  0  0  0
    0.4536    0.6724    1.6142 C   0  0  0  0  0  0  0  0  0  0  0  0
    0.4111    0.0947    2.5434 H   0  0  0  0  0  0  0  0  0  0  0  0
    1.4178    1.1893    1.5703 H   0  0  0  0  0  0  0  0  0  0  0  0
   -0.3397    1.4258    1.6356 H   0  0  0  0  0  0  0  0  0  0  0  0
    1.5242   -1.1907    0.3396 C   0  0  0  0  0  0  0  0  0  0  0  0
    2.4164   -0.9035   -0.4487 O   0  0  0  0  0  0  0  0  0  0  0  0
    1.7019   -2.3025    1.1372 N   0  0  0  0  0  0  0  0  0  0  0  0
    0.9017   -2.5754    1.7131 H   0  0  0  0  0  0  0  0  0  0  0  0
    2.8430   -3.2030    1.0427 C   0  0  0  0  0  0  0  0  0  0  0  0
    3.7775   -2.6562    1.2062 H   0  0  0  0  0  0  0  0  0  0  0  0
    2.7659   -3.9878    1.8014 H   0  0  0  0  0  0  0  0  0  0  0  0
    2.8780   -3.6759    0.0559 H   0  0  0  0  0  0  0  0  0  0  0  0
  1  2  1  0  0  0  0
  2  3  1  0  0  0  0
  2  4  1  0  0  0  0
  2  5  1  0  0  0  0
  5  6  2  0  0  0  0
  5  7  1  0  0  0  0
  7  8  1  0  0  0  0
  7  9  1  0  0  0  0
  9 10  1  0  0  0  0
  9 11  1  0  0  0  0
  9 15  1  0  0  0  0
 11 12  1  0  0  0  0
 11 13  1  0  0  0  0
 11 14  1  0  0  0  0
 15 16  2  0  0  0  0
 15 17  1  0  0  0  0
 17 18  1  0  0  0  0
 17 19  1  0  0  0  0
 19 20  1  0  0  0  0
 19 21  1  0  0  0  0
 19 22  1  0  0  0  0
M  END
$$$$

  -OEChem-11182114133D

 22 21  0     1  0  0  0  0  0999 V2000
   -2.2994   -3.2085   -0.5318 H   0  0  0  0  0  0  0  0  0  0  0  0
   -2.4614   -2.9287    0.5118 C   0  0  0  0  0  0  0  0  0  0  0  0
   -3.3744   -2.3329    0.5861 H   0  0  0  0  0  0  0  0  0  0  0  0
   -2.5865   -3.8398    1.1039 H   0  0  0  0  0  0  0  0  0  0  0  0
   -1.2782   -2.1295    1.0253 C   0  0  0  0  0  0  0  0  0  0  0  0
   -0.7360   -2.4698    2.0597 O   0  0  0  0  0  0  0  0  0  0  0  0
   -0.9506   -0.9419    0.4036 N   0  0  0  0  0  0  0  0  0  0  0  0
   -1.5613   -0.7062   -0.3723 H   0  0  0  0  0  0  0  0  0  0  0  0
    0.3266   -0.1925    0.4524 C   0  0  1  0  0  0  0  0  0  0  0  0
    0.3999    0.3495   -0.4954 H   0  0  0  0  0  0  0  0  0  0  0  0
    0.1366    0.8348    1.5768 C   0  0  0  0  0  0  0  0  0  0  0  0
    0.0870    0.3298    2.5473 H   0  0  0  0  0  0  0  0  0  0  0  0
    0.9704    1.5439    1.5976 H   0  0  0  0  0  0  0  0  0  0  0  0
   -0.7882    1.4008    1.4302 H   0  0  0  0  0  0  0  0  0  0  0  0
    1.7337   -0.8494    0.6307 C   0  0  0  0  0  0  0  0  0  0  0  0
    2.7107   -0.1465    0.4198 O   0  0  0  0  0  0  0  0  0  0  0  0
    2.1078   -2.0004    1.2824 N   0  0  0  0  0  0  0  0  0  0  0  0
    3.0785   -1.9258    1.5736 H   0  0  0  0  0  0  0  0  0  0  0  0
    1.7556   -3.3040    0.7348 C   0  0  0  0  0  0  0  0  0  0  0  0
    2.6419   -3.7744    0.2978 H   0  0  0  0  0  0  0  0  0  0  0  0
    1.3723   -3.9561    1.5260 H   0  0  0  0  0  0  0  0  0  0  0  0
    0.9982   -3.2210   -0.0505 H   0  0  0  0  0  0  0  0  0  0  0  0
  1  2  1  0  0  0  0
  2  3  1  0  0  0  0
  2  4  1  0  0  0  0
  2  5  1  0  0  0  0
  5  6  2  0  0  0  0
  5  7  1  0  0  0  0
  7  8  1  0  0  0  0
  7  9  1  0  0  0  0
  9 10  1  0  0  0  0
  9 11  1  0  0  0  0
  9 15  1  0  0  0  0
 11 12  1  0  0  0  0
 11 13  1  0  0  0  0
 11 14  1  0  0  0  0
 15 16  2  0  0  0  0
 15 17  1  0  0  0  0
 17 18  1  0  0  0  0
 17 19  1  0  0  0  0
 19 20  1  0  0  0  0
 19 21  1  0  0  0  0
 19 22  1  0  0  0  0
M  END
$$$$

  -OEChem-11182114133D

 22 21  0     1  0  0  0  0  0999 V2000
   -2.9016   -3.6171    1.1570 H   0  0  0  0  0  0  0  0  0  0  0  0
   -2.8008   -2.5917    0.7898 C   0  0  0  0  0  0  0  0  0  0  0  0
   -3.5567   -1.9686    1.2738 H   0  0  0  0  0  0  0  0  0  0  0  0
   -2.9697   -2.5882   -0.2897 H   0  0  0  0  0  0  0  0  0  0  0  0
   -1.4135   -2.0602    1.0978 C   0  0  0  0  0  0  0  0  0  0  0  0
   -0.6738   -2.7133    1.8083 O   0  0  0  0  0  0  0  0  0  0  0  0
   -1.0996   -0.7627    0.7499 N   0  0  0  0  0  0  0  0  0  0  0  0
   -1.8712   -0.2849    0.2950 H   0  0  0  0  0  0  0  0  0  0  0  0
    0.2325   -0.1966    0.4355 C   0  0  1  0  0  0  0  0  0  0  0  0
    0.0608    0.6334   -0.2576 H   0  0  0  0  0  0  0  0  0  0  0  0
    0.7586    0.3865    1.7511 C   0  0  0  0  0  0  0  0  0  0  0  0
    0.9456   -0.4107    2.4776 H   0  0  0  0  0  0  0  0  0  0  0  0
    1.6939    0.9292    1.5809 H   0  0  0  0  0  0  0  0  0  0  0  0
    0.0309    1.0822    2.1798 H   0  0  0  0  0  0  0  0  0  0  0  0
    1.3779   -1.0362   -0.2098 C   0  0  0  0  0  0  0  0  0  0  0  0
    2.0826   -0.4711   -1.0320 O   0  0  0  0  0  0  0  0  0  0  0  0
    1.4970   -2.3997   -0.3336 N   0  0  0  0  0  0  0  0  0  0  0  0
    2.0084   -2.6065   -1.1873 H   0  0  0  0  0  0  0  0  0  0  0  0
    1.9829   -3.1627    0.8105 C   0  0  0  0  0  0  0  0  0  0  0  0
    1.8951   -2.5956    1.7431 H   0  0  0  0  0  0  0  0  0  0  0  0
    1.4146   -4.0925    0.9138 H   0  0  0  0  0  0  0  0  0  0  0  0
    3.0383   -3.4154    0.6692 H   0  0  0  0  0  0  0  0  0  0  0  0
  1  2  1  0  0  0  0
  2  3  1  0  0  0  0
  2  4  1  0  0  0  0
  2  5  1  0  0  0  0
  5  6  2  0  0  0  0
  5  7  1  0  0  0  0
  7  8  1  0  0  0  0
  7  9  1  0  0  0  0
  9 10  1  0  0  0  0
  9 11  1  0  0  0  0
  9 15  1  0  0  0  0
 11 12  1  0  0  0  0
 11 13  1  0  0  0  0
 11 14  1  0  0  0  0
 15 16  2  0  0  0  0
 15 17  1  0  0  0  0
 17 18  1  0  0  0  0
 17 19  1  0  0  0  0
 19 20  1  0  0  0  0
 19 21  1  0  0  0  0
 19 22  1  0  0  0  0
M  END
$$$$

  -OEChem-11182114133D

 22 21  0     1  0  0  0  0  0999 V2000
   -3.2527   -3.3012    1.2571 H   0  0  0  0  0  0  0  0  0  0  0  0
   -3.0432   -2.3276    0.8047 C   0  0  0  0  0  0  0  0  0  0  0  0
   -3.6701   -1.5739    1.2875 H   0  0  0  0  0  0  0  0  0  0  0  0
   -3.2930   -2.3742   -0.2581 H   0  0  0  0  0  0  0  0  0  0  0  0
   -1.5785   -1.9727    0.9797 C   0  0  0  0  0  0  0  0  0  0  0  0
   -0.8637   -2.7138    1.6304 O   0  0  0  0  0  0  0  0  0  0  0  0
   -1.1121   -0.7827    0.4541 N   0  0  0  0  0  0  0  0  0  0  0  0
   -1.8198   -0.2348   -0.0264 H   0  0  0  0  0  0  0  0  0  0  0  0
    0.2760   -0.2677    0.3551 C   0  0  1  0  0  0  0  0  0  0  0  0
    0.3118    0.3812   -0.5255 H   0  0  0  0  0  0  0  0  0  0  0  0
    0.4707    0.5989    1.6067 C   0  0  0  0  0  0  0  0  0  0  0  0
    0.4756   -0.0267    2.5053 H   0  0  0  0  0  0  0  0  0  0  0  0
    1.4209    1.1407    1.5568 H   0  0  0  0  0  0  0  0  0  0  0  0
   -0.3351    1.3336    1.6966 H   0  0  0  0  0  0  0  0  0  0  0  0
    1.5093   -1.2083    0.2043 C   0  0  0  0  0  0  0  0  0  0  0  0
    2.6007   -0.6880    0.0043 O   0  0  0  0  0  0  0  0  0  0  0  0
    1.4385   -2.5867    0.1490 N   0  0  0  0  0  0  0  0  0  0  0  0
    0.5933   -2.9848    0.5618 H   0  0  0  0  0  0  0  0  0  0  0  0
    2.6169   -3.4399    0.0608 C   0  0  0  0  0  0  0  0  0  0  0  0
    3.2689   -3.2841    0.9266 H   0  0  0  0  0  0  0  0  0  0  0  0
    2.3180   -4.4922    0.0355 H   0  0  0  0  0  0  0  0  0  0  0  0
    3.1823   -3.2213   -0.8512 H   0  0  0  0  0  0  0  0  0  0  0  0
  1  2  1  0  0  0  0
  2  3  1  0  0  0  0
  2  4  1  0  0  0  0
  2  5  1  0  0  0  0
  5  6  2  0  0  0  0
  5  7  1  0  0  0  0
  7  8  1  0  0  0  0
  7  9  1  0  0  0  0
  9 10  1  0  0  0  0
  9 11  1  0  0  0  0
  9 15  1  0  0  0  0
 11 12  1  0  0  0  0
 11 13  1  0  0  0  0
 11 14  1  0  0  0  0
 15 16  2  0  0  0  0
 15 17  1  0  0  0  0
 17 18  1  0  0  0  0
 17 19  1  0  0  0  0
 19 20  1  0  0  0  0
 19 21  1  0  0  0  0
 19 22  1  0  0  0  0
M  END
$$$$

  -OEChem-11182114133D

 22 21  0     1  0  0  0  0  0999 V2000
   -3.2002   -3.3167    1.2864 H   0  0  0  0  0  0  0  0  0  0  0  0
   -3.0088   -2.3367    0.8397 C   0  0  0  0  0  0  0  0  0  0  0  0
   -3.5959   -1.5871    1.3758 H   0  0  0  0  0  0  0  0  0  0  0  0
   -3.3262   -2.3598   -0.2055 H   0  0  0  0  0  0  0  0  0  0  0  0
   -1.5320   -1.9998    0.9280 C   0  0  0  0  0  0  0  0  0  0  0  0
   -0.7760   -2.7879    1.4663 O   0  0  0  0  0  0  0  0  0  0  0  0
   -1.0881   -0.7931    0.4208 N   0  0  0  0  0  0  0  0  0  0  0  0
   -1.8179   -0.2068    0.0265 H   0  0  0  0  0  0  0  0  0  0  0  0
    0.2916   -0.2535    0.3463 C   0  0  1  0  0  0  0  0  0  0  0  0
    0.3339    0.3982   -0.5318 H   0  0  0  0  0  0  0  0  0  0  0  0
    0.4483    0.6135    1.6041 C   0  0  0  0  0  0  0  0  0  0  0  0
    0.4515   -0.0151    2.5006 H   0  0  0  0  0  0  0  0  0  0  0  0
    1.3870    1.1760    1.5727 H   0  0  0  0  0  0  0  0  0  0  0  0
   -0.3738    1.3313    1.6829 H   0  0  0  0  0  0  0  0  0  0  0  0
    1.5291   -1.1898    0.2015 C   0  0  0  0  0  0  0  0  0  0  0  0
    2.6469   -0.6877    0.2312 O   0  0  0  0  0  0  0  0  0  0  0  0
    1.4305   -2.5188   -0.1642 N   0  0  0  0  0  0  0  0  0  0  0  0
    0.5522   -2.9556    0.1189 H   0  0  0  0  0  0  0  0  0  0  0  0
    2.5963   -3.3845   -0.2930 C   0  0  0  0  0  0  0  0  0  0  0  0
    3.1341   -3.4484    0.6588 H   0  0  0  0  0  0  0  0  0  0  0  0
    2.2854   -4.3920   -0.5852 H   0  0  0  0  0  0  0  0  0  0  0  0
    3.2778   -2.9996   -1.0589 H   0  0  0  0  0  0  0  0  0  0  0  0
  1  2  1  0  0  0  0
  2  3  1  0  0  0  0
  2  4  1  0  0  0  0
  2  5  1  0  0  0  0
  5  6  2  0  0  0  0
  5  7  1  0  0  0  0
  7  8  1  0  0  0  0
  7  9  1  0  0  0  0
  9 10  1  0  0  0  0
  9 11  1  0  0  0  0
  9 15  1  0  0  0  0
 11 12  1  0  0  0  0
 11 13  1  0  0  0  0
 11 14  1  0  0  0  0
 15 16  2  0  0  0  0
 15 17  1  0  0  0  0
 17 18  1  0  0  0  0
 17 19  1  0  0  0  0
 19 20  1  0  0  0  0
 19 21  1  0  0  0  0
 19 22  1  0  0  0  0
M  END
$$$$

  -OEChem-11182114133D

 22 21  0     1  0  0  0  0  0999 V2000
   -3.1192   -3.3455    1.3112 H   0  0  0  0  0  0  0  0  0  0  0  0
   -2.9536   -2.3589    0.8688 C   0  0  0  0  0  0  0  0  0  0  0  0
   -3.5037   -1.6171    1.4529 H   0  0  0  0  0  0  0  0  0  0  0  0
   -3.3357   -2.3640   -0.1549 H   0  0  0  0  0  0  0  0  0  0  0  0
   -1.4731   -2.0271    0.8694 C   0  0  0  0  0  0  0  0  0  0  0  0
   -0.6804   -2.8505    1.2876 O   0  0  0  0  0  0  0  0  0  0  0  0
   -1.0596   -0.8012    0.3828 N   0  0  0  0  0  0  0  0  0  0  0  0
   -1.8107   -0.1868    0.0826 H   0  0  0  0  0  0  0  0  0  0  0  0
    0.3091   -0.2334    0.3413 C   0  0  1  0  0  0  0  0  0  0  0  0
    0.3604    0.4209   -0.5340 H   0  0  0  0  0  0  0  0  0  0  0  0
    0.4266    0.6339    1.6040 C   0  0  0  0  0  0  0  0  0  0  0  0
    0.4409    0.0022    2.4983 H   0  0  0  0  0  0  0  0  0  0  0  0
    1.3478    1.2252    1.5830 H   0  0  0  0  0  0  0  0  0  0  0  0
   -0.4174    1.3261    1.6774 H   0  0  0  0  0  0  0  0  0  0  0  0
    1.5464   -1.1706    0.2084 C   0  0  0  0  0  0  0  0  0  0  0  0
    2.6601   -0.7414    0.4888 O   0  0  0  0  0  0  0  0  0  0  0  0
    1.4639   -2.3793   -0.4576 N   0  0  0  0  0  0  0  0  0  0  0  0
    0.5518   -2.8240   -0.3618 H   0  0  0  0  0  0  0  0  0  0  0  0
    2.6160   -3.2596   -0.6105 C   0  0  0  0  0  0  0  0  0  0  0  0
    2.9997   -3.5623    0.3693 H   0  0  0  0  0  0  0  0  0  0  0  0
    2.3310   -4.1584   -1.1655 H   0  0  0  0  0  0  0  0  0  0  0  0
    3.4160   -2.7549   -1.1621 H   0  0  0  0  0  0  0  0  0  0  0  0
  1  2  1  0  0  0  0
  2  3  1  0  0  0  0
  2  4  1  0  0  0  0
  2  5  1  0  0  0  0
  5  6  2  0  0  0  0
  5  7  1  0  0  0  0
  7  8  1  0  0  0  0
  7  9  1  0  0  0  0
  9 10  1  0  0  0  0
  9 11  1  0  0  0  0
  9 15  1  0  0  0  0
 11 12  1  0  0  0  0
 11 13  1  0  0  0  0
 11 14  1  0  0  0  0
 15 16  2  0  0  0  0
 15 17  1  0  0  0  0
 17 18  1  0  0  0  0
 17 19  1  0  0  0  0
 19 20  1  0  0  0  0
 19 21  1  0  0  0  0
 19 22  1  0  0  0  0
M  END
$$$$

  -OEChem-11182114133D

 22 21  0     1  0  0  0  0  0999 V2000
   -3.0087   -3.4010    1.3115 H   0  0  0  0  0  0  0  0  0  0  0  0
   -2.8769   -2.4055    0.8777 C   0  0  0  0  0  0  0  0  0  0  0  0
   -3.4213   -1.6827    1.4903 H   0  0  0  0  0  0  0  0  0  0  0  0
   -3.2928   -2.4046   -0.1328 H   0  0  0  0  0  0  0  0  0  0  0  0
   -1.4037   -2.0444    0.8338 C   0  0  0  0  0  0  0  0  0  0  0  0
   -0.5805   -2.8652    1.1934 O   0  0  0  0  0  0  0  0  0  0  0  0
   -1.0310   -0.8000    0.3594 N   0  0  0  0  0  0  0  0  0  0  0  0
   -1.8023   -0.1838    0.1206 H   0  0  0  0  0  0  0  0  0  0  0  0
    0.3240   -0.2020    0.3410 C   0  0  1  0  0  0  0  0  0  0  0  0
    0.3805    0.4578   -0.5298 H   0  0  0  0  0  0  0  0  0  0  0  0
    0.4140    0.6631    1.6072 C   0  0  0  0  0  0  0  0  0  0  0  0
    0.4282    0.0294    2.5001 H   0  0  0  0  0  0  0  0  0  0  0  0
    1.3272    1.2668    1.5967 H   0  0  0  0  0  0  0  0  0  0  0  0
   -0.4408    1.3425    1.6733 H   0  0  0  0  0  0  0  0  0  0  0  0
    1.5565   -1.1438    0.2143 C   0  0  0  0  0  0  0  0  0  0  0  0
    2.6226   -0.8510    0.7446 O   0  0  0  0  0  0  0  0  0  0  0  0
    1.5434   -2.1711   -0.7117 N   0  0  0  0  0  0  0  0  0  0  0  0
    0.6151   -2.5346   -0.9081 H   0  0  0  0  0  0  0  0  0  0  0  0
    2.6659   -3.0891   -0.8609 C   0  0  0  0  0  0  0  0  0  0  0  0
    2.8495   -3.6237    0.0771 H   0  0  0  0  0  0  0  0  0  0  0  0
    2.4512   -3.8231   -1.6431 H   0  0  0  0  0  0  0  0  0  0  0  0
    3.5739   -2.5446   -1.1407 H   0  0  0  0  0  0  0  0  0  0  0  0
  1  2  1  0  0  0  0
  2  3  1  0  0  0  0
  2  4  1  0  0  0  0
  2  5  1  0  0  0  0
  5  6  2  0  0  0  0
  5  7  1  0  0  0  0
  7  8  1  0  0  0  0
  7  9  1  0  0  0  0
  9 10  1  0  0  0  0
  9 11  1  0  0  0  0
  9 15  1  0  0  0  0
 11 12  1  0  0  0  0
 11 13  1  0  0  0  0
 11 14  1  0  0  0  0
 15 16  2  0  0  0  0
 15 17  1  0  0  0  0
 17 18  1  0  0  0  0
 17 19  1  0  0  0  0
 19 20  1  0  0  0  0
 19 21  1  0  0  0  0
 19 22  1  0  0  0  0
M  END
$$$$

  -OEChem-11182114133D

 22 21  0     1  0  0  0  0  0999 V2000
   -2.9401   -3.4353    1.3149 H   0  0  0  0  0  0  0  0  0  0  0  0
   -2.8274   -2.4372    0.8821 C   0  0  0  0  0  0  0  0  0  0  0  0
   -3.3703   -1.7225    1.5051 H   0  0  0  0  0  0  0  0  0  0  0  0
   -3.2591   -2.4386   -0.1215 H   0  0  0  0  0  0  0  0  0  0  0  0
   -1.3596   -2.0585    0.8158 C   0  0  0  0  0  0  0  0  0  0  0  0
   -0.5215   -2.8742    1.1509 O   0  0  0  0  0  0  0  0  0  0  0  0
   -1.0124   -0.8047    0.3450 N   0  0  0  0  0  0  0  0  0  0  0  0
   -1.7957   -0.1918    0.1399 H   0  0  0  0  0  0  0  0  0  0  0  0
    0.3322   -0.1867    0.3438 C   0  0  1  0  0  0  0  0  0  0  0  0
    0.3944    0.4738   -0.5260 H   0  0  0  0  0  0  0  0  0  0  0  0
    0.4008    0.6827    1.6085 C   0  0  0  0  0  0  0  0  0  0  0  0
    0.3884    0.0529    2.5044 H   0  0  0  0  0  0  0  0  0  0  0  0
    1.3210    1.2760    1.6157 H   0  0  0  0  0  0  0  0  0  0  0  0
   -0.4492    1.3702    1.6518 H   0  0  0  0  0  0  0  0  0  0  0  0
    1.5623   -1.1315    0.2292 C   0  0  0  0  0  0  0  0  0  0  0  0
    2.5355   -1.0025    0.9639 O   0  0  0  0  0  0  0  0  0  0  0  0
    1.6817   -1.9401   -0.8869 N   0  0  0  0  0  0  0  0  0  0  0  0
    0.8070   -2.1598   -1.3524 H   0  0  0  0  0  0  0  0  0  0  0  0
    2.7922   -2.8695   -1.0537 C   0  0  0  0  0  0  0  0  0  0  0  0
    2.8106   -3.5935   -0.2321 H   0  0  0  0  0  0  0  0  0  0  0  0
    2.6901   -3.4150   -1.9966 H   0  0  0  0  0  0  0  0  0  0  0  0
    3.7454   -2.3307   -1.0703 H   0  0  0  0  0  0  0  0  0  0  0  0
  1  2  1  0  0  0  0
  2  3  1  0  0  0  0
  2  4  1  0  0  0  0
  2  5  1  0  0  0  0
  5  6  2  0  0  0  0
  5  7  1  0  0  0  0
  7  8  1  0  0  0  0
  7  9  1  0  0  0  0
  9 10  1  0  0  0  0
  9 11  1  0  0  0  0
  9 15  1  0  0  0  0
 11 12  1  0  0  0  0
 11 13  1  0  0  0  0
 11 14  1  0  0  0  0
 15 16  2  0  0  0  0
 15 17  1  0  0  0  0
 17 18  1  0  0  0  0
 17 19  1  0  0  0  0
 19 20  1  0  0  0  0
 19 21  1  0  0  0  0
 19 22  1  0  0  0  0
M  END
$$$$

  -OEChem-11182114133D

 22 21  0     1  0  0  0  0  0999 V2000
   -2.9304   -3.4375    1.3374 H   0  0  0  0  0  0  0  0  0  0  0  0
   -2.8213   -2.4414    0.8985 C   0  0  0  0  0  0  0  0  0  0  0  0
   -3.3481   -1.7217    1.5296 H   0  0  0  0  0  0  0  0  0  0  0  0
   -3.2727   -2.4438   -0.0964 H   0  0  0  0  0  0  0  0  0  0  0  0
   -1.3529   -2.0710    0.8022 C   0  0  0  0  0  0  0  0  0  0  0  0
   -0.5145   -2.8967    1.1100 O   0  0  0  0  0  0  0  0  0  0  0  0
   -1.0089   -0.8161    0.3310 N   0  0  0  0  0  0  0  0  0  0  0  0
   -1.7946   -0.1992    0.1495 H   0  0  0  0  0  0  0  0  0  0  0  0
    0.3334   -0.1948    0.3408 C   0  0  1  0  0  0  0  0  0  0  0  0
    0.4028    0.4667   -0.5277 H   0  0  0  0  0  0  0  0  0  0  0  0
    0.3898    0.6777    1.6037 C   0  0  0  0  0  0  0  0  0  0  0  0
    0.3325    0.0533    2.5017 H   0  0  0  0  0  0  0  0  0  0  0  0
    1.3266    1.2433    1.6359 H   0  0  0  0  0  0  0  0  0  0  0  0
   -0.4411    1.3891    1.6186 H   0  0  0  0  0  0  0  0  0  0  0  0
    1.5643   -1.1403    0.2397 C   0  0  0  0  0  0  0  0  0  0  0  0
    2.4167   -1.1796    1.1203 O   0  0  0  0  0  0  0  0  0  0  0  0
    1.8631   -1.7100   -0.9855 N   0  0  0  0  0  0  0  0  0  0  0  0
    1.0926   -1.7732   -1.6427 H   0  0  0  0  0  0  0  0  0  0  0  0
    3.0029   -2.5993   -1.1745 C   0  0  0  0  0  0  0  0  0  0  0  0
    2.9204   -3.4710   -0.5165 H   0  0  0  0  0  0  0  0  0  0  0  0
    3.0426   -2.9478   -2.2108 H   0  0  0  0  0  0  0  0  0  0  0  0
    3.9392   -2.0768   -0.9520 H   0  0  0  0  0  0  0  0  0  0  0  0
  1  2  1  0  0  0  0
  2  3  1  0  0  0  0
  2  4  1  0  0  0  0
  2  5  1  0  0  0  0
  5  6  2  0  0  0  0
  5  7  1  0  0  0  0
  7  8  1  0  0  0  0
  7  9  1  0  0  0  0
  9 10  1  0  0  0  0
  9 11  1  0  0  0  0
  9 15  1  0  0  0  0
 11 12  1  0  0  0  0
 11 13  1  0  0  0  0
 11 14  1  0  0  0  0
 15 16  2  0  0  0  0
 15 17  1  0  0  0  0
 17 18  1  0  0  0  0
 17 19  1  0  0  0  0
 19 20  1  0  0  0  0
 19 21  1  0  0  0  0
 19 22  1  0  0  0  0
M  END
$$$$

  -OEChem-11182114133D

 22 21  0     1  0  0  0  0  0999 V2000
   -2.9469   -3.4291    1.3571 H   0  0  0  0  0  0  0  0  0  0  0  0
   -2.8335   -2.4354    0.9141 C   0  0  0  0  0  0  0  0  0  0  0  0
   -3.3391   -1.7075    1.5532 H   0  0  0  0  0  0  0  0  0  0  0  0
   -3.3027   -2.4347   -0.0726 H   0  0  0  0  0  0  0  0  0  0  0  0
   -1.3625   -2.0846    0.7899 C   0  0  0  0  0  0  0  0  0  0  0  0
   -0.5315   -2.9293    1.0622 O   0  0  0  0  0  0  0  0  0  0  0  0
   -1.0129   -0.8314    0.3182 N   0  0  0  0  0  0  0  0  0  0  0  0
   -1.7972   -0.2062    0.1619 H   0  0  0  0  0  0  0  0  0  0  0  0
    0.3304   -0.2132    0.3319 C   0  0  1  0  0  0  0  0  0  0  0  0
    0.4004    0.4507   -0.5347 H   0  0  0  0  0  0  0  0  0  0  0  0
    0.3883    0.6585    1.5947 C   0  0  0  0  0  0  0  0  0  0  0  0
    0.3068    0.0367    2.4927 H   0  0  0  0  0  0  0  0  0  0  0  0
    1.3366    1.2039    1.6379 H   0  0  0  0  0  0  0  0  0  0  0  0
   -0.4282    1.3864    1.5988 H   0  0  0  0  0  0  0  0  0  0  0  0
    1.5650   -1.1553    0.2383 C   0  0  0  0  0  0  0  0  0  0  0  0
    2.2845   -1.3647    1.2089 O   0  0  0  0  0  0  0  0  0  0  0  0
    2.0617   -1.4756   -1.0136 N   0  0  0  0  0  0  0  0  0  0  0  0
    1.4190   -1.3759   -1.7923 H   0  0  0  0  0  0  0  0  0  0  0  0
    3.2477   -2.3038   -1.1972 C   0  0  0  0  0  0  0  0  0  0  0  0
    3.1082   -3.2818   -0.7243 H   0  0  0  0  0  0  0  0  0  0  0  0
    3.4404   -2.4575   -2.2631 H   0  0  0  0  0  0  0  0  0  0  0  0
    4.1253   -1.8207   -0.7550 H   0  0  0  0  0  0  0  0  0  0  0  0
  1  2  1  0  0  0  0
  2  3  1  0  0  0  0
  2  4  1  0  0  0  0
  2  5  1  0  0  0  0
  5  6  2  0  0  0  0
  5  7  1  0  0  0  0
  7  8  1  0  0  0  0
  7  9  1  0  0  0  0
  9 10  1  0  0  0  0
  9 11  1  0  0  0  0
  9 15  1  0  0  0  0
 11 12  1  0  0  0  0
 11 13  1  0  0  0  0
 11 14  1  0  0  0  0
 15 16  2  0  0  0  0
 15 17  1  0  0  0  0
 17 18  1  0  0  0  0
 17 19  1  0  0  0  0
 19 20  1  0  0  0  0
 19 21  1  0  0  0  0
 19 22  1  0  0  0  0
M  END
$$$$

  -OEChem-11182114133D

 22 21  0     1  0  0  0  0  0999 V2000
   -2.9784   -3.4370    1.3253 H   0  0  0  0  0  0  0  0  0  0  0  0
   -2.8546   -2.4211    0.9389 C   0  0  0  0  0  0  0  0  0  0  0  0
   -3.3124   -1.7213    1.6420 H   0  0  0  0  0  0  0  0  0  0  0  0
   -3.3639   -2.3474   -0.0248 H   0  0  0  0  0  0  0  0  0  0  0  0
   -1.3802   -2.1017    0.7740 C   0  0  0  0  0  0  0  0  0  0  0  0
   -0.5628   -2.9702    1.0074 O   0  0  0  0  0  0  0  0  0  0  0  0
   -1.0192   -0.8534    0.2979 N   0  0  0  0  0  0  0  0  0  0  0  0
   -1.7996   -0.2194    0.1599 H   0  0  0  0  0  0  0  0  0  0  0  0
    0.3268   -0.2405    0.3120 C   0  0  1  0  0  0  0  0  0  0  0  0
    0.3937    0.4225   -0.5553 H   0  0  0  0  0  0  0  0  0  0  0  0
    0.3890    0.6331    1.5727 C   0  0  0  0  0  0  0  0  0  0  0  0
    0.3076    0.0129    2.4720 H   0  0  0  0  0  0  0  0  0  0  0  0
    1.3391    1.1754    1.6126 H   0  0  0  0  0  0  0  0  0  0  0  0
   -0.4258    1.3631    1.5778 H   0  0  0  0  0  0  0  0  0  0  0  0
    1.5700   -1.1732    0.2285 C   0  0  0  0  0  0  0  0  0  0  0  0
    2.1539   -1.5463    1.2398 O   0  0  0  0  0  0  0  0  0  0  0  0
    2.2651   -1.2492   -0.9671 N   0  0  0  0  0  0  0  0  0  0  0  0
    1.7634   -0.9765   -1.8054 H   0  0  0  0  0  0  0  0  0  0  0  0
    3.5014   -2.0091   -1.1145 C   0  0  0  0  0  0  0  0  0  0  0  0
    3.3386   -3.0596   -0.8510 H   0  0  0  0  0  0  0  0  0  0  0  0
    3.8536   -1.9617   -2.1492 H   0  0  0  0  0  0  0  0  0  0  0  0
    4.2833   -1.6003   -0.4658 H   0  0  0  0  0  0  0  0  0  0  0  0
  1  2  1  0  0  0  0
  2  3  1  0  0  0  0
  2  4  1  0  0  0  0
  2  5  1  0  0  0  0
  5  6  2  0  0  0  0
  5  7  1  0  0  0  0
  7  8  1  0  0  0  0
  7  9  1  0  0  0  0
  9 10  1  0  0  0  0
  9 11  1  0  0  0  0
  9 15  1  0  0  0  0
 11 12  1  0  0  0  0
 11 13  1  0  0  0  0
 11 14  1  0  0  0  0
 15 16  2  0  0  0  0
 15 17  1  0  0  0  0
 17 18  1  0  0  0  0
 17 19  1  0  0  0  0
 19 20  1  0  0  0  0
 19 21  1  0  0  0  0
 19 22  1  0  0  0  0
M  END
$$$$

  -OEChem-11182114133D

 22 21  0     1  0  0  0  0  0999 V2000
   -3.0242   -3.3977    1.3820 H   0  0  0  0  0  0  0  0  0  0  0  0
   -2.8829   -2.4013    0.9536 C   0  0  0  0  0  0  0  0  0  0  0  0
   -3.3197   -1.6646    1.6318 H   0  0  0  0  0  0  0  0  0  0  0  0
   -3.3989   -2.3552   -0.0082 H   0  0  0  0  0  0  0  0  0  0  0  0
   -1.4038   -2.1204    0.7626 C   0  0  0  0  0  0  0  0  0  0  0  0
   -0.6098   -3.0185    0.9577 O   0  0  0  0  0  0  0  0  0  0  0  0
   -1.0224   -0.8789    0.2850 N   0  0  0  0  0  0  0  0  0  0  0  0
   -1.7945   -0.2322    0.1618 H   0  0  0  0  0  0  0  0  0  0  0  0
    0.3292   -0.2771    0.2946 C   0  0  1  0  0  0  0  0  0  0  0  0
    0.3908    0.3860   -0.5727 H   0  0  0  0  0  0  0  0  0  0  0  0
    0.4024    0.5925    1.5567 C   0  0  0  0  0  0  0  0  0  0  0  0
    0.3148   -0.0288    2.4545 H   0  0  0  0  0  0  0  0  0  0  0  0
    1.3582    1.1243    1.5978 H   0  0  0  0  0  0  0  0  0  0  0  0
   -0.4044    1.3311    1.5639 H   0  0  0  0  0  0  0  0  0  0  0  0
    1.5812   -1.1984    0.2137 C   0  0  0  0  0  0  0  0  0  0  0  0
    2.0423   -1.7341    1.2145 O   0  0  0  0  0  0  0  0  0  0  0  0
    2.4492   -1.0386   -0.8546 N   0  0  0  0  0  0  0  0  0  0  0  0
    2.0838   -0.5828   -1.6839 H   0  0  0  0  0  0  0  0  0  0  0  0
    3.7343   -1.7233   -0.9450 C   0  0  0  0  0  0  0  0  0  0  0  0
    3.5964   -2.8074   -0.8718 H   0  0  0  0  0  0  0  0  0  0  0  0
    4.2161   -1.4996   -1.9016 H   0  0  0  0  0  0  0  0  0  0  0  0
    4.4001   -1.3977   -0.1388 H   0  0  0  0  0  0  0  0  0  0  0  0
  1  2  1  0  0  0  0
  2  3  1  0  0  0  0
  2  4  1  0  0  0  0
  2  5  1  0  0  0  0
  5  6  2  0  0  0  0
  5  7  1  0  0  0  0
  7  8  1  0  0  0  0
  7  9  1  0  0  0  0
  9 10  1  0  0  0  0
  9 11  1  0  0  0  0
  9 15  1  0  0  0  0
 11 12  1  0  0  0  0
 11 13  1  0  0  0  0
 11 14  1  0  0  0  0
 15 16  2  0  0  0  0
 15 17  1  0  0  0  0
 17 18  1  0  0  0  0
 17 19  1  0  0  0  0
 19 20  1  0  0  0  0
 19 21  1  0  0  0  0
 19 22  1  0  0  0  0
M  END
$$$$

  -OEChem-11182114133D

 22 21  0     1  0  0  0  0  0999 V2000
   -3.0923   -3.3730    1.3839 H   0  0  0  0  0  0  0  0  0  0  0  0
   -2.9205   -2.3726    0.9762 C   0  0  0  0  0  0  0  0  0  0  0  0
   -3.3153   -1.6359    1.6798 H   0  0  0  0  0  0  0  0  0  0  0  0
   -3.4525   -2.2843    0.0260 H   0  0  0  0  0  0  0  0  0  0  0  0
   -1.4352   -2.1434    0.7632 C   0  0  0  0  0  0  0  0  0  0  0  0
   -0.6746   -3.0709    0.9476 O   0  0  0  0  0  0  0  0  0  0  0  0
   -1.0243   -0.9161    0.2733 N   0  0  0  0  0  0  0  0  0  0  0  0
   -1.7857   -0.2576    0.1479 H   0  0  0  0  0  0  0  0  0  0  0  0
    0.3352   -0.3291    0.2662 C   0  0  1  0  0  0  0  0  0  0  0  0
    0.3873    0.3257   -0.6080 H   0  0  0  0  0  0  0  0  0  0  0  0
    0.4272    0.5454    1.5233 C   0  0  0  0  0  0  0  0  0  0  0  0
    0.3518   -0.0729    2.4244 H   0  0  0  0  0  0  0  0  0  0  0  0
    1.3843    1.0761    1.5496 H   0  0  0  0  0  0  0  0  0  0  0  0
   -0.3783    1.2854    1.5395 H   0  0  0  0  0  0  0  0  0  0  0  0
    1.6001   -1.2337    0.1892 C   0  0  0  0  0  0  0  0  0  0  0  0
    1.9515   -1.9318    1.1310 O   0  0  0  0  0  0  0  0  0  0  0  0
    2.6053   -0.8663   -0.6923 N   0  0  0  0  0  0  0  0  0  0  0  0
    2.3592   -0.2312   -1.4439 H   0  0  0  0  0  0  0  0  0  0  0  0
    3.9381   -1.4604   -0.6870 C   0  0  0  0  0  0  0  0  0  0  0  0
    3.8748   -2.5439   -0.8337 H   0  0  0  0  0  0  0  0  0  0  0  0
    4.5448   -1.0365   -1.4929 H   0  0  0  0  0  0  0  0  0  0  0  0
    4.4424   -1.2620    0.2648 H   0  0  0  0  0  0  0  0  0  0  0  0
  1  2  1  0  0  0  0
  2  3  1  0  0  0  0
  2  4  1  0  0  0  0
  2  5  1  0  0  0  0
  5  6  2  0  0  0  0
  5  7  1  0  0  0  0
  7  8  1  0  0  0  0
  7  9  1  0  0  0  0
  9 10  1  0  0  0  0
  9 11  1  0  0  0  0
  9 15  1  0  0  0  0
 11 12  1  0  0  0  0
 11 13  1  0  0  0  0
 11 14  1  0  0  0  0
 15 16  2  0  0  0  0
 15 17  1  0  0  0  0
 17 18  1  0  0  0  0
 17 19  1  0  0  0  0
 19 20  1  0  0  0  0
 19 21  1  0  0  0  0
 19 22  1  0  0  0  0
M  END
$$$$

  -OEChem-11182114133D

 22 21  0     1  0  0  0  0  0999 V2000
   -2.6977   -3.5727    1.2372 H   0  0  0  0  0  0  0  0  0  0  0  0
   -2.5634   -2.6674    0.6384 C   0  0  0  0  0  0  0  0  0  0  0  0
   -3.4850   -2.0817    0.6721 H   0  0  0  0  0  0  0  0  0  0  0  0
   -2.3579   -2.9590   -0.3942 H   0  0  0  0  0  0  0  0  0  0  0  0
   -1.4067   -1.8515    1.1841 C   0  0  0  0  0  0  0  0  0  0  0  0
   -0.9269   -2.1387    2.2680 O   0  0  0  0  0  0  0  0  0  0  0  0
   -1.0727   -0.6501    0.5856 N   0  0  0  0  0  0  0  0  0  0  0  0
   -1.6605   -0.4438   -0.2149 H   0  0  0  0  0  0  0  0  0  0  0  0
    0.3104   -0.1334    0.4828 C   0  0  1  0  0  0  0  0  0  0  0  0
    0.3483    0.4808   -0.4215 H   0  0  0  0  0  0  0  0  0  0  0  0
    0.5314    0.7833    1.6910 C   0  0  0  0  0  0  0  0  0  0  0  0
    0.5213    0.2002    2.6181 H   0  0  0  0  0  0  0  0  0  0  0  0
    1.4943    1.2974    1.6158 H   0  0  0  0  0  0  0  0  0  0  0  0
   -0.2593    1.5377    1.7483 H   0  0  0  0  0  0  0  0  0  0  0  0
    1.5122   -1.1209    0.3789 C   0  0  0  0  0  0  0  0  0  0  0  0
    1.4184   -2.3278    0.5491 O   0  0  0  0  0  0  0  0  0  0  0  0
    2.6323   -0.6925   -0.3160 N   0  0  0  0  0  0  0  0  0  0  0  0
    2.7099    0.3000   -0.5126 H   0  0  0  0  0  0  0  0  0  0  0  0
    3.7585   -1.5602   -0.6460 C   0  0  0  0  0  0  0  0  0  0  0  0
    3.4411   -2.3594   -1.3240 H   0  0  0  0  0  0  0  0  0  0  0  0
    4.5490   -0.9845   -1.1369 H   0  0  0  0  0  0  0  0  0  0  0  0
    4.1734   -2.0126    0.2611 H   0  0  0  0  0  0  0  0  0  0  0  0
  1  2  1  0  0  0  0
  2  3  1  0  0  0  0
  2  4  1  0  0  0  0
  2  5  1  0  0  0  0
  5  6  2  0  0  0  0
  5  7  1  0  0  0  0
  7  8  1  0  0  0  0
  7  9  1  0  0  0  0
  9 10  1  0  0  0  0
  9 11  1  0  0  0  0
  9 15  1  0  0  0  0
 11 12  1  0  0  0  0
 11 13  1  0  0  0  0
 11 14  1  0  0  0  0
 15 16  2  0  0  0  0
 15 17  1  0  0  0  0
 17 18  1  0  0  0  0
 17 19  1  0  0  0  0
 19 20  1  0  0  0  0
 19 21  1  0  0  0  0
 19 22  1  0  0  0  0
M  END
$$$$

  -OEChem-11182114133D

 22 21  0     1  0  0  0  0  0999 V2000
   -2.6972   -3.5686    1.2533 H   0  0  0  0  0  0  0  0  0  0  0  0
   -2.5783   -2.6597    0.6568 C   0  0  0  0  0  0  0  0  0  0  0  0
   -3.4935   -2.0678    0.7286 H   0  0  0  0  0  0  0  0  0  0  0  0
   -2.4132   -2.9444   -0.3850 H   0  0  0  0  0  0  0  0  0  0  0  0
   -1.3964   -1.8559    1.1654 C   0  0  0  0  0  0  0  0  0  0  0  0
   -0.8570   -2.1703    2.2144 O   0  0  0  0  0  0  0  0  0  0  0  0
   -1.0729   -0.6526    0.5640 N   0  0  0  0  0  0  0  0  0  0  0  0
   -1.6565   -0.4502   -0.2408 H   0  0  0  0  0  0  0  0  0  0  0  0
    0.3088   -0.1308    0.4793 C   0  0  1  0  0  0  0  0  0  0  0  0
    0.3676    0.4751   -0.4294 H   0  0  0  0  0  0  0  0  0  0  0  0
    0.5052    0.7958    1.6858 C   0  0  0  0  0  0  0  0  0  0  0  0
    0.5000    0.2171    2.6155 H   0  0  0  0  0  0  0  0  0  0  0  0
    1.4570    1.3303    1.6154 H   0  0  0  0  0  0  0  0  0  0  0  0
   -0.3004    1.5349    1.7342 H   0  0  0  0  0  0  0  0  0  0  0  0
    1.4986   -1.1330    0.3976 C   0  0  0  0  0  0  0  0  0  0  0  0
    1.3310   -2.3341    0.2279 O   0  0  0  0  0  0  0  0  0  0  0  0
    2.7337   -0.6375    0.0104 N   0  0  0  0  0  0  0  0  0  0  0  0
    2.8776    0.3642    0.0865 H   0  0  0  0  0  0  0  0  0  0  0  0
    3.8763   -1.4842   -0.3176 C   0  0  0  0  0  0  0  0  0  0  0  0
    3.6623   -2.0921   -1.2029 H   0  0  0  0  0  0  0  0  0  0  0  0
    4.7559   -0.8680   -0.5270 H   0  0  0  0  0  0  0  0  0  0  0  0
    4.1128   -2.1509    0.5185 H   0  0  0  0  0  0  0  0  0  0  0  0
  1  2  1  0  0  0  0
  2  3  1  0  0  0  0
  2  4  1  0  0  0  0
  2  5  1  0  0  0  0
  5  6  2  0  0  0  0
  5  7  1  0  0  0  0
  7  8  1  0  0  0  0
  7  9  1  0  0  0  0
  9 10  1  0  0  0  0
  9 11  1  0  0  0  0
  9 15  1  0  0  0  0
 11 12  1  0  0  0  0
 11 13  1  0  0  0  0
 11 14  1  0  0  0  0
 15 16  2  0  0  0  0
 15 17  1  0  0  0  0
 17 18  1  0  0  0  0
 17 19  1  0  0  0  0
 19 20  1  0  0  0  0
 19 21  1  0  0  0  0
 19 22  1  0  0  0  0
M  END
$$$$

  -OEChem-11182114133D

 22 21  0     1  0  0  0  0  0999 V2000
   -2.6296   -3.5986    1.2313 H   0  0  0  0  0  0  0  0  0  0  0  0
   -2.5605   -2.6571    0.6794 C   0  0  0  0  0  0  0  0  0  0  0  0
   -3.4528   -2.0613    0.8847 H   0  0  0  0  0  0  0  0  0  0  0  0
   -2.5142   -2.8809   -0.3891 H   0  0  0  0  0  0  0  0  0  0  0  0
   -1.3174   -1.8956    1.0993 C   0  0  0  0  0  0  0  0  0  0  0  0
   -0.6056   -2.3422    1.9855 O   0  0  0  0  0  0  0  0  0  0  0  0
   -1.0541   -0.6582    0.5364 N   0  0  0  0  0  0  0  0  0  0  0  0
   -1.6772   -0.4202   -0.2284 H   0  0  0  0  0  0  0  0  0  0  0  0
    0.3052   -0.0844    0.4658 C   0  0  1  0  0  0  0  0  0  0  0  0
    0.2779    0.7232   -0.2713 H   0  0  0  0  0  0  0  0  0  0  0  0
    0.6496    0.5437    1.8249 C   0  0  0  0  0  0  0  0  0  0  0  0
    0.8150   -0.2302    2.5810 H   0  0  0  0  0  0  0  0  0  0  0  0
    1.5554    1.1523    1.7508 H   0  0  0  0  0  0  0  0  0  0  0  0
   -0.1682    1.1877    2.1626 H   0  0  0  0  0  0  0  0  0  0  0  0
    1.4239   -1.0543   -0.0067 C   0  0  0  0  0  0  0  0  0  0  0  0
    1.1461   -2.0773   -0.6229 O   0  0  0  0  0  0  0  0  0  0  0  0
    2.7279   -0.5967   -0.0966 N   0  0  0  0  0  0  0  0  0  0  0  0
    2.9557    0.2542    0.4074 H   0  0  0  0  0  0  0  0  0  0  0  0
    3.8157   -1.3916   -0.6556 C   0  0  0  0  0  0  0  0  0  0  0  0
    3.6307   -1.6042   -1.7138 H   0  0  0  0  0  0  0  0  0  0  0  0
    4.7622   -0.8489   -0.5736 H   0  0  0  0  0  0  0  0  0  0  0  0
    3.9127   -2.3403   -0.1172 H   0  0  0  0  0  0  0  0  0  0  0  0
  1  2  1  0  0  0  0
  2  3  1  0  0  0  0
  2  4  1  0  0  0  0
  2  5  1  0  0  0  0
  5  6  2  0  0  0  0
  5  7  1  0  0  0  0
  7  8  1  0  0  0  0
  7  9  1  0  0  0  0
  9 10  1  0  0  0  0
  9 11  1  0  0  0  0
  9 15  1  0  0  0  0
 11 12  1  0  0  0  0
 11 13  1  0  0  0  0
 11 14  1  0  0  0  0
 15 16  2  0  0  0  0
 15 17  1  0  0  0  0
 17 18  1  0  0  0  0
 17 19  1  0  0  0  0
 19 20  1  0  0  0  0
 19 21  1  0  0  0  0
 19 22  1  0  0  0  0
M  END
$$$$

  -OEChem-11182114133D

 22 21  0     1  0  0  0  0  0999 V2000
   -2.5943   -3.6090    1.2259 H   0  0  0  0  0  0  0  0  0  0  0  0
   -2.5438   -2.6611    0.6827 C   0  0  0  0  0  0  0  0  0  0  0  0
   -3.4345   -2.0730    0.9155 H   0  0  0  0  0  0  0  0  0  0  0  0
   -2.5214   -2.8724   -0.3892 H   0  0  0  0  0  0  0  0  0  0  0  0
   -1.2961   -1.8967    1.0826 C   0  0  0  0  0  0  0  0  0  0  0  0
   -0.5514   -2.3583    1.9337 O   0  0  0  0  0  0  0  0  0  0  0  0
   -1.0517   -0.6518    0.5287 N   0  0  0  0  0  0  0  0  0  0  0  0
   -1.6807   -0.4114   -0.2308 H   0  0  0  0  0  0  0  0  0  0  0  0
    0.2995   -0.0605    0.4656 C   0  0  1  0  0  0  0  0  0  0  0  0
    0.2723    0.7484   -0.2704 H   0  0  0  0  0  0  0  0  0  0  0  0
    0.6273    0.5687    1.8293 C   0  0  0  0  0  0  0  0  0  0  0  0
    0.7891   -0.2046    2.5869 H   0  0  0  0  0  0  0  0  0  0  0  0
    1.5289    1.1845    1.7644 H   0  0  0  0  0  0  0  0  0  0  0  0
   -0.1978    1.2076    2.1588 H   0  0  0  0  0  0  0  0  0  0  0  0
    1.4119   -1.0339   -0.0128 C   0  0  0  0  0  0  0  0  0  0  0  0
    1.1387   -1.9299   -0.8044 O   0  0  0  0  0  0  0  0  0  0  0  0
    2.7477   -0.7218    0.1742 N   0  0  0  0  0  0  0  0  0  0  0  0
    2.9602   -0.0043    0.8597 H   0  0  0  0  0  0  0  0  0  0  0  0
    3.8353   -1.5541   -0.3265 C   0  0  0  0  0  0  0  0  0  0  0  0
    3.7970   -1.6190   -1.4190 H   0  0  0  0  0  0  0  0  0  0  0  0
    4.8011   -1.1264   -0.0408 H   0  0  0  0  0  0  0  0  0  0  0  0
    3.7666   -2.5649    0.0894 H   0  0  0  0  0  0  0  0  0  0  0  0
  1  2  1  0  0  0  0
  2  3  1  0  0  0  0
  2  4  1  0  0  0  0
  2  5  1  0  0  0  0
  5  6  2  0  0  0  0
  5  7  1  0  0  0  0
  7  8  1  0  0  0  0
  7  9  1  0  0  0  0
  9 10  1  0  0  0  0
  9 11  1  0  0  0  0
  9 15  1  0  0  0  0
 11 12  1  0  0  0  0
 11 13  1  0  0  0  0
 11 14  1  0  0  0  0
 15 16  2  0  0  0  0
 15 17  1  0  0  0  0
 17 18  1  0  0  0  0
 17 19  1  0  0  0  0
 19 20  1  0  0  0  0
 19 21  1  0  0  0  0
 19 22  1  0  0  0  0
M  END
$$$$

  -OEChem-11182114133D

 22 21  0     1  0  0  0  0  0999 V2000
   -2.5778   -3.6095    1.2338 H   0  0  0  0  0  0  0  0  0  0  0  0
   -2.5285   -2.6655    0.6840 C   0  0  0  0  0  0  0  0  0  0  0  0
   -3.4145   -2.0724    0.9217 H   0  0  0  0  0  0  0  0  0  0  0  0
   -2.5181   -2.8836   -0.3867 H   0  0  0  0  0  0  0  0  0  0  0  0
   -1.2737   -1.9036    1.0660 C   0  0  0  0  0  0  0  0  0  0  0  0
   -0.5021   -2.3797    1.8844 O   0  0  0  0  0  0  0  0  0  0  0  0
   -1.0446   -0.6516    0.5228 N   0  0  0  0  0  0  0  0  0  0  0  0
   -1.6845   -0.4014   -0.2244 H   0  0  0  0  0  0  0  0  0  0  0  0
    0.2971   -0.0406    0.4655 C   0  0  1  0  0  0  0  0  0  0  0  0
    0.2642    0.7702   -0.2682 H   0  0  0  0  0  0  0  0  0  0  0  0
    0.6119    0.5893    1.8320 C   0  0  0  0  0  0  0  0  0  0  0  0
    0.7721   -0.1829    2.5911 H   0  0  0  0  0  0  0  0  0  0  0  0
    1.5106    1.2102    1.7711 H   0  0  0  0  0  0  0  0  0  0  0  0
   -0.2191    1.2235    2.1556 H   0  0  0  0  0  0  0  0  0  0  0  0
    1.4099   -1.0082   -0.0206 C   0  0  0  0  0  0  0  0  0  0  0  0
    1.1746   -1.7670   -0.9549 O   0  0  0  0  0  0  0  0  0  0  0  0
    2.7185   -0.8785    0.4117 N   0  0  0  0  0  0  0  0  0  0  0  0
    2.8677   -0.3170    1.2441 H   0  0  0  0  0  0  0  0  0  0  0  0
    3.7857   -1.7696   -0.0266 C   0  0  0  0  0  0  0  0  0  0  0  0
    3.9124   -1.7109   -1.1128 H   0  0  0  0  0  0  0  0  0  0  0  0
    4.7314   -1.4877    0.4459 H   0  0  0  0  0  0  0  0  0  0  0  0
    3.5559   -2.8050    0.2465 H   0  0  0  0  0  0  0  0  0  0  0  0
  1  2  1  0  0  0  0
  2  3  1  0  0  0  0
  2  4  1  0  0  0  0
  2  5  1  0  0  0  0
  5  6  2  0  0  0  0
  5  7  1  0  0  0  0
  7  8  1  0  0  0  0
  7  9  1  0  0  0  0
  9 10  1  0  0  0  0
  9 11  1  0  0  0  0
  9 15  1  0  0  0  0
 11 12  1  0  0  0  0
 11 13  1  0  0  0  0
 11 14  1  0  0  0  0
 15 16  2  0  0  0  0
 15 17  1  0  0  0  0
 17 18  1  0  0  0  0
 17 19  1  0  0  0  0
 19 20  1  0  0  0  0
 19 21  1  0  0  0  0
 19 22  1  0  0  0  0
M  END
$$$$

  -OEChem-11182114133D

 22 21  0     1  0  0  0  0  0999 V2000
   -2.5403   -3.6331    1.2050 H   0  0  0  0  0  0  0  0  0  0  0  0
   -2.5200   -2.6678    0.6912 C   0  0  0  0  0  0  0  0  0  0  0  0
   -3.3984   -2.0910    0.9899 H   0  0  0  0  0  0  0  0  0  0  0  0
   -2.5543   -2.8432   -0.3869 H   0  0  0  0  0  0  0  0  0  0  0  0
   -1.2549   -1.9118    1.0503 C   0  0  0  0  0  0  0  0  0  0  0  0
   -0.4633   -2.3988    1.8430 O   0  0  0  0  0  0  0  0  0  0  0  0
   -1.0335   -0.6571    0.5108 N   0  0  0  0  0  0  0  0  0  0  0  0
   -1.6843   -0.3953   -0.2234 H   0  0  0  0  0  0  0  0  0  0  0  0
    0.3006   -0.0305    0.4612 C   0  0  1  0  0  0  0  0  0  0  0  0
    0.2656    0.7775   -0.2757 H   0  0  0  0  0  0  0  0  0  0  0  0
    0.5995    0.6084    1.8269 C   0  0  0  0  0  0  0  0  0  0  0  0
    0.7118   -0.1567    2.6014 H   0  0  0  0  0  0  0  0  0  0  0  0
    1.5204    1.1975    1.7809 H   0  0  0  0  0  0  0  0  0  0  0  0
   -0.2178    1.2751    2.1180 H   0  0  0  0  0  0  0  0  0  0  0  0
    1.4187   -0.9930   -0.0204 C   0  0  0  0  0  0  0  0  0  0  0  0
    1.2591   -1.5988   -1.0742 O   0  0  0  0  0  0  0  0  0  0  0  0
    2.6432   -1.0721    0.6199 N   0  0  0  0  0  0  0  0  0  0  0  0
    2.6798   -0.6884    1.5593 H   0  0  0  0  0  0  0  0  0  0  0  0
    3.6760   -2.0201    0.2214 C   0  0  0  0  0  0  0  0  0  0  0  0
    3.9722   -1.8506   -0.8192 H   0  0  0  0  0  0  0  0  0  0  0  0
    4.5610   -1.9025    0.8540 H   0  0  0  0  0  0  0  0  0  0  0  0
    3.3107   -3.0478    0.3213 H   0  0  0  0  0  0  0  0  0  0  0  0
  1  2  1  0  0  0  0
  2  3  1  0  0  0  0
  2  4  1  0  0  0  0
  2  5  1  0  0  0  0
  5  6  2  0  0  0  0
  5  7  1  0  0  0  0
  7  8  1  0  0  0  0
  7  9  1  0  0  0  0
  9 10  1  0  0  0  0
  9 11  1  0  0  0  0
  9 15  1  0  0  0  0
 11 12  1  0  0  0  0
 11 13  1  0  0  0  0
 11 14  1  0  0  0  0
 15 16  2  0  0  0  0
 15 17  1  0  0  0  0
 17 18  1  0  0  0  0
 17 19  1  0  0  0  0
 19 20  1  0  0  0  0
 19 21  1  0  0  0  0
 19 22  1  0  0  0  0
M  END
$$$$

  -OEChem-11182114133D

 22 21  0     1  0  0  0  0  0999 V2000
   -2.5488   -3.6265    1.2170 H   0  0  0  0  0  0  0  0  0  0  0  0
   -2.5260   -2.6621    0.7018 C   0  0  0  0  0  0  0  0  0  0  0  0
   -3.3908   -2.0737    1.0173 H   0  0  0  0  0  0  0  0  0  0  0  0
   -2.5844   -2.8381   -0.3751 H   0  0  0  0  0  0  0  0  0  0  0  0
   -1.2445   -1.9222    1.0355 C   0  0  0  0  0  0  0  0  0  0  0  0
   -0.4404   -2.4217    1.8078 O   0  0  0  0  0  0  0  0  0  0  0  0
   -1.0201   -0.6679    0.4970 N   0  0  0  0  0  0  0  0  0  0  0  0
   -1.6812   -0.3881   -0.2213 H   0  0  0  0  0  0  0  0  0  0  0  0
    0.3094   -0.0320    0.4564 C   0  0  1  0  0  0  0  0  0  0  0  0
    0.2761    0.7742   -0.2831 H   0  0  0  0  0  0  0  0  0  0  0  0
    0.5939    0.6125    1.8224 C   0  0  0  0  0  0  0  0  0  0  0  0
    0.6658   -0.1457    2.6083 H   0  0  0  0  0  0  0  0  0  0  0  0
    1.5332    1.1734    1.7908 H   0  0  0  0  0  0  0  0  0  0  0  0
   -0.2108    1.3053    2.0870 H   0  0  0  0  0  0  0  0  0  0  0  0
    1.4352   -0.9891   -0.0144 C   0  0  0  0  0  0  0  0  0  0  0  0
    1.3905   -1.4240   -1.1593 O   0  0  0  0  0  0  0  0  0  0  0  0
    2.5235   -1.2930    0.7837 N   0  0  0  0  0  0  0  0  0  0  0  0
    2.4009   -1.1044    1.7744 H   0  0  0  0  0  0  0  0  0  0  0  0
    3.5208   -2.2821    0.3955 C   0  0  0  0  0  0  0  0  0  0  0  0
    3.9842   -2.0074   -0.5581 H   0  0  0  0  0  0  0  0  0  0  0  0
    4.3071   -2.3435    1.1539 H   0  0  0  0  0  0  0  0  0  0  0  0
    3.0586   -3.2696    0.2916 H   0  0  0  0  0  0  0  0  0  0  0  0
  1  2  1  0  0  0  0
  2  3  1  0  0  0  0
  2  4  1  0  0  0  0
  2  5  1  0  0  0  0
  5  6  2  0  0  0  0
  5  7  1  0  0  0  0
  7  8  1  0  0  0  0
  7  9  1  0  0  0  0
  9 10  1  0  0  0  0
  9 11  1  0  0  0  0
  9 15  1  0  0  0  0
 11 12  1  0  0  0  0
 11 13  1  0  0  0  0
 11 14  1  0  0  0  0
 15 16  2  0  0  0  0
 15 17  1  0  0  0  0
 17 18  1  0  0  0  0
 17 19  1  0  0  0  0
 19 20  1  0  0  0  0
 19 21  1  0  0  0  0
 19 22  1  0  0  0  0
M  END
$$$$

  -OEChem-11182114133D

 22 21  0     1  0  0  0  0  0999 V2000
   -2.5752   -3.6241    1.2073 H   0  0  0  0  0  0  0  0  0  0  0  0
   -2.5555   -2.6465    0.7175 C   0  0  0  0  0  0  0  0  0  0  0  0
   -3.4039   -2.0571    1.0734 H   0  0  0  0  0  0  0  0  0  0  0  0
   -2.6474   -2.7932   -0.3615 H   0  0  0  0  0  0  0  0  0  0  0  0
   -1.2561   -1.9300    1.0334 C   0  0  0  0  0  0  0  0  0  0  0  0
   -0.4517   -2.4418    1.7975 O   0  0  0  0  0  0  0  0  0  0  0  0
   -1.0131   -0.6829    0.4871 N   0  0  0  0  0  0  0  0  0  0  0  0
   -1.6853   -0.3793   -0.2112 H   0  0  0  0  0  0  0  0  0  0  0  0
    0.3183   -0.0509    0.4478 C   0  0  1  0  0  0  0  0  0  0  0  0
    0.2898    0.7502   -0.2977 H   0  0  0  0  0  0  0  0  0  0  0  0
    0.6007    0.6043    1.8083 C   0  0  0  0  0  0  0  0  0  0  0  0
    0.6388   -0.1426    2.6070 H   0  0  0  0  0  0  0  0  0  0  0  0
    1.5574    1.1353    1.7822 H   0  0  0  0  0  0  0  0  0  0  0  0
   -0.1866    1.3247    2.0497 H   0  0  0  0  0  0  0  0  0  0  0  0
    1.4489   -1.0094   -0.0066 C   0  0  0  0  0  0  0  0  0  0  0  0
    1.5639   -1.2522   -1.2018 O   0  0  0  0  0  0  0  0  0  0  0  0
    2.3590   -1.5417    0.8886 N   0  0  0  0  0  0  0  0  0  0  0  0
    2.0373   -1.5559    1.8540 H   0  0  0  0  0  0  0  0  0  0  0  0
    3.3478   -2.5358    0.4917 C   0  0  0  0  0  0  0  0  0  0  0  0
    3.9890   -2.1446   -0.3052 H   0  0  0  0  0  0  0  0  0  0  0  0
    3.9816   -2.7974    1.3443 H   0  0  0  0  0  0  0  0  0  0  0  0
    2.8538   -3.4449    0.1327 H   0  0  0  0  0  0  0  0  0  0  0  0
  1  2  1  0  0  0  0
  2  3  1  0  0  0  0
  2  4  1  0  0  0  0
  2  5  1  0  0  0  0
  5  6  2  0  0  0  0
  5  7  1  0  0  0  0
  7  8  1  0  0  0  0
  7  9  1  0  0  0  0
  9 10  1  0  0  0  0
  9 11  1  0  0  0  0
  9 15  1  0  0  0  0
 11 12  1  0  0  0  0
 11 13  1  0  0  0  0
 11 14  1  0  0  0  0
 15 16  2  0  0  0  0
 15 17  1  0  0  0  0
 17 18  1  0  0  0  0
 17 19  1  0  0  0  0
 19 20  1  0  0  0  0
 19 21  1  0  0  0  0
 19 22  1  0  0  0  0
M  END
$$$$

  -OEChem-11182114133D

 22 21  0     1  0  0  0  0  0999 V2000
   -2.6550   -3.5992    1.2136 H   0  0  0  0  0  0  0  0  0  0  0  0
   -2.6166   -2.6155    0.7372 C   0  0  0  0  0  0  0  0  0  0  0  0
   -3.4360   -2.0046    1.1238 H   0  0  0  0  0  0  0  0  0  0  0  0
   -2.7419   -2.7433   -0.3407 H   0  0  0  0  0  0  0  0  0  0  0  0
   -1.2876   -1.9449    1.0287 C   0  0  0  0  0  0  0  0  0  0  0  0
   -0.4934   -2.4805    1.7873 O   0  0  0  0  0  0  0  0  0  0  0  0
   -1.0127   -0.7075    0.4756 N   0  0  0  0  0  0  0  0  0  0  0  0
   -1.6976   -0.3694   -0.1944 H   0  0  0  0  0  0  0  0  0  0  0  0
    0.3241   -0.0847    0.4342 C   0  0  1  0  0  0  0  0  0  0  0  0
    0.2975    0.7152   -0.3128 H   0  0  0  0  0  0  0  0  0  0  0  0
    0.6103    0.5694    1.7935 C   0  0  0  0  0  0  0  0  0  0  0  0
    0.6329   -0.1759    2.5942 H   0  0  0  0  0  0  0  0  0  0  0  0
    1.5768    1.0826    1.7701 H   0  0  0  0  0  0  0  0  0  0  0  0
   -0.1655    1.3040    2.0296 H   0  0  0  0  0  0  0  0  0  0  0  0
    1.4669   -1.0356   -0.0041 C   0  0  0  0  0  0  0  0  0  0  0  0
    1.7760   -1.0765   -1.1884 O   0  0  0  0  0  0  0  0  0  0  0  0
    2.1774   -1.7874    0.9125 N   0  0  0  0  0  0  0  0  0  0  0  0
    1.6650   -1.9669    1.7768 H   0  0  0  0  0  0  0  0  0  0  0  0
    3.1753   -2.7676    0.5053 C   0  0  0  0  0  0  0  0  0  0  0  0
    3.9698   -2.2882   -0.0762 H   0  0  0  0  0  0  0  0  0  0  0  0
    3.6275   -3.2330    1.3863 H   0  0  0  0  0  0  0  0  0  0  0  0
    2.7147   -3.5515   -0.1049 H   0  0  0  0  0  0  0  0  0  0  0  0
  1  2  1  0  0  0  0
  2  3  1  0  0  0  0
  2  4  1  0  0  0  0
  2  5  1  0  0  0  0
  5  6  2  0  0  0  0
  5  7  1  0  0  0  0
  7  8  1  0  0  0  0
  7  9  1  0  0  0  0
  9 10  1  0  0  0  0
  9 11  1  0  0  0  0
  9 15  1  0  0  0  0
 11 12  1  0  0  0  0
 11 13  1  0  0  0  0
 11 14  1  0  0  0  0
 15 16  2  0  0  0  0
 15 17  1  0  0  0  0
 17 18  1  0  0  0  0
 17 19  1  0  0  0  0
 19 20  1  0  0  0  0
 19 21  1  0  0  0  0
 19 22  1  0  0  0  0
M  END
$$$$

  -OEChem-11182114133D

 22 21  0     1  0  0  0  0  0999 V2000
   -2.7878   -3.5428    1.2449 H   0  0  0  0  0  0  0  0  0  0  0  0
   -2.7004   -2.5726    0.7474 C   0  0  0  0  0  0  0  0  0  0  0  0
   -3.4887   -1.9140    1.1199 H   0  0  0  0  0  0  0  0  0  0  0  0
   -2.8319   -2.7167   -0.3278 H   0  0  0  0  0  0  0  0  0  0  0  0
   -1.3402   -1.9619    1.0270 C   0  0  0  0  0  0  0  0  0  0  0  0
   -0.5705   -2.5308    1.7851 O   0  0  0  0  0  0  0  0  0  0  0  0
   -1.0202   -0.7367    0.4715 N   0  0  0  0  0  0  0  0  0  0  0  0
   -1.7123   -0.3618   -0.1707 H   0  0  0  0  0  0  0  0  0  0  0  0
    0.3239   -0.1247    0.4240 C   0  0  1  0  0  0  0  0  0  0  0  0
    0.2949    0.6780   -0.3203 H   0  0  0  0  0  0  0  0  0  0  0  0
    0.6135    0.5219    1.7851 C   0  0  0  0  0  0  0  0  0  0  0  0
    0.6446   -0.2301    2.5795 H   0  0  0  0  0  0  0  0  0  0  0  0
    1.5776    1.0394    1.7608 H   0  0  0  0  0  0  0  0  0  0  0  0
   -0.1639    1.2516    2.0307 H   0  0  0  0  0  0  0  0  0  0  0  0
    1.4872   -1.0575   -0.0022 C   0  0  0  0  0  0  0  0  0  0  0  0
    1.9746   -0.9159   -1.1166 O   0  0  0  0  0  0  0  0  0  0  0  0
    2.0101   -2.0141    0.8462 N   0  0  0  0  0  0  0  0  0  0  0  0
    1.3868   -2.2748    1.6146 H   0  0  0  0  0  0  0  0  0  0  0  0
    3.0112   -2.9828    0.4203 C   0  0  0  0  0  0  0  0  0  0  0  0
    3.9095   -2.4722    0.0582 H   0  0  0  0  0  0  0  0  0  0  0  0
    3.2951   -3.6238    1.2605 H   0  0  0  0  0  0  0  0  0  0  0  0
    2.6166   -3.6144   -0.3824 H   0  0  0  0  0  0  0  0  0  0  0  0
  1  2  1  0  0  0  0
  2  3  1  0  0  0  0
  2  4  1  0  0  0  0
  2  5  1  0  0  0  0
  5  6  2  0  0  0  0
  5  7  1  0  0  0  0
  7  8  1  0  0  0  0
  7  9  1  0  0  0  0
  9 10  1  0  0  0  0
  9 11  1  0  0  0  0
  9 15  1  0  0  0  0
 11 12  1  0  0  0  0
 11 13  1  0  0  0  0
 11 14  1  0  0  0  0
 15 16  2  0  0  0  0
 15 17  1  0  0  0  0
 17 18  1  0  0  0  0
 17 19  1  0  0  0  0
 19 20  1  0  0  0  0
 19 21  1  0  0  0  0
 19 22  1  0  0  0  0
M  END
$$$$

  -OEChem-11182114133D

 22 21  0     1  0  0  0  0  0999 V2000
   -2.9421   -3.4733    1.2637 H   0  0  0  0  0  0  0  0  0  0  0  0
   -2.8114   -2.5076    0.7669 C   0  0  0  0  0  0  0  0  0  0  0  0
   -3.5574   -1.8094    1.1542 H   0  0  0  0  0  0  0  0  0  0  0  0
   -2.9690   -2.6416   -0.3060 H   0  0  0  0  0  0  0  0  0  0  0  0
   -1.4158   -1.9709    1.0246 C   0  0  0  0  0  0  0  0  0  0  0  0
   -0.6699   -2.5809    1.7731 O   0  0  0  0  0  0  0  0  0  0  0  0
   -1.0443   -0.7626    0.4643 N   0  0  0  0  0  0  0  0  0  0  0  0
   -1.7424   -0.3429   -0.1428 H   0  0  0  0  0  0  0  0  0  0  0  0
    0.3126   -0.1751    0.4026 C   0  0  1  0  0  0  0  0  0  0  0  0
    0.2831    0.6311   -0.3378 H   0  0  0  0  0  0  0  0  0  0  0  0
    0.6179    0.4565    1.7660 C   0  0  0  0  0  0  0  0  0  0  0  0
    0.6707   -0.3083    2.5472 H   0  0  0  0  0  0  0  0  0  0  0  0
    1.5771    0.9831    1.7328 H   0  0  0  0  0  0  0  0  0  0  0  0
   -0.1616    1.1752    2.0361 H   0  0  0  0  0  0  0  0  0  0  0  0
    1.4905   -1.0941   -0.0178 C   0  0  0  0  0  0  0  0  0  0  0  0
    2.1478   -0.7840   -1.0032 O   0  0  0  0  0  0  0  0  0  0  0  0
    1.8440   -2.2297    0.6833 N   0  0  0  0  0  0  0  0  0  0  0  0
    1.1675   -2.5410    1.3855 H   0  0  0  0  0  0  0  0  0  0  0  0
    2.8885   -3.1512    0.2573 C   0  0  0  0  0  0  0  0  0  0  0  0
    3.8435   -2.6262    0.1508 H   0  0  0  0  0  0  0  0  0  0  0  0
    3.0141   -3.9456    0.9993 H   0  0  0  0  0  0  0  0  0  0  0  0
    2.6281   -3.6085   -0.7028 H   0  0  0  0  0  0  0  0  0  0  0  0
  1  2  1  0  0  0  0
  2  3  1  0  0  0  0
  2  4  1  0  0  0  0
  2  5  1  0  0  0  0
  5  6  2  0  0  0  0
  5  7  1  0  0  0  0
  7  8  1  0  0  0  0
  7  9  1  0  0  0  0
  9 10  1  0  0  0  0
  9 11  1  0  0  0  0
  9 15  1  0  0  0  0
 11 12  1  0  0  0  0
 11 13  1  0  0  0  0
 11 14  1  0  0  0  0
 15 16  2  0  0  0  0
 15 17  1  0  0  0  0
 17 18  1  0  0  0  0
 17 19  1  0  0  0  0
 19 20  1  0  0  0  0
 19 21  1  0  0  0  0
 19 22  1  0  0  0  0
M  END
$$$$

  -OEChem-11182114133D

 22 21  0     1  0  0  0  0  0999 V2000
   -3.0581   -3.4113    1.2921 H   0  0  0  0  0  0  0  0  0  0  0  0
   -2.9011   -2.4459    0.8024 C   0  0  0  0  0  0  0  0  0  0  0  0
   -3.6067   -1.7224    1.2179 H   0  0  0  0  0  0  0  0  0  0  0  0
   -3.0932   -2.5603   -0.2673 H   0  0  0  0  0  0  0  0  0  0  0  0
   -1.4779   -1.9696    1.0265 C   0  0  0  0  0  0  0  0  0  0  0  0
   -0.7392   -2.6182    1.7484 O   0  0  0  0  0  0  0  0  0  0  0  0
   -1.0745   -0.7719    0.4657 N   0  0  0  0  0  0  0  0  0  0  0  0
   -1.7798   -0.3147   -0.1047 H   0  0  0  0  0  0  0  0  0  0  0  0
    0.2944   -0.2128    0.3781 C   0  0  1  0  0  0  0  0  0  0  0  0
    0.2615    0.6006   -0.3542 H   0  0  0  0  0  0  0  0  0  0  0  0
    0.6344    0.3986    1.7422 C   0  0  0  0  0  0  0  0  0  0  0  0
    0.7067   -0.3800    2.5084 H   0  0  0  0  0  0  0  0  0  0  0  0
    1.5930    0.9252    1.6929 H   0  0  0  0  0  0  0  0  0  0  0  0
   -0.1367    1.1139    2.0441 H   0  0  0  0  0  0  0  0  0  0  0  0
    1.4664   -1.1310   -0.0652 C   0  0  0  0  0  0  0  0  0  0  0  0
    2.2677   -0.6895   -0.8789 O   0  0  0  0  0  0  0  0  0  0  0  0
    1.6627   -2.4100    0.4150 N   0  0  0  0  0  0  0  0  0  0  0  0
    0.9745   -2.7522    1.0904 H   0  0  0  0  0  0  0  0  0  0  0  0
    2.7668   -3.2745    0.0213 C   0  0  0  0  0  0  0  0  0  0  0  0
    3.7263   -2.7935    0.2380 H   0  0  0  0  0  0  0  0  0  0  0  0
    2.7216   -4.2181    0.5735 H   0  0  0  0  0  0  0  0  0  0  0  0
    2.7162   -3.4966   -1.0497 H   0  0  0  0  0  0  0  0  0  0  0  0
  1  2  1  0  0  0  0
  2  3  1  0  0  0  0
  2  4  1  0  0  0  0
  2  5  1  0  0  0  0
  5  6  2  0  0  0  0
  5  7  1  0  0  0  0
  7  8  1  0  0  0  0
  7  9  1  0  0  0  0
  9 10  1  0  0  0  0
  9 11  1  0  0  0  0
  9 15  1  0  0  0  0
 11 12  1  0  0  0  0
 11 13  1  0  0  0  0
 11 14  1  0  0  0  0
 15 16  2  0  0  0  0
 15 17  1  0  0  0  0
 17 18  1  0  0  0  0
 17 19  1  0  0  0  0
 19 20  1  0  0  0  0
 19 21  1  0  0  0  0
 19 22  1  0  0  0  0
M  END
$$$$

  -OEChem-11182114133D

 22 21  0     1  0  0  0  0  0999 V2000
   -3.1437   -3.3833    1.1663 H   0  0  0  0  0  0  0  0  0  0  0  0
   -2.9603   -2.4047    0.7134 C   0  0  0  0  0  0  0  0  0  0  0  0
   -3.6407   -1.6772    1.1627 H   0  0  0  0  0  0  0  0  0  0  0  0
   -3.1633   -2.4710   -0.3582 H   0  0  0  0  0  0  0  0  0  0  0  0
   -1.5218   -1.9813    0.9448 C   0  0  0  0  0  0  0  0  0  0  0  0
   -0.7934   -2.6883    1.6205 O   0  0  0  0  0  0  0  0  0  0  0  0
   -1.0883   -0.7707    0.4372 N   0  0  0  0  0  0  0  0  0  0  0  0
   -1.7882   -0.2586   -0.0919 H   0  0  0  0  0  0  0  0  0  0  0  0
    0.2895   -0.2266    0.3927 C   0  0  1  0  0  0  0  0  0  0  0  0
    0.2777    0.6147   -0.3081 H   0  0  0  0  0  0  0  0  0  0  0  0
    0.6050    0.3243    1.7883 C   0  0  0  0  0  0  0  0  0  0  0  0
    0.6599   -0.4873    2.5209 H   0  0  0  0  0  0  0  0  0  0  0  0
    1.5663    0.8484    1.7808 H   0  0  0  0  0  0  0  0  0  0  0  0
   -0.1691    1.0293    2.1063 H   0  0  0  0  0  0  0  0  0  0  0  0
    1.4702   -1.1288   -0.0631 C   0  0  0  0  0  0  0  0  0  0  0  0
    2.4113   -0.5923   -0.6340 O   0  0  0  0  0  0  0  0  0  0  0  0
    1.5139   -2.4969    0.1170 N   0  0  0  0  0  0  0  0  0  0  0  0
    0.7886   -2.8887    0.7222 H   0  0  0  0  0  0  0  0  0  0  0  0
    2.6661   -3.3218   -0.2215 C   0  0  0  0  0  0  0  0  0  0  0  0
    3.5399   -3.0187    0.3645 H   0  0  0  0  0  0  0  0  0  0  0  0
    2.4517   -4.3732   -0.0074 H   0  0  0  0  0  0  0  0  0  0  0  0
    2.9053   -3.2291   -1.2860 H   0  0  0  0  0  0  0  0  0  0  0  0
  1  2  1  0  0  0  0
  2  3  1  0  0  0  0
  2  4  1  0  0  0  0
  2  5  1  0  0  0  0
  5  6  2  0  0  0  0
  5  7  1  0  0  0  0
  7  8  1  0  0  0  0
  7  9  1  0  0  0  0
  9 10  1  0  0  0  0
  9 11  1  0  0  0  0
  9 15  1  0  0  0  0
 11 12  1  0  0  0  0
 11 13  1  0  0  0  0
 11 14  1  0  0  0  0
 15 16  2  0  0  0  0
 15 17  1  0  0  0  0
 17 18  1  0  0  0  0
 17 19  1  0  0  0  0
 19 20  1  0  0  0  0
 19 21  1  0  0  0  0
 19 22  1  0  0  0  0
M  END
$$$$

  -OEChem-11182114133D

 22 21  0     1  0  0  0  0  0999 V2000
   -3.1288   -3.3524    1.3517 H   0  0  0  0  0  0  0  0  0  0  0  0
   -2.9669   -2.3791    0.8793 C   0  0  0  0  0  0  0  0  0  0  0  0
   -3.5910   -1.6366    1.3829 H   0  0  0  0  0  0  0  0  0  0  0  0
   -3.2646   -2.4448   -0.1702 H   0  0  0  0  0  0  0  0  0  0  0  0
   -1.5054   -1.9843    0.9813 C   0  0  0  0  0  0  0  0  0  0  0  0
   -0.7274   -2.7204    1.5638 O   0  0  0  0  0  0  0  0  0  0  0  0
   -1.0946   -0.7797    0.4420 N   0  0  0  0  0  0  0  0  0  0  0  0
   -1.8292   -0.2398   -0.0060 H   0  0  0  0  0  0  0  0  0  0  0  0
    0.2791   -0.2331    0.3383 C   0  0  1  0  0  0  0  0  0  0  0  0
    0.2407    0.5983   -0.3727 H   0  0  0  0  0  0  0  0  0  0  0  0
    0.6353    0.3342    1.7180 C   0  0  0  0  0  0  0  0  0  0  0  0
    0.7156   -0.4709    2.4557 H   0  0  0  0  0  0  0  0  0  0  0  0
    1.5936    0.8623    1.6773 H   0  0  0  0  0  0  0  0  0  0  0  0
   -0.1313    1.0395    2.0526 H   0  0  0  0  0  0  0  0  0  0  0  0
    1.4483   -1.1348   -0.1490 C   0  0  0  0  0  0  0  0  0  0  0  0
    2.4624   -0.5838   -0.5595 O   0  0  0  0  0  0  0  0  0  0  0  0
    1.3805   -2.5123   -0.2229 N   0  0  0  0  0  0  0  0  0  0  0  0
    0.6367   -2.9350    0.3361 H   0  0  0  0  0  0  0  0  0  0  0  0
    2.5148   -3.3459   -0.5998 C   0  0  0  0  0  0  0  0  0  0  0  0
    3.3483   -3.1966    0.0944 H   0  0  0  0  0  0  0  0  0  0  0  0
    2.2290   -4.4019   -0.5775 H   0  0  0  0  0  0  0  0  0  0  0  0
    2.8505   -3.1013   -1.6130 H   0  0  0  0  0  0  0  0  0  0  0  0
  1  2  1  0  0  0  0
  2  3  1  0  0  0  0
  2  4  1  0  0  0  0
  2  5  1  0  0  0  0
  5  6  2  0  0  0  0
  5  7  1  0  0  0  0
  7  8  1  0  0  0  0
  7  9  1  0  0  0  0
  9 10  1  0  0  0  0
  9 11  1  0  0  0  0
  9 15  1  0  0  0  0
 11 12  1  0  0  0  0
 11 13  1  0  0  0  0
 11 14  1  0  0  0  0
 15 16  2  0  0  0  0
 15 17  1  0  0  0  0
 17 18  1  0  0  0  0
 17 19  1  0  0  0  0
 19 20  1  0  0  0  0
 19 21  1  0  0  0  0
 19 22  1  0  0  0  0
M  END
$$$$

  -OEChem-11182114133D

 22 21  0     1  0  0  0  0  0999 V2000
   -3.0958   -3.3574    1.3718 H   0  0  0  0  0  0  0  0  0  0  0  0
   -2.9491   -2.3775    0.9084 C   0  0  0  0  0  0  0  0  0  0  0  0
   -3.5353   -1.6382    1.4593 H   0  0  0  0  0  0  0  0  0  0  0  0
   -3.3054   -2.4206   -0.1236 H   0  0  0  0  0  0  0  0  0  0  0  0
   -1.4798   -2.0002    0.9352 C   0  0  0  0  0  0  0  0  0  0  0  0
   -0.6721   -2.7759    1.4157 O   0  0  0  0  0  0  0  0  0  0  0  0
   -1.0848   -0.7833    0.4126 N   0  0  0  0  0  0  0  0  0  0  0  0
   -1.8366   -0.2062    0.0469 H   0  0  0  0  0  0  0  0  0  0  0  0
    0.2844   -0.2224    0.3270 C   0  0  1  0  0  0  0  0  0  0  0  0
    0.2483    0.6144   -0.3775 H   0  0  0  0  0  0  0  0  0  0  0  0
    0.6171    0.3326    1.7186 C   0  0  0  0  0  0  0  0  0  0  0  0
    0.7005   -0.4812    2.4464 H   0  0  0  0  0  0  0  0  0  0  0  0
    1.5678    0.8749    1.6975 H   0  0  0  0  0  0  0  0  0  0  0  0
   -0.1629    1.0228    2.0534 H   0  0  0  0  0  0  0  0  0  0  0  0
    1.4589   -1.1165   -0.1624 C   0  0  0  0  0  0  0  0  0  0  0  0
    2.5462   -0.5876   -0.3604 O   0  0  0  0  0  0  0  0  0  0  0  0
    1.2984   -2.4387   -0.5306 N   0  0  0  0  0  0  0  0  0  0  0  0
    0.5017   -2.8963   -0.0849 H   0  0  0  0  0  0  0  0  0  0  0  0
    2.4161   -3.2797   -0.9397 C   0  0  0  0  0  0  0  0  0  0  0  0
    3.1580   -3.3486   -0.1371 H   0  0  0  0  0  0  0  0  0  0  0  0
    2.0622   -4.2882   -1.1740 H   0  0  0  0  0  0  0  0  0  0  0  0
    2.8991   -2.8692   -1.8326 H   0  0  0  0  0  0  0  0  0  0  0  0
  1  2  1  0  0  0  0
  2  3  1  0  0  0  0
  2  4  1  0  0  0  0
  2  5  1  0  0  0  0
  5  6  2  0  0  0  0
  5  7  1  0  0  0  0
  7  8  1  0  0  0  0
  7  9  1  0  0  0  0
  9 10  1  0  0  0  0
  9 11  1  0  0  0  0
  9 15  1  0  0  0  0
 11 12  1  0  0  0  0
 11 13  1  0  0  0  0
 11 14  1  0  0  0  0
 15 16  2  0  0  0  0
 15 17  1  0  0  0  0
 17 18  1  0  0  0  0
 17 19  1  0  0  0  0
 19 20  1  0  0  0  0
 19 21  1  0  0  0  0
 19 22  1  0  0  0  0
M  END
$$$$

  -OEChem-11182114133D

 22 21  0     1  0  0  0  0  0999 V2000
   -3.0394   -3.3673    1.3966 H   0  0  0  0  0  0  0  0  0  0  0  0
   -2.9120   -2.3828    0.9373 C   0  0  0  0  0  0  0  0  0  0  0  0
   -3.4529   -1.6453    1.5351 H   0  0  0  0  0  0  0  0  0  0  0  0
   -3.3342   -2.4073   -0.0703 H   0  0  0  0  0  0  0  0  0  0  0  0
   -1.4400   -2.0211    0.8751 C   0  0  0  0  0  0  0  0  0  0  0  0
   -0.6077   -2.8279    1.2489 O   0  0  0  0  0  0  0  0  0  0  0  0
   -1.0660   -0.7900    0.3711 N   0  0  0  0  0  0  0  0  0  0  0  0
   -1.8322   -0.1806    0.1004 H   0  0  0  0  0  0  0  0  0  0  0  0
    0.2966   -0.2114    0.3194 C   0  0  1  0  0  0  0  0  0  0  0  0
    0.2699    0.6279   -0.3823 H   0  0  0  0  0  0  0  0  0  0  0  0
    0.5867    0.3406    1.7226 C   0  0  0  0  0  0  0  0  0  0  0  0
    0.6759   -0.4775    2.4450 H   0  0  0  0  0  0  0  0  0  0  0  0
    1.5228    0.9082    1.7269 H   0  0  0  0  0  0  0  0  0  0  0  0
   -0.2176    1.0078    2.0469 H   0  0  0  0  0  0  0  0  0  0  0  0
    1.4773   -1.1027   -0.1589 C   0  0  0  0  0  0  0  0  0  0  0  0
    2.6142   -0.6460   -0.1317 O   0  0  0  0  0  0  0  0  0  0  0  0
    1.2656   -2.3002   -0.8159 N   0  0  0  0  0  0  0  0  0  0  0  0
    0.4053   -2.7675   -0.5315 H   0  0  0  0  0  0  0  0  0  0  0  0
    2.3655   -3.1428   -1.2685 C   0  0  0  0  0  0  0  0  0  0  0  0
    2.9846   -3.4526   -0.4201 H   0  0  0  0  0  0  0  0  0  0  0  0
    1.9755   -4.0387   -1.7608 H   0  0  0  0  0  0  0  0  0  0  0  0
    2.9936   -2.6030   -1.9849 H   0  0  0  0  0  0  0  0  0  0  0  0
  1  2  1  0  0  0  0
  2  3  1  0  0  0  0
  2  4  1  0  0  0  0
  2  5  1  0  0  0  0
  5  6  2  0  0  0  0
  5  7  1  0  0  0  0
  7  8  1  0  0  0  0
  7  9  1  0  0  0  0
  9 10  1  0  0  0  0
  9 11  1  0  0  0  0
  9 15  1  0  0  0  0
 11 12  1  0  0  0  0
 11 13  1  0  0  0  0
 11 14  1  0  0  0  0
 15 16  2  0  0  0  0
 15 17  1  0  0  0  0
 17 18  1  0  0  0  0
 17 19  1  0  0  0  0
 19 20  1  0  0  0  0
 19 21  1  0  0  0  0
 19 22  1  0  0  0  0
M  END
$$$$

  -OEChem-11182114133D

 22 21  0     1  0  0  0  0  0999 V2000
   -2.9462   -3.4173    1.3726 H   0  0  0  0  0  0  0  0  0  0  0  0
   -2.8495   -2.4182    0.9378 C   0  0  0  0  0  0  0  0  0  0  0  0
   -3.3778   -1.7061    1.5764 H   0  0  0  0  0  0  0  0  0  0  0  0
   -3.3089   -2.4197   -0.0535 H   0  0  0  0  0  0  0  0  0  0  0  0
   -1.3855   -2.0341    0.8320 C   0  0  0  0  0  0  0  0  0  0  0  0
   -0.5294   -2.8392    1.1492 O   0  0  0  0  0  0  0  0  0  0  0  0
   -1.0447   -0.7859    0.3454 N   0  0  0  0  0  0  0  0  0  0  0  0
   -1.8259   -0.1692    0.1421 H   0  0  0  0  0  0  0  0  0  0  0  0
    0.3080   -0.1852    0.3197 C   0  0  1  0  0  0  0  0  0  0  0  0
    0.2825    0.6587   -0.3761 H   0  0  0  0  0  0  0  0  0  0  0  0
    0.5735    0.3604    1.7311 C   0  0  0  0  0  0  0  0  0  0  0  0
    0.6749   -0.4630    2.4459 H   0  0  0  0  0  0  0  0  0  0  0  0
    1.4970    0.9481    1.7488 H   0  0  0  0  0  0  0  0  0  0  0  0
   -0.2477    1.0066    2.0550 H   0  0  0  0  0  0  0  0  0  0  0  0
    1.4871   -1.0772   -0.1602 C   0  0  0  0  0  0  0  0  0  0  0  0
    2.6417   -0.7589    0.1005 O   0  0  0  0  0  0  0  0  0  0  0  0
    1.2730   -2.0849   -1.0825 N   0  0  0  0  0  0  0  0  0  0  0  0
    0.3341   -2.4729   -1.0549 H   0  0  0  0  0  0  0  0  0  0  0  0
    2.3478   -2.9588   -1.5363 C   0  0  0  0  0  0  0  0  0  0  0  0
    2.7793   -3.5045   -0.6906 H   0  0  0  0  0  0  0  0  0  0  0  0
    1.9638   -3.6844   -2.2596 H   0  0  0  0  0  0  0  0  0  0  0  0
    3.1387   -2.3768   -2.0208 H   0  0  0  0  0  0  0  0  0  0  0  0
  1  2  1  0  0  0  0
  2  3  1  0  0  0  0
  2  4  1  0  0  0  0
  2  5  1  0  0  0  0
  5  6  2  0  0  0  0
  5  7  1  0  0  0  0
  7  8  1  0  0  0  0
  7  9  1  0  0  0  0
  9 10  1  0  0  0  0
  9 11  1  0  0  0  0
  9 15  1  0  0  0  0
 11 12  1  0  0  0  0
 11 13  1  0  0  0  0
 11 14  1  0  0  0  0
 15 16  2  0  0  0  0
 15 17  1  0  0  0  0
 17 18  1  0  0  0  0
 17 19  1  0  0  0  0
 19 20  1  0  0  0  0
 19 21  1  0  0  0  0
 19 22  1  0  0  0  0
M  END
$$$$

  -OEChem-11182114133D

 22 21  0     1  0  0  0  0  0999 V2000
   -2.8672   -3.4597    1.3554 H   0  0  0  0  0  0  0  0  0  0  0  0
   -2.7899   -2.4642    0.9087 C   0  0  0  0  0  0  0  0  0  0  0  0
   -3.3510   -1.7592    1.5268 H   0  0  0  0  0  0  0  0  0  0  0  0
   -3.2289   -2.4924   -0.0915 H   0  0  0  0  0  0  0  0  0  0  0  0
   -1.3350   -2.0410    0.8265 C   0  0  0  0  0  0  0  0  0  0  0  0
   -0.4650   -2.8215    1.1662 O   0  0  0  0  0  0  0  0  0  0  0  0
   -1.0203   -0.7831    0.3451 N   0  0  0  0  0  0  0  0  0  0  0  0
   -1.8122   -0.1784    0.1476 H   0  0  0  0  0  0  0  0  0  0  0  0
    0.3230   -0.1634    0.3359 C   0  0  1  0  0  0  0  0  0  0  0  0
    0.2994    0.6795   -0.3609 H   0  0  0  0  0  0  0  0  0  0  0  0
    0.5706    0.3904    1.7476 C   0  0  0  0  0  0  0  0  0  0  0  0
    0.6633   -0.4289    2.4682 H   0  0  0  0  0  0  0  0  0  0  0  0
    1.4942    0.9775    1.7724 H   0  0  0  0  0  0  0  0  0  0  0  0
   -0.2544    1.0383    2.0578 H   0  0  0  0  0  0  0  0  0  0  0  0
    1.4959   -1.0643   -0.1407 C   0  0  0  0  0  0  0  0  0  0  0  0
    2.6239   -0.9300    0.3200 O   0  0  0  0  0  0  0  0  0  0  0  0
    1.3335   -1.8420   -1.2731 N   0  0  0  0  0  0  0  0  0  0  0  0
    0.3714   -2.0577   -1.5128 H   0  0  0  0  0  0  0  0  0  0  0  0
    2.3788   -2.7311   -1.7645 C   0  0  0  0  0  0  0  0  0  0  0  0
    2.6340   -3.4774   -1.0047 H   0  0  0  0  0  0  0  0  0  0  0  0
    2.0392   -3.2529   -2.6641 H   0  0  0  0  0  0  0  0  0  0  0  0
    3.2801   -2.1626   -2.0170 H   0  0  0  0  0  0  0  0  0  0  0  0
  1  2  1  0  0  0  0
  2  3  1  0  0  0  0
  2  4  1  0  0  0  0
  2  5  1  0  0  0  0
  5  6  2  0  0  0  0
  5  7  1  0  0  0  0
  7  8  1  0  0  0  0
  7  9  1  0  0  0  0
  9 10  1  0  0  0  0
  9 11  1  0  0  0  0
  9 15  1  0  0  0  0
 11 12  1  0  0  0  0
 11 13  1  0  0  0  0
 11 14  1  0  0  0  0
 15 16  2  0  0  0  0
 15 17  1  0  0  0  0
 17 18  1  0  0  0  0
 17 19  1  0  0  0  0
 19 20  1  0  0  0  0
 19 21  1  0  0  0  0
 19 22  1  0  0  0  0
M  END
$$$$

  -OEChem-11182114133D

 22 21  0     1  0  0  0  0  0999 V2000
   -2.8405   -3.4804    1.3373 H   0  0  0  0  0  0  0  0  0  0  0  0
   -2.7666   -2.4826    0.8951 C   0  0  0  0  0  0  0  0  0  0  0  0
   -3.3377   -1.7834    1.5103 H   0  0  0  0  0  0  0  0  0  0  0  0
   -3.1960   -2.5106   -0.1091 H   0  0  0  0  0  0  0  0  0  0  0  0
   -1.3146   -2.0481    0.8273 C   0  0  0  0  0  0  0  0  0  0  0  0
   -0.4435   -2.8213    1.1789 O   0  0  0  0  0  0  0  0  0  0  0  0
   -1.0079   -0.7887    0.3442 N   0  0  0  0  0  0  0  0  0  0  0  0
   -1.8043   -0.1898    0.1486 H   0  0  0  0  0  0  0  0  0  0  0  0
    0.3302   -0.1605    0.3430 C   0  0  1  0  0  0  0  0  0  0  0  0
    0.3100    0.6803   -0.3565 H   0  0  0  0  0  0  0  0  0  0  0  0
    0.5664    0.4022    1.7530 C   0  0  0  0  0  0  0  0  0  0  0  0
    0.6403   -0.4116    2.4820 H   0  0  0  0  0  0  0  0  0  0  0  0
    1.4972    0.9777    1.7840 H   0  0  0  0  0  0  0  0  0  0  0  0
   -0.2551    1.0621    2.0469 H   0  0  0  0  0  0  0  0  0  0  0  0
    1.5003   -1.0688   -0.1252 C   0  0  0  0  0  0  0  0  0  0  0  0
    2.5598   -1.1200    0.4891 O   0  0  0  0  0  0  0  0  0  0  0  0
    1.4561   -1.5984   -1.4025 N   0  0  0  0  0  0  0  0  0  0  0  0
    0.5374   -1.6426   -1.8304 H   0  0  0  0  0  0  0  0  0  0  0  0
    2.5073   -2.4595   -1.9301 C   0  0  0  0  0  0  0  0  0  0  0  0
    2.6194   -3.3526   -1.3062 H   0  0  0  0  0  0  0  0  0  0  0  0
    2.2618   -2.7755   -2.9483 H   0  0  0  0  0  0  0  0  0  0  0  0
    3.4631   -1.9258   -1.9568 H   0  0  0  0  0  0  0  0  0  0  0  0
  1  2  1  0  0  0  0
  2  3  1  0  0  0  0
  2  4  1  0  0  0  0
  2  5  1  0  0  0  0
  5  6  2  0  0  0  0
  5  7  1  0  0  0  0
  7  8  1  0  0  0  0
  7  9  1  0  0  0  0
  9 10  1  0  0  0  0
  9 11  1  0  0  0  0
  9 15  1  0  0  0  0
 11 12  1  0  0  0  0
 11 13  1  0  0  0  0
 11 14  1  0  0  0  0
 15 16  2  0  0  0  0
 15 17  1  0  0  0  0
 17 18  1  0  0  0  0
 17 19  1  0  0  0  0
 19 20  1  0  0  0  0
 19 21  1  0  0  0  0
 19 22  1  0  0  0  0
M  END
$$$$

  -OEChem-11182114133D

 22 21  0     1  0  0  0  0  0999 V2000
   -2.8573   -3.4784    1.3486 H   0  0  0  0  0  0  0  0  0  0  0  0
   -2.7768   -2.4815    0.9055 C   0  0  0  0  0  0  0  0  0  0  0  0
   -3.3399   -1.7776    1.5229 H   0  0  0  0  0  0  0  0  0  0  0  0
   -3.2103   -2.5067   -0.0971 H   0  0  0  0  0  0  0  0  0  0  0  0
   -1.3213   -2.0590    0.8310 C   0  0  0  0  0  0  0  0  0  0  0  0
   -0.4570   -2.8379    1.1854 O   0  0  0  0  0  0  0  0  0  0  0  0
   -1.0088   -0.8026    0.3437 N   0  0  0  0  0  0  0  0  0  0  0  0
   -1.8041   -0.2043    0.1435 H   0  0  0  0  0  0  0  0  0  0  0  0
    0.3293   -0.1756    0.3400 C   0  0  1  0  0  0  0  0  0  0  0  0
    0.3090    0.6646   -0.3601 H   0  0  0  0  0  0  0  0  0  0  0  0
    0.5650    0.3941    1.7473 C   0  0  0  0  0  0  0  0  0  0  0  0
    0.6165   -0.4145    2.4842 H   0  0  0  0  0  0  0  0  0  0  0  0
    1.5071    0.9504    1.7802 H   0  0  0  0  0  0  0  0  0  0  0  0
   -0.2456    1.0725    2.0289 H   0  0  0  0  0  0  0  0  0  0  0  0
    1.5022   -1.0843   -0.1232 C   0  0  0  0  0  0  0  0  0  0  0  0
    2.4636   -1.3181    0.6001 O   0  0  0  0  0  0  0  0  0  0  0  0
    1.6266   -1.3602   -1.4738 N   0  0  0  0  0  0  0  0  0  0  0  0
    0.7944   -1.2297   -2.0390 H   0  0  0  0  0  0  0  0  0  0  0  0
    2.7190   -2.1586   -2.0173 C   0  0  0  0  0  0  0  0  0  0  0  0
    2.7227   -3.1574   -1.5681 H   0  0  0  0  0  0  0  0  0  0  0  0
    2.6070   -2.2649   -3.1004 H   0  0  0  0  0  0  0  0  0  0  0  0
    3.6826   -1.6786   -1.8167 H   0  0  0  0  0  0  0  0  0  0  0  0
  1  2  1  0  0  0  0
  2  3  1  0  0  0  0
  2  4  1  0  0  0  0
  2  5  1  0  0  0  0
  5  6  2  0  0  0  0
  5  7  1  0  0  0  0
  7  8  1  0  0  0  0
  7  9  1  0  0  0  0
  9 10  1  0  0  0  0
  9 11  1  0  0  0  0
  9 15  1  0  0  0  0
 11 12  1  0  0  0  0
 11 13  1  0  0  0  0
 11 14  1  0  0  0  0
 15 16  2  0  0  0  0
 15 17  1  0  0  0  0
 17 18  1  0  0  0  0
 17 19  1  0  0  0  0
 19 20  1  0  0  0  0
 19 21  1  0  0  0  0
 19 22  1  0  0  0  0
M  END
$$$$

  -OEChem-11182114133D

 22 21  0     1  0  0  0  0  0999 V2000
   -2.8880   -3.4710    1.3626 H   0  0  0  0  0  0  0  0  0  0  0  0
   -2.7959   -2.4805    0.9077 C   0  0  0  0  0  0  0  0  0  0  0  0
   -3.3661   -1.7661    1.5061 H   0  0  0  0  0  0  0  0  0  0  0  0
   -3.2127   -2.5172   -0.1013 H   0  0  0  0  0  0  0  0  0  0  0  0
   -1.3375   -2.0652    0.8520 C   0  0  0  0  0  0  0  0  0  0  0  0
   -0.4854   -2.8421    1.2365 O   0  0  0  0  0  0  0  0  0  0  0  0
   -1.0142   -0.8154    0.3552 N   0  0  0  0  0  0  0  0  0  0  0  0
   -1.8053   -0.2233    0.1237 H   0  0  0  0  0  0  0  0  0  0  0  0
    0.3265   -0.1950    0.3352 C   0  0  1  0  0  0  0  0  0  0  0  0
    0.2997    0.6455   -0.3640 H   0  0  0  0  0  0  0  0  0  0  0  0
    0.5790    0.3770    1.7382 C   0  0  0  0  0  0  0  0  0  0  0  0
    0.6137   -0.4279    2.4804 H   0  0  0  0  0  0  0  0  0  0  0  0
    1.5344    0.9106    1.7650 H   0  0  0  0  0  0  0  0  0  0  0  0
   -0.2152    1.0752    2.0179 H   0  0  0  0  0  0  0  0  0  0  0  0
    1.5001   -1.1030   -0.1304 C   0  0  0  0  0  0  0  0  0  0  0  0
    2.3465   -1.5211    0.6507 O   0  0  0  0  0  0  0  0  0  0  0  0
    1.8107   -1.1347   -1.4796 N   0  0  0  0  0  0  0  0  0  0  0  0
    1.0944   -0.8169   -2.1238 H   0  0  0  0  0  0  0  0  0  0  0  0
    2.9602   -1.8570   -2.0128 C   0  0  0  0  0  0  0  0  0  0  0  0
    2.8919   -2.9215   -1.7647 H   0  0  0  0  0  0  0  0  0  0  0  0
    2.9994   -1.7560   -3.1014 H   0  0  0  0  0  0  0  0  0  0  0  0
    3.8911   -1.4574   -1.5966 H   0  0  0  0  0  0  0  0  0  0  0  0
  1  2  1  0  0  0  0
  2  3  1  0  0  0  0
  2  4  1  0  0  0  0
  2  5  1  0  0  0  0
  5  6  2  0  0  0  0
  5  7  1  0  0  0  0
  7  8  1  0  0  0  0
  7  9  1  0  0  0  0
  9 10  1  0  0  0  0
  9 11  1  0  0  0  0
  9 15  1  0  0  0  0
 11 12  1  0  0  0  0
 11 13  1  0  0  0  0
 11 14  1  0  0  0  0
 15 16  2  0  0  0  0
 15 17  1  0  0  0  0
 17 18  1  0  0  0  0
 17 19  1  0  0  0  0
 19 20  1  0  0  0  0
 19 21  1  0  0  0  0
 19 22  1  0  0  0  0
M  END
$$$$

  -OEChem-11182114133D

 22 21  0     1  0  0  0  0  0999 V2000
   -2.9306   -3.4658    1.3590 H   0  0  0  0  0  0  0  0  0  0  0  0
   -2.8204   -2.4815    0.8946 C   0  0  0  0  0  0  0  0  0  0  0  0
   -3.4092   -1.7580    1.4634 H   0  0  0  0  0  0  0  0  0  0  0  0
   -3.2013   -2.5311   -0.1282 H   0  0  0  0  0  0  0  0  0  0  0  0
   -1.3594   -2.0703    0.8846 C   0  0  0  0  0  0  0  0  0  0  0  0
   -0.5287   -2.8401    1.3236 O   0  0  0  0  0  0  0  0  0  0  0  0
   -1.0193   -0.8284    0.3784 N   0  0  0  0  0  0  0  0  0  0  0  0
   -1.8028   -0.2515    0.0900 H   0  0  0  0  0  0  0  0  0  0  0  0
    0.3252   -0.2157    0.3335 C   0  0  1  0  0  0  0  0  0  0  0  0
    0.2838    0.6249   -0.3645 H   0  0  0  0  0  0  0  0  0  0  0  0
    0.6089    0.3581    1.7292 C   0  0  0  0  0  0  0  0  0  0  0  0
    0.6514   -0.4447    2.4734 H   0  0  0  0  0  0  0  0  0  0  0  0
    1.5688    0.8841    1.7359 H   0  0  0  0  0  0  0  0  0  0  0  0
   -0.1747    1.0630    2.0220 H   0  0  0  0  0  0  0  0  0  0  0  0
    1.5015   -1.1169   -0.1418 C   0  0  0  0  0  0  0  0  0  0  0  0
    2.2161   -1.7274    0.6428 O   0  0  0  0  0  0  0  0  0  0  0  0
    2.0035   -0.9215   -1.4184 N   0  0  0  0  0  0  0  0  0  0  0  0
    1.4298   -0.3977   -2.0705 H   0  0  0  0  0  0  0  0  0  0  0  0
    3.2050   -1.5829   -1.9158 C   0  0  0  0  0  0  0  0  0  0  0  0
    3.0958   -2.6710   -1.8568 H   0  0  0  0  0  0  0  0  0  0  0  0
    3.3832   -1.3088   -2.9599 H   0  0  0  0  0  0  0  0  0  0  0  0
    4.0787   -1.2843   -1.3267 H   0  0  0  0  0  0  0  0  0  0  0  0
  1  2  1  0  0  0  0
  2  3  1  0  0  0  0
  2  4  1  0  0  0  0
  2  5  1  0  0  0  0
  5  6  2  0  0  0  0
  5  7  1  0  0  0  0
  7  8  1  0  0  0  0
  7  9  1  0  0  0  0
  9 10  1  0  0  0  0
  9 11  1  0  0  0  0
  9 15  1  0  0  0  0
 11 12  1  0  0  0  0
 11 13  1  0  0  0  0
 11 14  1  0  0  0  0
 15 16  2  0  0  0  0
 15 17  1  0  0  0  0
 17 18  1  0  0  0  0
 17 19  1  0  0  0  0
 19 20  1  0  0  0  0
 19 21  1  0  0  0  0
 19 22  1  0  0  0  0
M  END
$$$$

  -OEChem-11182114133D

 22 21  0     1  0  0  0  0  0999 V2000
   -2.8718   -3.5331    1.2283 H   0  0  0  0  0  0  0  0  0  0  0  0
   -2.7624   -2.5481    0.7654 C   0  0  0  0  0  0  0  0  0  0  0  0
   -3.5143   -1.8764    1.1862 H   0  0  0  0  0  0  0  0  0  0  0  0
   -2.9288   -2.6465   -0.3098 H   0  0  0  0  0  0  0  0  0  0  0  0
   -1.3720   -2.0002    1.0287 C   0  0  0  0  0  0  0  0  0  0  0  0
   -0.6360   -2.6089    1.7798 O   0  0  0  0  0  0  0  0  0  0  0  0
   -1.0297   -0.7703    0.4941 N   0  0  0  0  0  0  0  0  0  0  0  0
   -1.7550   -0.3445   -0.0734 H   0  0  0  0  0  0  0  0  0  0  0  0
    0.3252   -0.1865    0.3876 C   0  0  1  0  0  0  0  0  0  0  0  0
    0.2605    0.6527   -0.3102 H   0  0  0  0  0  0  0  0  0  0  0  0
    0.6984    0.3861    1.7611 C   0  0  0  0  0  0  0  0  0  0  0  0
    0.7905   -0.4156    2.5016 H   0  0  0  0  0  0  0  0  0  0  0  0
    1.6554    0.9135    1.7061 H   0  0  0  0  0  0  0  0  0  0  0  0
   -0.0667    1.0886    2.1040 H   0  0  0  0  0  0  0  0  0  0  0  0
    1.4746   -1.1005   -0.1268 C   0  0  0  0  0  0  0  0  0  0  0  0
    1.9548   -2.0172    0.5222 O   0  0  0  0  0  0  0  0  0  0  0  0
    2.1458   -0.7270   -1.2801 N   0  0  0  0  0  0  0  0  0  0  0  0
    1.8024    0.0820   -1.7866 H   0  0  0  0  0  0  0  0  0  0  0  0
    3.3391   -1.4084   -1.7705 C   0  0  0  0  0  0  0  0  0  0  0  0
    3.1310   -2.4698   -1.9426 H   0  0  0  0  0  0  0  0  0  0  0  0
    3.6686   -0.9640   -2.7144 H   0  0  0  0  0  0  0  0  0  0  0  0
    4.1542   -1.3229   -1.0441 H   0  0  0  0  0  0  0  0  0  0  0  0
  1  2  1  0  0  0  0
  2  3  1  0  0  0  0
  2  4  1  0  0  0  0
  2  5  1  0  0  0  0
  5  6  2  0  0  0  0
  5  7  1  0  0  0  0
  7  8  1  0  0  0  0
  7  9  1  0  0  0  0
  9 10  1  0  0  0  0
  9 11  1  0  0  0  0
  9 15  1  0  0  0  0
 11 12  1  0  0  0  0
 11 13  1  0  0  0  0
 11 14  1  0  0  0  0
 15 16  2  0  0  0  0
 15 17  1  0  0  0  0
 17 18  1  0  0  0  0
 17 19  1  0  0  0  0
 19 20  1  0  0  0  0
 19 21  1  0  0  0  0
 19 22  1  0  0  0  0
M  END
$$$$

  -OEChem-11182114133D

 22 21  0     1  0  0  0  0  0999 V2000
   -2.6755   -3.5970    1.1838 H   0  0  0  0  0  0  0  0  0  0  0  0
   -2.5750   -2.6530    0.6407 C   0  0  0  0  0  0  0  0  0  0  0  0
   -3.4744   -2.0546    0.8032 H   0  0  0  0  0  0  0  0  0  0  0  0
   -2.4751   -2.8721   -0.4249 H   0  0  0  0  0  0  0  0  0  0  0  0
   -1.3525   -1.8991    1.1301 C   0  0  0  0  0  0  0  0  0  0  0  0
   -0.7577   -2.3039    2.1139 O   0  0  0  0  0  0  0  0  0  0  0  0
   -1.0492   -0.6687    0.5727 N   0  0  0  0  0  0  0  0  0  0  0  0
   -1.6813   -0.4112   -0.1777 H   0  0  0  0  0  0  0  0  0  0  0  0
    0.3177   -0.1131    0.4658 C   0  0  1  0  0  0  0  0  0  0  0  0
    0.2591    0.7123   -0.2490 H   0  0  0  0  0  0  0  0  0  0  0  0
    0.7225    0.4830    1.8195 C   0  0  0  0  0  0  0  0  0  0  0  0
    0.8724   -0.3077    2.5617 H   0  0  0  0  0  0  0  0  0  0  0  0
    1.6565    1.0450    1.7253 H   0  0  0  0  0  0  0  0  0  0  0  0
   -0.0549    1.1601    2.1864 H   0  0  0  0  0  0  0  0  0  0  0  0
    1.4507   -1.0519   -0.0407 C   0  0  0  0  0  0  0  0  0  0  0  0
    1.4915   -2.2521    0.1837 O   0  0  0  0  0  0  0  0  0  0  0  0
    2.3372   -0.5591   -0.9845 N   0  0  0  0  0  0  0  0  0  0  0  0
    2.3081    0.4357   -1.1825 H   0  0  0  0  0  0  0  0  0  0  0  0
    3.3903   -1.3640   -1.5945 C   0  0  0  0  0  0  0  0  0  0  0  0
    2.9580   -2.1962   -2.1600 H   0  0  0  0  0  0  0  0  0  0  0  0
    3.9849   -0.7527   -2.2800 H   0  0  0  0  0  0  0  0  0  0  0  0
    4.0568   -1.7696   -0.8259 H   0  0  0  0  0  0  0  0  0  0  0  0
  1  2  1  0  0  0  0
  2  3  1  0  0  0  0
  2  4  1  0  0  0  0
  2  5  1  0  0  0  0
  5  6  2  0  0  0  0
  5  7  1  0  0  0  0
  7  8  1  0  0  0  0
  7  9  1  0  0  0  0
  9 10  1  0  0  0  0
  9 11  1  0  0  0  0
  9 15  1  0  0  0  0
 11 12  1  0  0  0  0
 11 13  1  0  0  0  0
 11 14  1  0  0  0  0
 15 16  2  0  0  0  0
 15 17  1  0  0  0  0
 17 18  1  0  0  0  0
 17 19  1  0  0  0  0
 19 20  1  0  0  0  0
 19 21  1  0  0  0  0
 19 22  1  0  0  0  0
M  END
$$$$

  -OEChem-11182114133D

 22 21  0     1  0  0  0  0  0999 V2000
   -2.6685   -3.5903    1.2234 H   0  0  0  0  0  0  0  0  0  0  0  0
   -2.5692   -2.6593    0.6581 C   0  0  0  0  0  0  0  0  0  0  0  0
   -3.4684   -2.0572    0.8077 H   0  0  0  0  0  0  0  0  0  0  0  0
   -2.4700   -2.9032   -0.4022 H   0  0  0  0  0  0  0  0  0  0  0  0
   -1.3462   -1.8942    1.1274 C   0  0  0  0  0  0  0  0  0  0  0  0
   -0.7229   -2.2968    2.0959 O   0  0  0  0  0  0  0  0  0  0  0  0
   -1.0501   -0.6675    0.5570 N   0  0  0  0  0  0  0  0  0  0  0  0
   -1.6653   -0.4313   -0.2143 H   0  0  0  0  0  0  0  0  0  0  0  0
    0.3187   -0.1148    0.4702 C   0  0  1  0  0  0  0  0  0  0  0  0
    0.2778    0.6950   -0.2639 H   0  0  0  0  0  0  0  0  0  0  0  0
    0.6943    0.5083    1.8208 C   0  0  0  0  0  0  0  0  0  0  0  0
    0.8307   -0.2662    2.5822 H   0  0  0  0  0  0  0  0  0  0  0  0
    1.6277    1.0726    1.7361 H   0  0  0  0  0  0  0  0  0  0  0  0
   -0.0930    1.1895    2.1576 H   0  0  0  0  0  0  0  0  0  0  0  0
    1.4569   -1.0642   -0.0032 C   0  0  0  0  0  0  0  0  0  0  0  0
    1.3062   -2.2721   -0.1277 O   0  0  0  0  0  0  0  0  0  0  0  0
    2.5312   -0.5047   -0.6757 N   0  0  0  0  0  0  0  0  0  0  0  0
    2.6471    0.5019   -0.6177 H   0  0  0  0  0  0  0  0  0  0  0  0
    3.5749   -1.2937   -1.3216 C   0  0  0  0  0  0  0  0  0  0  0  0
    3.1545   -1.8892   -2.1388 H   0  0  0  0  0  0  0  0  0  0  0  0
    4.3456   -0.6363   -1.7349 H   0  0  0  0  0  0  0  0  0  0  0  0
    4.0472   -1.9689   -0.6001 H   0  0  0  0  0  0  0  0  0  0  0  0
  1  2  1  0  0  0  0
  2  3  1  0  0  0  0
  2  4  1  0  0  0  0
  2  5  1  0  0  0  0
  5  6  2  0  0  0  0
  5  7  1  0  0  0  0
  7  8  1  0  0  0  0
  7  9  1  0  0  0  0
  9 10  1  0  0  0  0
  9 11  1  0  0  0  0
  9 15  1  0  0  0  0
 11 12  1  0  0  0  0
 11 13  1  0  0  0  0
 11 14  1  0  0  0  0
 15 16  2  0  0  0  0
 15 17  1  0  0  0  0
 17 18  1  0  0  0  0
 17 19  1  0  0  0  0
 19 20  1  0  0  0  0
 19 21  1  0  0  0  0
 19 22  1  0  0  0  0
M  END
$$$$

  -OEChem-11182114133D

 22 21  0     1  0  0  0  0  0999 V2000
   -2.6667   -3.5834    1.2482 H   0  0  0  0  0  0  0  0  0  0  0  0
   -2.5746   -2.6556    0.6766 C   0  0  0  0  0  0  0  0  0  0  0  0
   -3.4659   -2.0469    0.8453 H   0  0  0  0  0  0  0  0  0  0  0  0
   -2.5029   -2.9043   -0.3849 H   0  0  0  0  0  0  0  0  0  0  0  0
   -1.3349   -1.8971    1.1122 C   0  0  0  0  0  0  0  0  0  0  0  0
   -0.6622   -2.3243    2.0371 O   0  0  0  0  0  0  0  0  0  0  0  0
   -1.0527   -0.6666    0.5430 N   0  0  0  0  0  0  0  0  0  0  0  0
   -1.6703   -0.4299   -0.2265 H   0  0  0  0  0  0  0  0  0  0  0  0
    0.3132   -0.1071    0.4658 C   0  0  1  0  0  0  0  0  0  0  0  0
    0.2824    0.6995   -0.2722 H   0  0  0  0  0  0  0  0  0  0  0  0
    0.6719    0.5205    1.8203 C   0  0  0  0  0  0  0  0  0  0  0  0
    0.8154   -0.2525    2.5817 H   0  0  0  0  0  0  0  0  0  0  0  0
    1.5955    1.1012    1.7431 H   0  0  0  0  0  0  0  0  0  0  0  0
   -0.1283    1.1888    2.1529 H   0  0  0  0  0  0  0  0  0  0  0  0
    1.4428   -1.0676   -0.0026 C   0  0  0  0  0  0  0  0  0  0  0  0
    1.2021   -2.2004   -0.4025 O   0  0  0  0  0  0  0  0  0  0  0  0
    2.6570   -0.5206   -0.3838 N   0  0  0  0  0  0  0  0  0  0  0  0
    2.8506    0.4319   -0.0919 H   0  0  0  0  0  0  0  0  0  0  0  0
    3.7300   -1.2969   -0.9953 C   0  0  0  0  0  0  0  0  0  0  0  0
    3.4177   -1.6798   -1.9725 H   0  0  0  0  0  0  0  0  0  0  0  0
    4.6162   -0.6711   -1.1369 H   0  0  0  0  0  0  0  0  0  0  0  0
    4.0033   -2.1432   -0.3561 H   0  0  0  0  0  0  0  0  0  0  0  0
  1  2  1  0  0  0  0
  2  3  1  0  0  0  0
  2  4  1  0  0  0  0
  2  5  1  0  0  0  0
  5  6  2  0  0  0  0
  5  7  1  0  0  0  0
  7  8  1  0  0  0  0
  7  9  1  0  0  0  0
  9 10  1  0  0  0  0
  9 11  1  0  0  0  0
  9 15  1  0  0  0  0
 11 12  1  0  0  0  0
 11 13  1  0  0  0  0
 11 14  1  0  0  0  0
 15 16  2  0  0  0  0
 15 17  1  0  0  0  0
 17 18  1  0  0  0  0
 17 19  1  0  0  0  0
 19 20  1  0  0  0  0
 19 21  1  0  0  0  0
 19 22  1  0  0  0  0
M  END
$$$$

  -OEChem-11182114133D

 22 21  0     1  0  0  0  0  0999 V2000
   -2.6488   -3.6082    1.1833 H   0  0  0  0  0  0  0  0  0  0  0  0
   -2.5861   -2.6410    0.6769 C   0  0  0  0  0  0  0  0  0  0  0  0
   -3.4389   -2.0288    0.9793 H   0  0  0  0  0  0  0  0  0  0  0  0
   -2.6271   -2.8071   -0.4024 H   0  0  0  0  0  0  0  0  0  0  0  0
   -1.2889   -1.9436    1.0415 C   0  0  0  0  0  0  0  0  0  0  0  0
   -0.5105   -2.4885    1.8078 O   0  0  0  0  0  0  0  0  0  0  0  0
   -1.0296   -0.6875    0.5205 N   0  0  0  0  0  0  0  0  0  0  0  0
   -1.6749   -0.4045   -0.2101 H   0  0  0  0  0  0  0  0  0  0  0  0
    0.3181   -0.0863    0.4719 C   0  0  1  0  0  0  0  0  0  0  0  0
    0.2138    0.8712   -0.0468 H   0  0  0  0  0  0  0  0  0  0  0  0
    0.8355    0.2318    1.8845 C   0  0  0  0  0  0  0  0  0  0  0  0
    1.1642   -0.6766    2.3986 H   0  0  0  0  0  0  0  0  0  0  0  0
    1.6835    0.9206    1.8345 H   0  0  0  0  0  0  0  0  0  0  0  0
    0.0468    0.7017    2.4799 H   0  0  0  0  0  0  0  0  0  0  0  0
    1.3469   -0.9028   -0.3535 C   0  0  0  0  0  0  0  0  0  0  0  0
    0.9759   -1.7860   -1.1189 O   0  0  0  0  0  0  0  0  0  0  0  0
    2.6484   -0.4466   -0.4734 N   0  0  0  0  0  0  0  0  0  0  0  0
    2.9481    0.2737    0.1758 H   0  0  0  0  0  0  0  0  0  0  0  0
    3.6518   -1.1065   -1.3004 C   0  0  0  0  0  0  0  0  0  0  0  0
    3.3465   -1.1011   -2.3521 H   0  0  0  0  0  0  0  0  0  0  0  0
    4.6111   -0.5869   -1.2175 H   0  0  0  0  0  0  0  0  0  0  0  0
    3.7907   -2.1442   -0.9792 H   0  0  0  0  0  0  0  0  0  0  0  0
  1  2  1  0  0  0  0
  2  3  1  0  0  0  0
  2  4  1  0  0  0  0
  2  5  1  0  0  0  0
  5  6  2  0  0  0  0
  5  7  1  0  0  0  0
  7  8  1  0  0  0  0
  7  9  1  0  0  0  0
  9 10  1  0  0  0  0
  9 11  1  0  0  0  0
  9 15  1  0  0  0  0
 11 12  1  0  0  0  0
 11 13  1  0  0  0  0
 11 14  1  0  0  0  0
 15 16  2  0  0  0  0
 15 17  1  0  0  0  0
 17 18  1  0  0  0  0
 17 19  1  0  0  0  0
 19 20  1  0  0  0  0
 19 21  1  0  0  0  0
 19 22  1  0  0  0  0
M  END
$$$$

  -OEChem-11182114133D

 22 21  0     1  0  0  0  0  0999 V2000
   -2.6044   -3.6325    1.1459 H   0  0  0  0  0  0  0  0  0  0  0  0
   -2.5690   -2.6464    0.6745 C   0  0  0  0  0  0  0  0  0  0  0  0
   -3.4191   -2.0569    1.0253 H   0  0  0  0  0  0  0  0  0  0  0  0
   -2.6415   -2.7730   -0.4085 H   0  0  0  0  0  0  0  0  0  0  0  0
   -1.2703   -1.9453    1.0255 C   0  0  0  0  0  0  0  0  0  0  0  0
   -0.4673   -2.5009    1.7581 O   0  0  0  0  0  0  0  0  0  0  0  0
   -1.0250   -0.6833    0.5137 N   0  0  0  0  0  0  0  0  0  0  0  0
   -1.6758   -0.3949   -0.2103 H   0  0  0  0  0  0  0  0  0  0  0  0
    0.3145   -0.0655    0.4763 C   0  0  1  0  0  0  0  0  0  0  0  0
    0.2080    0.8916   -0.0423 H   0  0  0  0  0  0  0  0  0  0  0  0
    0.8151    0.2575    1.8948 C   0  0  0  0  0  0  0  0  0  0  0  0
    1.1406   -0.6479    2.4159 H   0  0  0  0  0  0  0  0  0  0  0  0
    1.6603    0.9506    1.8526 H   0  0  0  0  0  0  0  0  0  0  0  0
    0.0177    0.7263    2.4794 H   0  0  0  0  0  0  0  0  0  0  0  0
    1.3418   -0.8801   -0.3520 C   0  0  0  0  0  0  0  0  0  0  0  0
    0.9575   -1.6004   -1.2670 O   0  0  0  0  0  0  0  0  0  0  0  0
    2.6979   -0.6255   -0.2420 N   0  0  0  0  0  0  0  0  0  0  0  0
    2.9988   -0.0727    0.5543 H   0  0  0  0  0  0  0  0  0  0  0  0
    3.7049   -1.3401   -1.0174 C   0  0  0  0  0  0  0  0  0  0  0  0
    3.5493   -1.1799   -2.0895 H   0  0  0  0  0  0  0  0  0  0  0  0
    4.7060   -0.9826   -0.7580 H   0  0  0  0  0  0  0  0  0  0  0  0
    3.6557   -2.4145   -0.8108 H   0  0  0  0  0  0  0  0  0  0  0  0
  1  2  1  0  0  0  0
  2  3  1  0  0  0  0
  2  4  1  0  0  0  0
  2  5  1  0  0  0  0
  5  6  2  0  0  0  0
  5  7  1  0  0  0  0
  7  8  1  0  0  0  0
  7  9  1  0  0  0  0
  9 10  1  0  0  0  0
  9 11  1  0  0  0  0
  9 15  1  0  0  0  0
 11 12  1  0  0  0  0
 11 13  1  0  0  0  0
 11 14  1  0  0  0  0
 15 16  2  0  0  0  0
 15 17  1  0  0  0  0
 17 18  1  0  0  0  0
 17 19  1  0  0  0  0
 19 20  1  0  0  0  0
 19 21  1  0  0  0  0
 19 22  1  0  0  0  0
M  END
$$$$

  -OEChem-11182114133D

 22 21  0     1  0  0  0  0  0999 V2000
   -2.5740   -3.6495    1.1213 H   0  0  0  0  0  0  0  0  0  0  0  0
   -2.5591   -2.6492    0.6795 C   0  0  0  0  0  0  0  0  0  0  0  0
   -3.3976   -2.0741    1.0794 H   0  0  0  0  0  0  0  0  0  0  0  0
   -2.6714   -2.7427   -0.4036 H   0  0  0  0  0  0  0  0  0  0  0  0
   -1.2509   -1.9536    1.0050 C   0  0  0  0  0  0  0  0  0  0  0  0
   -0.4259   -2.5207    1.7038 O   0  0  0  0  0  0  0  0  0  0  0  0
   -1.0147   -0.6877    0.4998 N   0  0  0  0  0  0  0  0  0  0  0  0
   -1.6747   -0.3878   -0.2114 H   0  0  0  0  0  0  0  0  0  0  0  0
    0.3165   -0.0531    0.4763 C   0  0  1  0  0  0  0  0  0  0  0  0
    0.2074    0.9022   -0.0457 H   0  0  0  0  0  0  0  0  0  0  0  0
    0.7941    0.2808    1.9003 C   0  0  0  0  0  0  0  0  0  0  0  0
    1.0890   -0.6219    2.4434 H   0  0  0  0  0  0  0  0  0  0  0  0
    1.6539    0.9564    1.8638 H   0  0  0  0  0  0  0  0  0  0  0  0
   -0.0057    0.7753    2.4601 H   0  0  0  0  0  0  0  0  0  0  0  0
    1.3501   -0.8635   -0.3474 C   0  0  0  0  0  0  0  0  0  0  0  0
    0.9953   -1.4084   -1.3870 O   0  0  0  0  0  0  0  0  0  0  0  0
    2.6982   -0.8417   -0.0350 N   0  0  0  0  0  0  0  0  0  0  0  0
    2.9462   -0.4815    0.8812 H   0  0  0  0  0  0  0  0  0  0  0  0
    3.6918   -1.6126   -0.7724 C   0  0  0  0  0  0  0  0  0  0  0  0
    3.7048   -1.3145   -1.8261 H   0  0  0  0  0  0  0  0  0  0  0  0
    4.6889   -1.4424   -0.3551 H   0  0  0  0  0  0  0  0  0  0  0  0
    3.4677   -2.6829   -0.7115 H   0  0  0  0  0  0  0  0  0  0  0  0
  1  2  1  0  0  0  0
  2  3  1  0  0  0  0
  2  4  1  0  0  0  0
  2  5  1  0  0  0  0
  5  6  2  0  0  0  0
  5  7  1  0  0  0  0
  7  8  1  0  0  0  0
  7  9  1  0  0  0  0
  9 10  1  0  0  0  0
  9 11  1  0  0  0  0
  9 15  1  0  0  0  0
 11 12  1  0  0  0  0
 11 13  1  0  0  0  0
 11 14  1  0  0  0  0
 15 16  2  0  0  0  0
 15 17  1  0  0  0  0
 17 18  1  0  0  0  0
 17 19  1  0  0  0  0
 19 20  1  0  0  0  0
 19 21  1  0  0  0  0
 19 22  1  0  0  0  0
M  END
$$$$

  -OEChem-11182114133D

 22 21  0     1  0  0  0  0  0999 V2000
   -2.5559   -3.6565    1.1182 H   0  0  0  0  0  0  0  0  0  0  0  0
   -2.5486   -2.6524    0.6852 C   0  0  0  0  0  0  0  0  0  0  0  0
   -3.3766   -2.0795    1.1091 H   0  0  0  0  0  0  0  0  0  0  0  0
   -2.6853   -2.7355   -0.3958 H   0  0  0  0  0  0  0  0  0  0  0  0
   -1.2321   -1.9622    0.9880 C   0  0  0  0  0  0  0  0  0  0  0  0
   -0.3888   -2.5392    1.6564 O   0  0  0  0  0  0  0  0  0  0  0  0
   -1.0015   -0.6941    0.4868 N   0  0  0  0  0  0  0  0  0  0  0  0
   -1.6729   -0.3786   -0.2070 H   0  0  0  0  0  0  0  0  0  0  0  0
    0.3222   -0.0460    0.4761 C   0  0  1  0  0  0  0  0  0  0  0  0
    0.2119    0.9062   -0.0516 H   0  0  0  0  0  0  0  0  0  0  0  0
    0.7803    0.2998    1.9040 C   0  0  0  0  0  0  0  0  0  0  0  0
    1.0242   -0.6000    2.4759 H   0  0  0  0  0  0  0  0  0  0  0  0
    1.6678    0.9388    1.8725 H   0  0  0  0  0  0  0  0  0  0  0  0
   -0.0115    0.8395    2.4322 H   0  0  0  0  0  0  0  0  0  0  0  0
    1.3620   -0.8534   -0.3404 C   0  0  0  0  0  0  0  0  0  0  0  0
    1.0746   -1.2092   -1.4777 O   0  0  0  0  0  0  0  0  0  0  0  0
    2.6415   -1.0839    0.1330 N   0  0  0  0  0  0  0  0  0  0  0  0
    2.7850   -0.9260    1.1259 H   0  0  0  0  0  0  0  0  0  0  0  0
    3.6061   -1.9100   -0.5822 C   0  0  0  0  0  0  0  0  0  0  0  0
    3.8074   -1.4933   -1.5746 H   0  0  0  0  0  0  0  0  0  0  0  0
    4.5495   -1.9531   -0.0297 H   0  0  0  0  0  0  0  0  0  0  0  0
    3.2245   -2.9298   -0.6986 H   0  0  0  0  0  0  0  0  0  0  0  0
  1  2  1  0  0  0  0
  2  3  1  0  0  0  0
  2  4  1  0  0  0  0
  2  5  1  0  0  0  0
  5  6  2  0  0  0  0
  5  7  1  0  0  0  0
  7  8  1  0  0  0  0
  7  9  1  0  0  0  0
  9 10  1  0  0  0  0
  9 11  1  0  0  0  0
  9 15  1  0  0  0  0
 11 12  1  0  0  0  0
 11 13  1  0  0  0  0
 11 14  1  0  0  0  0
 15 16  2  0  0  0  0
 15 17  1  0  0  0  0
 17 18  1  0  0  0  0
 17 19  1  0  0  0  0
 19 20  1  0  0  0  0
 19 21  1  0  0  0  0
 19 22  1  0  0  0  0
M  END
$$$$

  -OEChem-11182114133D

 22 21  0     1  0  0  0  0  0999 V2000
   -2.5655   -3.6498    1.1367 H   0  0  0  0  0  0  0  0  0  0  0  0
   -2.5557   -2.6463    0.7019 C   0  0  0  0  0  0  0  0  0  0  0  0
   -3.3633   -2.0611    1.1479 H   0  0  0  0  0  0  0  0  0  0  0  0
   -2.7237   -2.7284   -0.3747 H   0  0  0  0  0  0  0  0  0  0  0  0
   -1.2221   -1.9744    0.9674 C   0  0  0  0  0  0  0  0  0  0  0  0
   -0.3648   -2.5651    1.6059 O   0  0  0  0  0  0  0  0  0  0  0  0
   -0.9883   -0.7069    0.4665 N   0  0  0  0  0  0  0  0  0  0  0  0
   -1.6769   -0.3645   -0.1973 H   0  0  0  0  0  0  0  0  0  0  0  0
    0.3312   -0.0512    0.4682 C   0  0  1  0  0  0  0  0  0  0  0  0
    0.2231    0.8986   -0.0648 H   0  0  0  0  0  0  0  0  0  0  0  0
    0.7727    0.3029    1.8990 C   0  0  0  0  0  0  0  0  0  0  0  0
    0.9720   -0.5930    2.4935 H   0  0  0  0  0  0  0  0  0  0  0  0
    1.6840    0.9083    1.8730 H   0  0  0  0  0  0  0  0  0  0  0  0
   -0.0095    0.8806    2.4005 H   0  0  0  0  0  0  0  0  0  0  0  0
    1.3809   -0.8574   -0.3347 C   0  0  0  0  0  0  0  0  0  0  0  0
    1.2093   -1.0134   -1.5379 O   0  0  0  0  0  0  0  0  0  0  0  0
    2.5338   -1.3435    0.2550 N   0  0  0  0  0  0  0  0  0  0  0  0
    2.5172   -1.3897    1.2702 H   0  0  0  0  0  0  0  0  0  0  0  0
    3.4725   -2.2030   -0.4550 C   0  0  0  0  0  0  0  0  0  0  0  0
    3.8635   -1.6944   -1.3424 H   0  0  0  0  0  0  0  0  0  0  0  0
    4.3157   -2.4580    0.1941 H   0  0  0  0  0  0  0  0  0  0  0  0
    2.9810   -3.1302   -0.7678 H   0  0  0  0  0  0  0  0  0  0  0  0
  1  2  1  0  0  0  0
  2  3  1  0  0  0  0
  2  4  1  0  0  0  0
  2  5  1  0  0  0  0
  5  6  2  0  0  0  0
  5  7  1  0  0  0  0
  7  8  1  0  0  0  0
  7  9  1  0  0  0  0
  9 10  1  0  0  0  0
  9 11  1  0  0  0  0
  9 15  1  0  0  0  0
 11 12  1  0  0  0  0
 11 13  1  0  0  0  0
 11 14  1  0  0  0  0
 15 16  2  0  0  0  0
 15 17  1  0  0  0  0
 17 18  1  0  0  0  0
 17 19  1  0  0  0  0
 19 20  1  0  0  0  0
 19 21  1  0  0  0  0
 19 22  1  0  0  0  0
M  END
$$$$

  -OEChem-11182114133D

 22 21  0     1  0  0  0  0  0999 V2000
   -2.5894   -3.6376    1.1580 H   0  0  0  0  0  0  0  0  0  0  0  0
   -2.5741   -2.6345    0.7226 C   0  0  0  0  0  0  0  0  0  0  0  0
   -3.3617   -2.0368    1.1876 H   0  0  0  0  0  0  0  0  0  0  0  0
   -2.7701   -2.7142   -0.3495 H   0  0  0  0  0  0  0  0  0  0  0  0
   -1.2238   -1.9839    0.9557 C   0  0  0  0  0  0  0  0  0  0  0  0
   -0.3593   -2.5877    1.5730 O   0  0  0  0  0  0  0  0  0  0  0  0
   -0.9800   -0.7207    0.4491 N   0  0  0  0  0  0  0  0  0  0  0  0
   -1.6864   -0.3483   -0.1792 H   0  0  0  0  0  0  0  0  0  0  0  0
    0.3394   -0.0655    0.4560 C   0  0  1  0  0  0  0  0  0  0  0  0
    0.2353    0.8826   -0.0814 H   0  0  0  0  0  0  0  0  0  0  0  0
    0.7757    0.2929    1.8870 C   0  0  0  0  0  0  0  0  0  0  0  0
    0.9404   -0.5999    2.4962 H   0  0  0  0  0  0  0  0  0  0  0  0
    1.7066    0.8677    1.8623 H   0  0  0  0  0  0  0  0  0  0  0  0
    0.0072    0.9020    2.3722 H   0  0  0  0  0  0  0  0  0  0  0  0
    1.3959   -0.8752   -0.3323 C   0  0  0  0  0  0  0  0  0  0  0  0
    1.3852   -0.8284   -1.5563 O   0  0  0  0  0  0  0  0  0  0  0  0
    2.3724   -1.6079    0.3160 N   0  0  0  0  0  0  0  0  0  0  0  0
    2.1547   -1.8390    1.2834 H   0  0  0  0  0  0  0  0  0  0  0  0
    3.2985   -2.4761   -0.3991 C   0  0  0  0  0  0  0  0  0  0  0  0
    3.8790   -1.9006   -1.1278 H   0  0  0  0  0  0  0  0  0  0  0  0
    3.9956   -2.9435    0.3029 H   0  0  0  0  0  0  0  0  0  0  0  0
    2.7534   -3.2658   -0.9266 H   0  0  0  0  0  0  0  0  0  0  0  0
  1  2  1  0  0  0  0
  2  3  1  0  0  0  0
  2  4  1  0  0  0  0
  2  5  1  0  0  0  0
  5  6  2  0  0  0  0
  5  7  1  0  0  0  0
  7  8  1  0  0  0  0
  7  9  1  0  0  0  0
  9 10  1  0  0  0  0
  9 11  1  0  0  0  0
  9 15  1  0  0  0  0
 11 12  1  0  0  0  0
 11 13  1  0  0  0  0
 11 14  1  0  0  0  0
 15 16  2  0  0  0  0
 15 17  1  0  0  0  0
 17 18  1  0  0  0  0
 17 19  1  0  0  0  0
 19 20  1  0  0  0  0
 19 21  1  0  0  0  0
 19 22  1  0  0  0  0
M  END
$$$$

  -OEChem-11182114133D

 22 21  0     1  0  0  0  0  0999 V2000
   -2.6455   -3.6143    1.1843 H   0  0  0  0  0  0  0  0  0  0  0  0
   -2.6144   -2.6124    0.7471 C   0  0  0  0  0  0  0  0  0  0  0  0
   -3.3770   -1.9950    1.2277 H   0  0  0  0  0  0  0  0  0  0  0  0
   -2.8347   -2.6880   -0.3205 H   0  0  0  0  0  0  0  0  0  0  0  0
   -1.2438   -1.9956    0.9505 C   0  0  0  0  0  0  0  0  0  0  0  0
   -0.3822   -2.6200    1.5516 O   0  0  0  0  0  0  0  0  0  0  0  0
   -0.9792   -0.7394    0.4366 N   0  0  0  0  0  0  0  0  0  0  0  0
   -1.7041   -0.3302   -0.1458 H   0  0  0  0  0  0  0  0  0  0  0  0
    0.3438   -0.0897    0.4397 C   0  0  1  0  0  0  0  0  0  0  0  0
    0.2418    0.8582   -0.0985 H   0  0  0  0  0  0  0  0  0  0  0  0
    0.7832    0.2658    1.8695 C   0  0  0  0  0  0  0  0  0  0  0  0
    0.9411   -0.6283    2.4789 H   0  0  0  0  0  0  0  0  0  0  0  0
    1.7198    0.8314    1.8436 H   0  0  0  0  0  0  0  0  0  0  0  0
    0.0209    0.8825    2.3551 H   0  0  0  0  0  0  0  0  0  0  0  0
    1.4095   -0.8990   -0.3361 C   0  0  0  0  0  0  0  0  0  0  0  0
    1.5926   -0.6611   -1.5234 O   0  0  0  0  0  0  0  0  0  0  0  0
    2.1805   -1.8532    0.2995 N   0  0  0  0  0  0  0  0  0  0  0  0
    1.7694   -2.2101    1.1636 H   0  0  0  0  0  0  0  0  0  0  0  0
    3.1067   -2.7166   -0.4212 C   0  0  0  0  0  0  0  0  0  0  0  0
    3.8573   -2.1191   -0.9490 H   0  0  0  0  0  0  0  0  0  0  0  0
    3.6254   -3.3791    0.2783 H   0  0  0  0  0  0  0  0  0  0  0  0
    2.5693   -3.3318   -1.1505 H   0  0  0  0  0  0  0  0  0  0  0  0
  1  2  1  0  0  0  0
  2  3  1  0  0  0  0
  2  4  1  0  0  0  0
  2  5  1  0  0  0  0
  5  6  2  0  0  0  0
  5  7  1  0  0  0  0
  7  8  1  0  0  0  0
  7  9  1  0  0  0  0
  9 10  1  0  0  0  0
  9 11  1  0  0  0  0
  9 15  1  0  0  0  0
 11 12  1  0  0  0  0
 11 13  1  0  0  0  0
 11 14  1  0  0  0  0
 15 16  2  0  0  0  0
 15 17  1  0  0  0  0
 17 18  1  0  0  0  0
 17 19  1  0  0  0  0
 19 20  1  0  0  0  0
 19 21  1  0  0  0  0
 19 22  1  0  0  0  0
M  END
$$$$

  -OEChem-11182114133D

 22 21  0     1  0  0  0  0  0999 V2000
   -2.7571   -3.5727    1.2074 H   0  0  0  0  0  0  0  0  0  0  0  0
   -2.6965   -2.5664    0.7831 C   0  0  0  0  0  0  0  0  0  0  0  0
   -3.4124   -1.9231    1.3006 H   0  0  0  0  0  0  0  0  0  0  0  0
   -2.9602   -2.6159   -0.2762 H   0  0  0  0  0  0  0  0  0  0  0  0
   -1.2927   -2.0134    0.9439 C   0  0  0  0  0  0  0  0  0  0  0  0
   -0.4491   -2.6721    1.5328 O   0  0  0  0  0  0  0  0  0  0  0  0
   -0.9904   -0.7693    0.4211 N   0  0  0  0  0  0  0  0  0  0  0  0
   -1.7294   -0.3184   -0.1108 H   0  0  0  0  0  0  0  0  0  0  0  0
    0.3396   -0.1286    0.4123 C   0  0  1  0  0  0  0  0  0  0  0  0
    0.2368    0.8215   -0.1220 H   0  0  0  0  0  0  0  0  0  0  0  0
    0.7848    0.2128    1.8421 C   0  0  0  0  0  0  0  0  0  0  0  0
    0.9560   -0.6905    2.4347 H   0  0  0  0  0  0  0  0  0  0  0  0
    1.7165    0.7867    1.8176 H   0  0  0  0  0  0  0  0  0  0  0  0
    0.0208    0.8150    2.3425 H   0  0  0  0  0  0  0  0  0  0  0  0
    1.4258   -0.9264   -0.3479 C   0  0  0  0  0  0  0  0  0  0  0  0
    1.8051   -0.5282   -1.4418 O   0  0  0  0  0  0  0  0  0  0  0  0
    1.9924   -2.0617    0.1974 N   0  0  0  0  0  0  0  0  0  0  0  0
    1.4635   -2.4719    0.9715 H   0  0  0  0  0  0  0  0  0  0  0  0
    2.9345   -2.9056   -0.5245 C   0  0  0  0  0  0  0  0  0  0  0  0
    3.8088   -2.3247   -0.8363 H   0  0  0  0  0  0  0  0  0  0  0  0
    3.2765   -3.7225    0.1181 H   0  0  0  0  0  0  0  0  0  0  0  0
    2.4607   -3.3350   -1.4132 H   0  0  0  0  0  0  0  0  0  0  0  0
  1  2  1  0  0  0  0
  2  3  1  0  0  0  0
  2  4  1  0  0  0  0
  2  5  1  0  0  0  0
  5  6  2  0  0  0  0
  5  7  1  0  0  0  0
  7  8  1  0  0  0  0
  7  9  1  0  0  0  0
  9 10  1  0  0  0  0
  9 11  1  0  0  0  0
  9 15  1  0  0  0  0
 11 12  1  0  0  0  0
 11 13  1  0  0  0  0
 11 14  1  0  0  0  0
 15 16  2  0  0  0  0
 15 17  1  0  0  0  0
 17 18  1  0  0  0  0
 17 19  1  0  0  0  0
 19 20  1  0  0  0  0
 19 21  1  0  0  0  0
 19 22  1  0  0  0  0
M  END
$$$$

  -OEChem-11182114133D

 22 21  0     1  0  0  0  0  0999 V2000
   -2.8609   -3.5198    1.2548 H   0  0  0  0  0  0  0  0  0  0  0  0
   -2.7673   -2.5266    0.8065 C   0  0  0  0  0  0  0  0  0  0  0  0
   -3.4645   -1.8489    1.3052 H   0  0  0  0  0  0  0  0  0  0  0  0
   -3.0285   -2.5939   -0.2524 H   0  0  0  0  0  0  0  0  0  0  0  0
   -1.3474   -2.0146    0.9593 C   0  0  0  0  0  0  0  0  0  0  0  0
   -0.5232   -2.6978    1.5460 O   0  0  0  0  0  0  0  0  0  0  0  0
   -1.0126   -0.7821    0.4287 N   0  0  0  0  0  0  0  0  0  0  0  0
   -1.7525   -0.3092   -0.0823 H   0  0  0  0  0  0  0  0  0  0  0  0
    0.3278   -0.1587    0.3972 C   0  0  1  0  0  0  0  0  0  0  0  0
    0.2245    0.7941   -0.1324 H   0  0  0  0  0  0  0  0  0  0  0  0
    0.7953    0.1686    1.8220 C   0  0  0  0  0  0  0  0  0  0  0  0
    0.9859   -0.7427    2.3965 H   0  0  0  0  0  0  0  0  0  0  0  0
    1.7215    0.7509    1.7881 H   0  0  0  0  0  0  0  0  0  0  0  0
    0.0362    0.7572    2.3458 H   0  0  0  0  0  0  0  0  0  0  0  0
    1.4181   -0.9518   -0.3643 C   0  0  0  0  0  0  0  0  0  0  0  0
    1.9730   -0.4307   -1.3231 O   0  0  0  0  0  0  0  0  0  0  0  0
    1.7843   -2.2287    0.0115 N   0  0  0  0  0  0  0  0  0  0  0  0
    1.2078   -2.6621    0.7382 H   0  0  0  0  0  0  0  0  0  0  0  0
    2.7456   -3.0464   -0.7145 C   0  0  0  0  0  0  0  0  0  0  0  0
    3.7090   -2.5311   -0.7886 H   0  0  0  0  0  0  0  0  0  0  0  0
    2.9019   -3.9948   -0.1919 H   0  0  0  0  0  0  0  0  0  0  0  0
    2.3809   -3.2611   -1.7242 H   0  0  0  0  0  0  0  0  0  0  0  0
  1  2  1  0  0  0  0
  2  3  1  0  0  0  0
  2  4  1  0  0  0  0
  2  5  1  0  0  0  0
  5  6  2  0  0  0  0
  5  7  1  0  0  0  0
  7  8  1  0  0  0  0
  7  9  1  0  0  0  0
  9 10  1  0  0  0  0
  9 11  1  0  0  0  0
  9 15  1  0  0  0  0
 11 12  1  0  0  0  0
 11 13  1  0  0  0  0
 11 14  1  0  0  0  0
 15 16  2  0  0  0  0
 15 17  1  0  0  0  0
 17 18  1  0  0  0  0
 17 19  1  0  0  0  0
 19 20  1  0  0  0  0
 19 21  1  0  0  0  0
 19 22  1  0  0  0  0
M  END
$$$$

  -OEChem-11182114133D

 22 21  0     1  0  0  0  0  0999 V2000
   -2.9628   -3.4536    1.3406 H   0  0  0  0  0  0  0  0  0  0  0  0
   -2.8466   -2.4737    0.8685 C   0  0  0  0  0  0  0  0  0  0  0  0
   -3.4981   -1.7596    1.3780 H   0  0  0  0  0  0  0  0  0  0  0  0
   -3.1486   -2.5507   -0.1789 H   0  0  0  0  0  0  0  0  0  0  0  0
   -1.4026   -2.0165    0.9593 C   0  0  0  0  0  0  0  0  0  0  0  0
   -0.5787   -2.7391    1.4965 O   0  0  0  0  0  0  0  0  0  0  0  0
   -1.0479   -0.7901    0.4274 N   0  0  0  0  0  0  0  0  0  0  0  0
   -1.7986   -0.2779   -0.0268 H   0  0  0  0  0  0  0  0  0  0  0  0
    0.3038   -0.1906    0.3637 C   0  0  1  0  0  0  0  0  0  0  0  0
    0.2014    0.7698   -0.1522 H   0  0  0  0  0  0  0  0  0  0  0  0
    0.8062    0.1074    1.7824 C   0  0  0  0  0  0  0  0  0  0  0  0
    0.9953   -0.8172    2.3361 H   0  0  0  0  0  0  0  0  0  0  0  0
    1.7404    0.6763    1.7381 H   0  0  0  0  0  0  0  0  0  0  0  0
    0.0674    0.6981    2.3321 H   0  0  0  0  0  0  0  0  0  0  0  0
    1.3815   -0.9789   -0.4229 C   0  0  0  0  0  0  0  0  0  0  0  0
    2.1104   -0.3699   -1.1953 O   0  0  0  0  0  0  0  0  0  0  0  0
    1.5530   -2.3413   -0.2811 N   0  0  0  0  0  0  0  0  0  0  0  0
    0.9637   -2.7999    0.4189 H   0  0  0  0  0  0  0  0  0  0  0  0
    2.5970   -3.1066   -0.9481 C   0  0  0  0  0  0  0  0  0  0  0  0
    3.5860   -2.7273   -0.6710 H   0  0  0  0  0  0  0  0  0  0  0  0
    2.5359   -4.1596   -0.6573 H   0  0  0  0  0  0  0  0  0  0  0  0
    2.4847   -3.0406   -2.0352 H   0  0  0  0  0  0  0  0  0  0  0  0
  1  2  1  0  0  0  0
  2  3  1  0  0  0  0
  2  4  1  0  0  0  0
  2  5  1  0  0  0  0
  5  6  2  0  0  0  0
  5  7  1  0  0  0  0
  7  8  1  0  0  0  0
  7  9  1  0  0  0  0
  9 10  1  0  0  0  0
  9 11  1  0  0  0  0
  9 15  1  0  0  0  0
 11 12  1  0  0  0  0
 11 13  1  0  0  0  0
 11 14  1  0  0  0  0
 15 16  2  0  0  0  0
 15 17  1  0  0  0  0
 17 18  1  0  0  0  0
 17 19  1  0  0  0  0
 19 20  1  0  0  0  0
 19 21  1  0  0  0  0
 19 22  1  0  0  0  0
M  END
$$$$

  -OEChem-11182114133D

 22 21  0     1  0  0  0  0  0999 V2000
   -3.0034   -3.4200    1.3912 H   0  0  0  0  0  0  0  0  0  0  0  0
   -2.8840   -2.4385    0.9234 C   0  0  0  0  0  0  0  0  0  0  0  0
   -3.4818   -1.7109    1.4776 H   0  0  0  0  0  0  0  0  0  0  0  0
   -3.2489   -2.4928   -0.1052 H   0  0  0  0  0  0  0  0  0  0  0  0
   -1.4242   -2.0261    0.9354 C   0  0  0  0  0  0  0  0  0  0  0  0
   -0.5890   -2.7872    1.3957 O   0  0  0  0  0  0  0  0  0  0  0  0
   -1.0659   -0.7980    0.4111 N   0  0  0  0  0  0  0  0  0  0  0  0
   -1.8301   -0.2453    0.0335 H   0  0  0  0  0  0  0  0  0  0  0  0
    0.2887   -0.2049    0.3374 C   0  0  1  0  0  0  0  0  0  0  0  0
    0.1848    0.7613   -0.1673 H   0  0  0  0  0  0  0  0  0  0  0  0
    0.7999    0.0716    1.7573 C   0  0  0  0  0  0  0  0  0  0  0  0
    0.9940   -0.8627    2.2928 H   0  0  0  0  0  0  0  0  0  0  0  0
    1.7330    0.6426    1.7167 H   0  0  0  0  0  0  0  0  0  0  0  0
    0.0645    0.6518    2.3225 H   0  0  0  0  0  0  0  0  0  0  0  0
    1.3660   -0.9795   -0.4646 C   0  0  0  0  0  0  0  0  0  0  0  0
    2.2401   -0.3413   -1.0372 O   0  0  0  0  0  0  0  0  0  0  0  0
    1.3626   -2.3555   -0.5819 N   0  0  0  0  0  0  0  0  0  0  0  0
    0.7336   -2.8465    0.0578 H   0  0  0  0  0  0  0  0  0  0  0  0
    2.4305   -3.1074   -1.2266 C   0  0  0  0  0  0  0  0  0  0  0  0
    3.3821   -2.9397   -0.7117 H   0  0  0  0  0  0  0  0  0  0  0  0
    2.2053   -4.1779   -1.2013 H   0  0  0  0  0  0  0  0  0  0  0  0
    2.5364   -2.8021   -2.2728 H   0  0  0  0  0  0  0  0  0  0  0  0
  1  2  1  0  0  0  0
  2  3  1  0  0  0  0
  2  4  1  0  0  0  0
  2  5  1  0  0  0  0
  5  6  2  0  0  0  0
  5  7  1  0  0  0  0
  7  8  1  0  0  0  0
  7  9  1  0  0  0  0
  9 10  1  0  0  0  0
  9 11  1  0  0  0  0
  9 15  1  0  0  0  0
 11 12  1  0  0  0  0
 11 13  1  0  0  0  0
 11 14  1  0  0  0  0
 15 16  2  0  0  0  0
 15 17  1  0  0  0  0
 17 18  1  0  0  0  0
 17 19  1  0  0  0  0
 19 20  1  0  0  0  0
 19 21  1  0  0  0  0
 19 22  1  0  0  0  0
M  END
$$$$

  -OEChem-11182114133D

 22 21  0     1  0  0  0  0  0999 V2000
   -2.9930   -3.4113    1.4193 H   0  0  0  0  0  0  0  0  0  0  0  0
   -2.8870   -2.4228    0.9632 C   0  0  0  0  0  0  0  0  0  0  0  0
   -3.4392   -1.6977    1.5659 H   0  0  0  0  0  0  0  0  0  0  0  0
   -3.3134   -2.4522   -0.0426 H   0  0  0  0  0  0  0  0  0  0  0  0
   -1.4226   -2.0328    0.8954 C   0  0  0  0  0  0  0  0  0  0  0  0
   -0.5715   -2.8273    1.2586 O   0  0  0  0  0  0  0  0  0  0  0  0
   -1.0716   -0.7983    0.3819 N   0  0  0  0  0  0  0  0  0  0  0  0
   -1.8469   -0.2087    0.0930 H   0  0  0  0  0  0  0  0  0  0  0  0
    0.2828   -0.2023    0.3190 C   0  0  1  0  0  0  0  0  0  0  0  0
    0.1829    0.7686   -0.1766 H   0  0  0  0  0  0  0  0  0  0  0  0
    0.7793    0.0540    1.7485 C   0  0  0  0  0  0  0  0  0  0  0  0
    0.9677   -0.8889    2.2711 H   0  0  0  0  0  0  0  0  0  0  0  0
    1.7128    0.6257    1.7275 H   0  0  0  0  0  0  0  0  0  0  0  0
    0.0382    0.6256    2.3149 H   0  0  0  0  0  0  0  0  0  0  0  0
    1.3682   -0.9658   -0.4839 C   0  0  0  0  0  0  0  0  0  0  0  0
    2.3605   -0.3528   -0.8574 O   0  0  0  0  0  0  0  0  0  0  0  0
    1.2155   -2.2841   -0.8677 N   0  0  0  0  0  0  0  0  0  0  0  0
    0.5274   -2.8030   -0.3184 H   0  0  0  0  0  0  0  0  0  0  0  0
    2.2707   -3.0390   -1.5303 C   0  0  0  0  0  0  0  0  0  0  0  0
    3.1585   -3.0975   -0.8922 H   0  0  0  0  0  0  0  0  0  0  0  0
    1.9286   -4.0560   -1.7442 H   0  0  0  0  0  0  0  0  0  0  0  0
    2.5469   -2.5629   -2.4769 H   0  0  0  0  0  0  0  0  0  0  0  0
  1  2  1  0  0  0  0
  2  3  1  0  0  0  0
  2  4  1  0  0  0  0
  2  5  1  0  0  0  0
  5  6  2  0  0  0  0
  5  7  1  0  0  0  0
  7  8  1  0  0  0  0
  7  9  1  0  0  0  0
  9 10  1  0  0  0  0
  9 11  1  0  0  0  0
  9 15  1  0  0  0  0
 11 12  1  0  0  0  0
 11 13  1  0  0  0  0
 11 14  1  0  0  0  0
 15 16  2  0  0  0  0
 15 17  1  0  0  0  0
 17 18  1  0  0  0  0
 17 19  1  0  0  0  0
 19 20  1  0  0  0  0
 19 21  1  0  0  0  0
 19 22  1  0  0  0  0
M  END
$$$$

  -OEChem-11182114133D

 22 21  0     1  0  0  0  0  0999 V2000
   -2.9565   -3.4178    1.4278 H   0  0  0  0  0  0  0  0  0  0  0  0
   -2.8667   -2.4178    0.9938 C   0  0  0  0  0  0  0  0  0  0  0  0
   -3.3731   -1.7048    1.6491 H   0  0  0  0  0  0  0  0  0  0  0  0
   -3.3535   -2.4136    0.0155 H   0  0  0  0  0  0  0  0  0  0  0  0
   -1.4046   -2.0405    0.8480 C   0  0  0  0  0  0  0  0  0  0  0  0
   -0.5402   -2.8576    1.1138 O   0  0  0  0  0  0  0  0  0  0  0  0
   -1.0687   -0.7975    0.3469 N   0  0  0  0  0  0  0  0  0  0  0  0
   -1.8516   -0.1819    0.1473 H   0  0  0  0  0  0  0  0  0  0  0  0
    0.2832   -0.1948    0.3074 C   0  0  1  0  0  0  0  0  0  0  0  0
    0.1887    0.7786   -0.1839 H   0  0  0  0  0  0  0  0  0  0  0  0
    0.7522    0.0500    1.7489 C   0  0  0  0  0  0  0  0  0  0  0  0
    0.9441   -0.8984    2.2607 H   0  0  0  0  0  0  0  0  0  0  0  0
    1.6782    0.6341    1.7527 H   0  0  0  0  0  0  0  0  0  0  0  0
   -0.0055    0.6041    2.3106 H   0  0  0  0  0  0  0  0  0  0  0  0
    1.3773   -0.9527   -0.4893 C   0  0  0  0  0  0  0  0  0  0  0  0
    2.4639   -0.4139   -0.6620 O   0  0  0  0  0  0  0  0  0  0  0  0
    1.1120   -2.1442   -1.1368 N   0  0  0  0  0  0  0  0  0  0  0  0
    0.3433   -2.6701   -0.7203 H   0  0  0  0  0  0  0  0  0  0  0  0
    2.1459   -2.8980   -1.8342 C   0  0  0  0  0  0  0  0  0  0  0  0
    2.9372   -3.1959   -1.1383 H   0  0  0  0  0  0  0  0  0  0  0  0
    1.7179   -3.8000   -2.2816 H   0  0  0  0  0  0  0  0  0  0  0  0
    2.5882   -2.2947   -2.6339 H   0  0  0  0  0  0  0  0  0  0  0  0
  1  2  1  0  0  0  0
  2  3  1  0  0  0  0
  2  4  1  0  0  0  0
  2  5  1  0  0  0  0
  5  6  2  0  0  0  0
  5  7  1  0  0  0  0
  7  8  1  0  0  0  0
  7  9  1  0  0  0  0
  9 10  1  0  0  0  0
  9 11  1  0  0  0  0
  9 15  1  0  0  0  0
 11 12  1  0  0  0  0
 11 13  1  0  0  0  0
 11 14  1  0  0  0  0
 15 16  2  0  0  0  0
 15 17  1  0  0  0  0
 17 18  1  0  0  0  0
 17 19  1  0  0  0  0
 19 20  1  0  0  0  0
 19 21  1  0  0  0  0
 19 22  1  0  0  0  0
M  END
$$$$

  -OEChem-11182114133D

 22 21  0     1  0  0  0  0  0999 V2000
   -2.8897   -3.4336    1.4448 H   0  0  0  0  0  0  0  0  0  0  0  0
   -2.8246   -2.4354    1.0023 C   0  0  0  0  0  0  0  0  0  0  0  0
   -3.3169   -1.7244    1.6702 H   0  0  0  0  0  0  0  0  0  0  0  0
   -3.3432   -2.4419    0.0406 H   0  0  0  0  0  0  0  0  0  0  0  0
   -1.3716   -2.0455    0.8069 C   0  0  0  0  0  0  0  0  0  0  0  0
   -0.4940   -2.8642    1.0139 O   0  0  0  0  0  0  0  0  0  0  0  0
   -1.0570   -0.7904    0.3221 N   0  0  0  0  0  0  0  0  0  0  0  0
   -1.8454   -0.1634    0.1901 H   0  0  0  0  0  0  0  0  0  0  0  0
    0.2920   -0.1813    0.3103 C   0  0  1  0  0  0  0  0  0  0  0  0
    0.2049    0.7949   -0.1758 H   0  0  0  0  0  0  0  0  0  0  0  0
    0.7328    0.0555    1.7630 C   0  0  0  0  0  0  0  0  0  0  0  0
    0.9176   -0.8960    2.2718 H   0  0  0  0  0  0  0  0  0  0  0  0
    1.6564    0.6428    1.7900 H   0  0  0  0  0  0  0  0  0  0  0  0
   -0.0377    0.6036    2.3132 H   0  0  0  0  0  0  0  0  0  0  0  0
    1.3873   -0.9385   -0.4860 C   0  0  0  0  0  0  0  0  0  0  0  0
    2.5438   -0.5352   -0.4564 O   0  0  0  0  0  0  0  0  0  0  0  0
    1.0512   -1.9345   -1.3837 N   0  0  0  0  0  0  0  0  0  0  0  0
    0.1731   -2.4004   -1.1681 H   0  0  0  0  0  0  0  0  0  0  0  0
    2.0574   -2.6928   -2.1162 C   0  0  0  0  0  0  0  0  0  0  0  0
    2.7179   -3.2229   -1.4220 H   0  0  0  0  0  0  0  0  0  0  0  0
    1.5750   -3.4280   -2.7673 H   0  0  0  0  0  0  0  0  0  0  0  0
    2.6627   -2.0266   -2.7398 H   0  0  0  0  0  0  0  0  0  0  0  0
  1  2  1  0  0  0  0
  2  3  1  0  0  0  0
  2  4  1  0  0  0  0
  2  5  1  0  0  0  0
  5  6  2  0  0  0  0
  5  7  1  0  0  0  0
  7  8  1  0  0  0  0
  7  9  1  0  0  0  0
  9 10  1  0  0  0  0
  9 11  1  0  0  0  0
  9 15  1  0  0  0  0
 11 12  1  0  0  0  0
 11 13  1  0  0  0  0
 11 14  1  0  0  0  0
 15 16  2  0  0  0  0
 15 17  1  0  0  0  0
 17 18  1  0  0  0  0
 17 19  1  0  0  0  0
 19 20  1  0  0  0  0
 19 21  1  0  0  0  0
 19 22  1  0  0  0  0
M  END
$$$$

  -OEChem-11182114133D

 22 21  0     1  0  0  0  0  0999 V2000
   -2.8299   -3.4651    1.4198 H   0  0  0  0  0  0  0  0  0  0  0  0
   -2.7772   -2.4682    0.9728 C   0  0  0  0  0  0  0  0  0  0  0  0
   -3.2886   -1.7623    1.6316 H   0  0  0  0  0  0  0  0  0  0  0  0
   -3.2848   -2.4885    0.0055 H   0  0  0  0  0  0  0  0  0  0  0  0
   -1.3293   -2.0536    0.7907 C   0  0  0  0  0  0  0  0  0  0  0  0
   -0.4396   -2.8538    1.0151 O   0  0  0  0  0  0  0  0  0  0  0  0
   -1.0359   -0.7883    0.3177 N   0  0  0  0  0  0  0  0  0  0  0  0
   -1.8330   -0.1693    0.2015 H   0  0  0  0  0  0  0  0  0  0  0  0
    0.3059   -0.1659    0.3250 C   0  0  1  0  0  0  0  0  0  0  0  0
    0.2180    0.8108   -0.1599 H   0  0  0  0  0  0  0  0  0  0  0  0
    0.7304    0.0739    1.7833 C   0  0  0  0  0  0  0  0  0  0  0  0
    0.9255   -0.8760    2.2911 H   0  0  0  0  0  0  0  0  0  0  0  0
    1.6445    0.6750    1.8199 H   0  0  0  0  0  0  0  0  0  0  0  0
   -0.0529    0.6085    2.3284 H   0  0  0  0  0  0  0  0  0  0  0  0
    1.3959   -0.9256   -0.4756 C   0  0  0  0  0  0  0  0  0  0  0  0
    2.5837   -0.7109   -0.2653 O   0  0  0  0  0  0  0  0  0  0  0  0
    1.0413   -1.6774   -1.5808 N   0  0  0  0  0  0  0  0  0  0  0  0
    0.0715   -1.9770   -1.5994 H   0  0  0  0  0  0  0  0  0  0  0  0
    2.0137   -2.4458   -2.3475 C   0  0  0  0  0  0  0  0  0  0  0  0
    2.5019   -3.1897   -1.7092 H   0  0  0  0  0  0  0  0  0  0  0  0
    1.5179   -2.9666   -3.1721 H   0  0  0  0  0  0  0  0  0  0  0  0
    2.7791   -1.7855   -2.7688 H   0  0  0  0  0  0  0  0  0  0  0  0
  1  2  1  0  0  0  0
  2  3  1  0  0  0  0
  2  4  1  0  0  0  0
  2  5  1  0  0  0  0
  5  6  2  0  0  0  0
  5  7  1  0  0  0  0
  7  8  1  0  0  0  0
  7  9  1  0  0  0  0
  9 10  1  0  0  0  0
  9 11  1  0  0  0  0
  9 15  1  0  0  0  0
 11 12  1  0  0  0  0
 11 13  1  0  0  0  0
 11 14  1  0  0  0  0
 15 16  2  0  0  0  0
 15 17  1  0  0  0  0
 17 18  1  0  0  0  0
 17 19  1  0  0  0  0
 19 20  1  0  0  0  0
 19 21  1  0  0  0  0
 19 22  1  0  0  0  0
M  END
$$$$

  -OEChem-11182114133D

 22 21  0     1  0  0  0  0  0999 V2000
   -2.7951   -3.4936    1.3815 H   0  0  0  0  0  0  0  0  0  0  0  0
   -2.7471   -2.4949    0.9379 C   0  0  0  0  0  0  0  0  0  0  0  0
   -3.2852   -1.7983    1.5853 H   0  0  0  0  0  0  0  0  0  0  0  0
   -3.2301   -2.5214   -0.0418 H   0  0  0  0  0  0  0  0  0  0  0  0
   -1.3015   -2.0581    0.7921 C   0  0  0  0  0  0  0  0  0  0  0  0
   -0.4073   -2.8422    1.0522 O   0  0  0  0  0  0  0  0  0  0  0  0
   -1.0175   -0.7894    0.3210 N   0  0  0  0  0  0  0  0  0  0  0  0
   -1.8200   -0.1791    0.1974 H   0  0  0  0  0  0  0  0  0  0  0  0
    0.3187   -0.1574    0.3384 C   0  0  1  0  0  0  0  0  0  0  0  0
    0.2318    0.8177   -0.1497 H   0  0  0  0  0  0  0  0  0  0  0  0
    0.7340    0.0916    1.7980 C   0  0  0  0  0  0  0  0  0  0  0  0
    0.9248   -0.8549    2.3141 H   0  0  0  0  0  0  0  0  0  0  0  0
    1.6493    0.6909    1.8354 H   0  0  0  0  0  0  0  0  0  0  0  0
   -0.0519    0.6308    2.3345 H   0  0  0  0  0  0  0  0  0  0  0  0
    1.4030   -0.9263   -0.4607 C   0  0  0  0  0  0  0  0  0  0  0  0
    2.5768   -0.9179   -0.1095 O   0  0  0  0  0  0  0  0  0  0  0  0
    1.0927   -1.4112   -1.7184 N   0  0  0  0  0  0  0  0  0  0  0  0
    0.1029   -1.5160   -1.9156 H   0  0  0  0  0  0  0  0  0  0  0  0
    2.0457   -2.1598   -2.5285 C   0  0  0  0  0  0  0  0  0  0  0  0
    2.3702   -3.0627   -2.0001 H   0  0  0  0  0  0  0  0  0  0  0  0
    1.5851   -2.4573   -3.4754 H   0  0  0  0  0  0  0  0  0  0  0  0
    2.9253   -1.5466   -2.7514 H   0  0  0  0  0  0  0  0  0  0  0  0
  1  2  1  0  0  0  0
  2  3  1  0  0  0  0
  2  4  1  0  0  0  0
  2  5  1  0  0  0  0
  5  6  2  0  0  0  0
  5  7  1  0  0  0  0
  7  8  1  0  0  0  0
  7  9  1  0  0  0  0
  9 10  1  0  0  0  0
  9 11  1  0  0  0  0
  9 15  1  0  0  0  0
 11 12  1  0  0  0  0
 11 13  1  0  0  0  0
 11 14  1  0  0  0  0
 15 16  2  0  0  0  0
 15 17  1  0  0  0  0
 17 18  1  0  0  0  0
 17 19  1  0  0  0  0
 19 20  1  0  0  0  0
 19 21  1  0  0  0  0
 19 22  1  0  0  0  0
M  END
$$$$

  -OEChem-11182114133D

 22 21  0     1  0  0  0  0  0999 V2000
   -2.7949   -3.5025    1.3727 H   0  0  0  0  0  0  0  0  0  0  0  0
   -2.7435   -2.5029    0.9314 C   0  0  0  0  0  0  0  0  0  0  0  0
   -3.2879   -1.8077    1.5750 H   0  0  0  0  0  0  0  0  0  0  0  0
   -3.2181   -2.5281   -0.0523 H   0  0  0  0  0  0  0  0  0  0  0  0
   -1.2966   -2.0653    0.7990 C   0  0  0  0  0  0  0  0  0  0  0  0
   -0.4064   -2.8451    1.0824 O   0  0  0  0  0  0  0  0  0  0  0  0
   -1.0108   -0.7984    0.3238 N   0  0  0  0  0  0  0  0  0  0  0  0
   -1.8143   -0.1929    0.1863 H   0  0  0  0  0  0  0  0  0  0  0  0
    0.3235   -0.1642    0.3404 C   0  0  1  0  0  0  0  0  0  0  0  0
    0.2369    0.8096   -0.1503 H   0  0  0  0  0  0  0  0  0  0  0  0
    0.7333    0.0952    1.8000 C   0  0  0  0  0  0  0  0  0  0  0  0
    0.9095   -0.8476    2.3280 H   0  0  0  0  0  0  0  0  0  0  0  0
    1.6558    0.6833    1.8359 H   0  0  0  0  0  0  0  0  0  0  0  0
   -0.0494    0.6492    2.3262 H   0  0  0  0  0  0  0  0  0  0  0  0
    1.4063   -0.9396   -0.4559 C   0  0  0  0  0  0  0  0  0  0  0  0
    2.5249   -1.1373    0.0031 O   0  0  0  0  0  0  0  0  0  0  0  0
    1.2080   -1.1529   -1.8086 N   0  0  0  0  0  0  0  0  0  0  0  0
    0.2526   -1.0691   -2.1391 H   0  0  0  0  0  0  0  0  0  0  0  0
    2.1785   -1.8444   -2.6488 C   0  0  0  0  0  0  0  0  0  0  0  0
    2.3503   -2.8603   -2.2775 H   0  0  0  0  0  0  0  0  0  0  0  0
    1.8112   -1.9078   -3.6775 H   0  0  0  0  0  0  0  0  0  0  0  0
    3.1322   -1.3061   -2.6571 H   0  0  0  0  0  0  0  0  0  0  0  0
  1  2  1  0  0  0  0
  2  3  1  0  0  0  0
  2  4  1  0  0  0  0
  2  5  1  0  0  0  0
  5  6  2  0  0  0  0
  5  7  1  0  0  0  0
  7  8  1  0  0  0  0
  7  9  1  0  0  0  0
  9 10  1  0  0  0  0
  9 11  1  0  0  0  0
  9 15  1  0  0  0  0
 11 12  1  0  0  0  0
 11 13  1  0  0  0  0
 11 14  1  0  0  0  0
 15 16  2  0  0  0  0
 15 17  1  0  0  0  0
 17 18  1  0  0  0  0
 17 19  1  0  0  0  0
 19 20  1  0  0  0  0
 19 21  1  0  0  0  0
 19 22  1  0  0  0  0
M  END
$$$$

  -OEChem-11182114133D

 22 21  0     1  0  0  0  0  0999 V2000
   -2.8081   -3.5111    1.3621 H   0  0  0  0  0  0  0  0  0  0  0  0
   -2.7491   -2.5122    0.9204 C   0  0  0  0  0  0  0  0  0  0  0  0
   -3.3097   -1.8173    1.5499 H   0  0  0  0  0  0  0  0  0  0  0  0
   -3.2003   -2.5405   -0.0742 H   0  0  0  0  0  0  0  0  0  0  0  0
   -1.3006   -2.0717    0.8207 C   0  0  0  0  0  0  0  0  0  0  0  0
   -0.4182   -2.8445    1.1432 O   0  0  0  0  0  0  0  0  0  0  0  0
   -1.0097   -0.8083    0.3391 N   0  0  0  0  0  0  0  0  0  0  0  0
   -1.8127   -0.2120    0.1663 H   0  0  0  0  0  0  0  0  0  0  0  0
    0.3238   -0.1732    0.3420 C   0  0  1  0  0  0  0  0  0  0  0  0
    0.2318    0.7997   -0.1494 H   0  0  0  0  0  0  0  0  0  0  0  0
    0.7464    0.0957    1.7960 C   0  0  0  0  0  0  0  0  0  0  0  0
    0.9076   -0.8433    2.3354 H   0  0  0  0  0  0  0  0  0  0  0  0
    1.6802    0.6662    1.8187 H   0  0  0  0  0  0  0  0  0  0  0  0
   -0.0229    0.6707    2.3193 H   0  0  0  0  0  0  0  0  0  0  0  0
    1.4035   -0.9504   -0.4584 C   0  0  0  0  0  0  0  0  0  0  0  0
    2.4302   -1.3632    0.0669 O   0  0  0  0  0  0  0  0  0  0  0  0
    1.3616   -0.9020   -1.8413 N   0  0  0  0  0  0  0  0  0  0  0  0
    0.4862   -0.6083   -2.2611 H   0  0  0  0  0  0  0  0  0  0  0  0
    2.3668   -1.5340   -2.6881 C   0  0  0  0  0  0  0  0  0  0  0  0
    2.4044   -2.6120   -2.4982 H   0  0  0  0  0  0  0  0  0  0  0  0
    2.1262   -1.3753   -3.7436 H   0  0  0  0  0  0  0  0  0  0  0  0
    3.3565   -1.1075   -2.4930 H   0  0  0  0  0  0  0  0  0  0  0  0
  1  2  1  0  0  0  0
  2  3  1  0  0  0  0
  2  4  1  0  0  0  0
  2  5  1  0  0  0  0
  5  6  2  0  0  0  0
  5  7  1  0  0  0  0
  7  8  1  0  0  0  0
  7  9  1  0  0  0  0
  9 10  1  0  0  0  0
  9 11  1  0  0  0  0
  9 15  1  0  0  0  0
 11 12  1  0  0  0  0
 11 13  1  0  0  0  0
 11 14  1  0  0  0  0
 15 16  2  0  0  0  0
 15 17  1  0  0  0  0
 17 18  1  0  0  0  0
 17 19  1  0  0  0  0
 19 20  1  0  0  0  0
 19 21  1  0  0  0  0
 19 22  1  0  0  0  0
M  END
$$$$

  -OEChem-11182114133D

 22 21  0     1  0  0  0  0  0999 V2000
   -2.8310   -3.5213    1.3443 H   0  0  0  0  0  0  0  0  0  0  0  0
   -2.7596   -2.5252    0.8978 C   0  0  0  0  0  0  0  0  0  0  0  0
   -3.3536   -1.8300    1.4957 H   0  0  0  0  0  0  0  0  0  0  0  0
   -3.1651   -2.5652   -0.1160 H   0  0  0  0  0  0  0  0  0  0  0  0
   -1.3115   -2.0734    0.8602 C   0  0  0  0  0  0  0  0  0  0  0  0
   -0.4445   -2.8294    1.2539 O   0  0  0  0  0  0  0  0  0  0  0  0
   -1.0115   -0.8150    0.3702 N   0  0  0  0  0  0  0  0  0  0  0  0
   -1.8106   -0.2423    0.1184 H   0  0  0  0  0  0  0  0  0  0  0  0
    0.3224   -0.1810    0.3470 C   0  0  1  0  0  0  0  0  0  0  0  0
    0.2177    0.7918   -0.1417 H   0  0  0  0  0  0  0  0  0  0  0  0
    0.7770    0.0951    1.7894 C   0  0  0  0  0  0  0  0  0  0  0  0
    0.9347   -0.8401    2.3361 H   0  0  0  0  0  0  0  0  0  0  0  0
    1.7196    0.6512    1.7882 H   0  0  0  0  0  0  0  0  0  0  0  0
    0.0260    0.6865    2.3210 H   0  0  0  0  0  0  0  0  0  0  0  0
    1.3959   -0.9559   -0.4655 C   0  0  0  0  0  0  0  0  0  0  0  0
    2.2902   -1.5945    0.0735 O   0  0  0  0  0  0  0  0  0  0  0  0
    1.5399   -0.6716   -1.8133 N   0  0  0  0  0  0  0  0  0  0  0  0
    0.7977   -0.1441   -2.2600 H   0  0  0  0  0  0  0  0  0  0  0  0
    2.5881   -1.2531   -2.6450 C   0  0  0  0  0  0  0  0  0  0  0  0
    2.5087   -2.3453   -2.6534 H   0  0  0  0  0  0  0  0  0  0  0  0
    2.5001   -0.8912   -3.6738 H   0  0  0  0  0  0  0  0  0  0  0  0
    3.5774   -0.9754   -2.2659 H   0  0  0  0  0  0  0  0  0  0  0  0
  1  2  1  0  0  0  0
  2  3  1  0  0  0  0
  2  4  1  0  0  0  0
  2  5  1  0  0  0  0
  5  6  2  0  0  0  0
  5  7  1  0  0  0  0
  7  8  1  0  0  0  0
  7  9  1  0  0  0  0
  9 10  1  0  0  0  0
  9 11  1  0  0  0  0
  9 15  1  0  0  0  0
 11 12  1  0  0  0  0
 11 13  1  0  0  0  0
 11 14  1  0  0  0  0
 15 16  2  0  0  0  0
 15 17  1  0  0  0  0
 17 18  1  0  0  0  0
 17 19  1  0  0  0  0
 19 20  1  0  0  0  0
 19 21  1  0  0  0  0
 19 22  1  0  0  0  0
M  END
$$$$

  -OEChem-11182114133D

 22 21  0     1  0  0  0  0  0999 V2000
   -2.8117   -3.5686    1.2194 H   0  0  0  0  0  0  0  0  0  0  0  0
   -2.7337   -2.5617    0.7989 C   0  0  0  0  0  0  0  0  0  0  0  0
   -3.4326   -1.9065    1.3240 H   0  0  0  0  0  0  0  0  0  0  0  0
   -3.0033   -2.6022   -0.2590 H   0  0  0  0  0  0  0  0  0  0  0  0
   -1.3172   -2.0401    0.9545 C   0  0  0  0  0  0  0  0  0  0  0  0
   -0.5022   -2.7208    1.5466 O   0  0  0  0  0  0  0  0  0  0  0  0
   -1.0091   -0.7877    0.4517 N   0  0  0  0  0  0  0  0  0  0  0  0
   -1.7734   -0.3086   -0.0128 H   0  0  0  0  0  0  0  0  0  0  0  0
    0.3287   -0.1626    0.3867 C   0  0  1  0  0  0  0  0  0  0  0  0
    0.2064    0.8099   -0.0982 H   0  0  0  0  0  0  0  0  0  0  0  0
    0.8457    0.1194    1.8060 C   0  0  0  0  0  0  0  0  0  0  0  0
    1.0554   -0.8119    2.3414 H   0  0  0  0  0  0  0  0  0  0  0  0
    1.7719    0.7002    1.7616 H   0  0  0  0  0  0  0  0  0  0  0  0
    0.1055    0.6881    2.3764 H   0  0  0  0  0  0  0  0  0  0  0  0
    1.3792   -0.9405   -0.4516 C   0  0  0  0  0  0  0  0  0  0  0  0
    2.0539   -1.8510    0.0069 O   0  0  0  0  0  0  0  0  0  0  0  0
    1.7195   -0.4617   -1.7062 N   0  0  0  0  0  0  0  0  0  0  0  0
    1.1884    0.3200   -2.0746 H   0  0  0  0  0  0  0  0  0  0  0  0
    2.7656   -1.0542   -2.5322 C   0  0  0  0  0  0  0  0  0  0  0  0
    2.5366   -2.1036   -2.7459 H   0  0  0  0  0  0  0  0  0  0  0  0
    2.8475   -0.5180   -3.4823 H   0  0  0  0  0  0  0  0  0  0  0  0
    3.7329   -1.0021   -2.0213 H   0  0  0  0  0  0  0  0  0  0  0  0
  1  2  1  0  0  0  0
  2  3  1  0  0  0  0
  2  4  1  0  0  0  0
  2  5  1  0  0  0  0
  5  6  2  0  0  0  0
  5  7  1  0  0  0  0
  7  8  1  0  0  0  0
  7  9  1  0  0  0  0
  9 10  1  0  0  0  0
  9 11  1  0  0  0  0
  9 15  1  0  0  0  0
 11 12  1  0  0  0  0
 11 13  1  0  0  0  0
 11 14  1  0  0  0  0
 15 16  2  0  0  0  0
 15 17  1  0  0  0  0
 17 18  1  0  0  0  0
 17 19  1  0  0  0  0
 19 20  1  0  0  0  0
 19 21  1  0  0  0  0
 19 22  1  0  0  0  0
M  END
$$$$

  -OEChem-11182114133D

 22 21  0     1  0  0  0  0  0999 V2000
   -2.7034   -3.6097    1.1223 H   0  0  0  0  0  0  0  0  0  0  0  0
   -2.6299   -2.6192    0.6642 C   0  0  0  0  0  0  0  0  0  0  0  0
   -3.4680   -2.0087    1.0085 H   0  0  0  0  0  0  0  0  0  0  0  0
   -2.6877   -2.7316   -0.4209 H   0  0  0  0  0  0  0  0  0  0  0  0
   -1.3162   -1.9638    1.0488 C   0  0  0  0  0  0  0  0  0  0  0  0
   -0.6065   -2.5097    1.8741 O   0  0  0  0  0  0  0  0  0  0  0  0
   -1.0200   -0.7115    0.5360 N   0  0  0  0  0  0  0  0  0  0  0  0
   -1.7041   -0.3703   -0.1310 H   0  0  0  0  0  0  0  0  0  0  0  0
    0.3307   -0.1158    0.4516 C   0  0  1  0  0  0  0  0  0  0  0  0
    0.2076    0.8578   -0.0301 H   0  0  0  0  0  0  0  0  0  0  0  0
    0.9031    0.1604    1.8495 C   0  0  0  0  0  0  0  0  0  0  0  0
    1.1881   -0.7703    2.3499 H   0  0  0  0  0  0  0  0  0  0  0  0
    1.7948    0.7900    1.7753 H   0  0  0  0  0  0  0  0  0  0  0  0
    0.1634    0.6759    2.4694 H   0  0  0  0  0  0  0  0  0  0  0  0
    1.3543   -0.9089   -0.4043 C   0  0  0  0  0  0  0  0  0  0  0  0
    1.6304   -2.0811   -0.1991 O   0  0  0  0  0  0  0  0  0  0  0  0
    1.9294   -0.2932   -1.5037 N   0  0  0  0  0  0  0  0  0  0  0  0
    1.7213    0.6878   -1.6589 H   0  0  0  0  0  0  0  0  0  0  0  0
    2.8967   -0.9525   -2.3744 C   0  0  0  0  0  0  0  0  0  0  0  0
    2.4647   -1.8593   -2.8112 H   0  0  0  0  0  0  0  0  0  0  0  0
    3.1902   -0.2841   -3.1896 H   0  0  0  0  0  0  0  0  0  0  0  0
    3.7946   -1.2267   -1.8105 H   0  0  0  0  0  0  0  0  0  0  0  0
  1  2  1  0  0  0  0
  2  3  1  0  0  0  0
  2  4  1  0  0  0  0
  2  5  1  0  0  0  0
  5  6  2  0  0  0  0
  5  7  1  0  0  0  0
  7  8  1  0  0  0  0
  7  9  1  0  0  0  0
  9 10  1  0  0  0  0
  9 11  1  0  0  0  0
  9 15  1  0  0  0  0
 11 12  1  0  0  0  0
 11 13  1  0  0  0  0
 11 14  1  0  0  0  0
 15 16  2  0  0  0  0
 15 17  1  0  0  0  0
 17 18  1  0  0  0  0
 17 19  1  0  0  0  0
 19 20  1  0  0  0  0
 19 21  1  0  0  0  0
 19 22  1  0  0  0  0
M  END
$$$$

  -OEChem-11182114133D

 22 21  0     1  0  0  0  0  0999 V2000
   -2.6609   -3.6158    1.1325 H   0  0  0  0  0  0  0  0  0  0  0  0
   -2.5804   -2.6456    0.6341 C   0  0  0  0  0  0  0  0  0  0  0  0
   -3.4553   -2.0436    0.8901 H   0  0  0  0  0  0  0  0  0  0  0  0
   -2.5581   -2.8088   -0.4461 H   0  0  0  0  0  0  0  0  0  0  0  0
   -1.3132   -1.9370    1.0753 C   0  0  0  0  0  0  0  0  0  0  0  0
   -0.6296   -2.4377    1.9520 O   0  0  0  0  0  0  0  0  0  0  0  0
   -1.0258   -0.6873    0.5503 N   0  0  0  0  0  0  0  0  0  0  0  0
   -1.6738   -0.3979   -0.1748 H   0  0  0  0  0  0  0  0  0  0  0  0
    0.3301   -0.1024    0.4752 C   0  0  1  0  0  0  0  0  0  0  0  0
    0.2123    0.8634   -0.0237 H   0  0  0  0  0  0  0  0  0  0  0  0
    0.8951    0.1934    1.8714 C   0  0  0  0  0  0  0  0  0  0  0  0
    1.1897   -0.7297    2.3800 H   0  0  0  0  0  0  0  0  0  0  0  0
    1.7788    0.8338    1.7951 H   0  0  0  0  0  0  0  0  0  0  0  0
    0.1471    0.7054    2.4843 H   0  0  0  0  0  0  0  0  0  0  0  0
    1.3611   -0.9060   -0.3627 C   0  0  0  0  0  0  0  0  0  0  0  0
    1.3335   -2.1254   -0.4510 O   0  0  0  0  0  0  0  0  0  0  0  0
    2.1782   -0.2222   -1.2476 N   0  0  0  0  0  0  0  0  0  0  0  0
    2.1951    0.7908   -1.1869 H   0  0  0  0  0  0  0  0  0  0  0  0
    3.0992   -0.8864   -2.1638 C   0  0  0  0  0  0  0  0  0  0  0  0
    2.5507   -1.5332   -2.8569 H   0  0  0  0  0  0  0  0  0  0  0  0
    3.6522   -0.1451   -2.7488 H   0  0  0  0  0  0  0  0  0  0  0  0
    3.8195   -1.4963   -1.6080 H   0  0  0  0  0  0  0  0  0  0  0  0
  1  2  1  0  0  0  0
  2  3  1  0  0  0  0
  2  4  1  0  0  0  0
  2  5  1  0  0  0  0
  5  6  2  0  0  0  0
  5  7  1  0  0  0  0
  7  8  1  0  0  0  0
  7  9  1  0  0  0  0
  9 10  1  0  0  0  0
  9 11  1  0  0  0  0
  9 15  1  0  0  0  0
 11 12  1  0  0  0  0
 11 13  1  0  0  0  0
 11 14  1  0  0  0  0
 15 16  2  0  0  0  0
 15 17  1  0  0  0  0
 17 18  1  0  0  0  0
 17 19  1  0  0  0  0
 19 20  1  0  0  0  0
 19 21  1  0  0  0  0
 19 22  1  0  0  0  0
M  END
$$$$

  -OEChem-11182114133D

 22 21  0     1  0  0  0  0  0999 V2000
   -2.6692   -3.6059    1.1705 H   0  0  0  0  0  0  0  0  0  0  0  0
   -2.5854   -2.6461    0.6529 C   0  0  0  0  0  0  0  0  0  0  0  0
   -3.4543   -2.0333    0.9036 H   0  0  0  0  0  0  0  0  0  0  0  0
   -2.5722   -2.8298   -0.4241 H   0  0  0  0  0  0  0  0  0  0  0  0
   -1.3104   -1.9377    1.0705 C   0  0  0  0  0  0  0  0  0  0  0  0
   -0.5994   -2.4451    1.9222 O   0  0  0  0  0  0  0  0  0  0  0  0
   -1.0294   -0.6894    0.5393 N   0  0  0  0  0  0  0  0  0  0  0  0
   -1.6694   -0.4112   -0.1973 H   0  0  0  0  0  0  0  0  0  0  0  0
    0.3271   -0.1060    0.4738 C   0  0  1  0  0  0  0  0  0  0  0  0
    0.2160    0.8533   -0.0398 H   0  0  0  0  0  0  0  0  0  0  0  0
    0.8749    0.2070    1.8741 C   0  0  0  0  0  0  0  0  0  0  0  0
    1.1796   -0.7076    2.3919 H   0  0  0  0  0  0  0  0  0  0  0  0
    1.7482    0.8619    1.8026 H   0  0  0  0  0  0  0  0  0  0  0  0
    0.1127    0.7102    2.4768 H   0  0  0  0  0  0  0  0  0  0  0  0
    1.3635   -0.9166   -0.3502 C   0  0  0  0  0  0  0  0  0  0  0  0
    1.1530   -2.0691   -0.7061 O   0  0  0  0  0  0  0  0  0  0  0  0
    2.3888   -0.2352   -0.9849 N   0  0  0  0  0  0  0  0  0  0  0  0
    2.5529    0.7279   -0.7095 H   0  0  0  0  0  0  0  0  0  0  0  0
    3.3310   -0.8743   -1.8974 C   0  0  0  0  0  0  0  0  0  0  0  0
    2.8066   -1.2746   -2.7716 H   0  0  0  0  0  0  0  0  0  0  0  0
    4.0742   -0.1496   -2.2434 H   0  0  0  0  0  0  0  0  0  0  0  0
    3.8551   -1.6944   -1.3953 H   0  0  0  0  0  0  0  0  0  0  0  0
  1  2  1  0  0  0  0
  2  3  1  0  0  0  0
  2  4  1  0  0  0  0
  2  5  1  0  0  0  0
  5  6  2  0  0  0  0
  5  7  1  0  0  0  0
  7  8  1  0  0  0  0
  7  9  1  0  0  0  0
  9 10  1  0  0  0  0
  9 11  1  0  0  0  0
  9 15  1  0  0  0  0
 11 12  1  0  0  0  0
 11 13  1  0  0  0  0
 11 14  1  0  0  0  0
 15 16  2  0  0  0  0
 15 17  1  0  0  0  0
 17 18  1  0  0  0  0
 17 19  1  0  0  0  0
 19 20  1  0  0  0  0
 19 21  1  0  0  0  0
 19 22  1  0  0  0  0
M  END
$$$$

  -OEChem-11182114133D

 22 21  0     1  0  0  0  0  0999 V2000
   -2.6675   -3.6023    1.1929 H   0  0  0  0  0  0  0  0  0  0  0  0
   -2.5887   -2.6458    0.6685 C   0  0  0  0  0  0  0  0  0  0  0  0
   -3.4502   -2.0277    0.9313 H   0  0  0  0  0  0  0  0  0  0  0  0
   -2.5953   -2.8349   -0.4078 H   0  0  0  0  0  0  0  0  0  0  0  0
   -1.3029   -1.9413    1.0589 C   0  0  0  0  0  0  0  0  0  0  0  0
   -0.5541   -2.4701    1.8644 O   0  0  0  0  0  0  0  0  0  0  0  0
   -1.0323   -0.6895    0.5312 N   0  0  0  0  0  0  0  0  0  0  0  0
   -1.6752   -0.4089   -0.2022 H   0  0  0  0  0  0  0  0  0  0  0  0
    0.3213   -0.1004    0.4724 C   0  0  1  0  0  0  0  0  0  0  0  0
    0.2148    0.8567   -0.0462 H   0  0  0  0  0  0  0  0  0  0  0  0
    0.8585    0.2178    1.8766 C   0  0  0  0  0  0  0  0  0  0  0  0
    1.1602   -0.6942    2.4002 H   0  0  0  0  0  0  0  0  0  0  0  0
    1.7306    0.8747    1.8115 H   0  0  0  0  0  0  0  0  0  0  0  0
    0.0907    0.7223    2.4710 H   0  0  0  0  0  0  0  0  0  0  0  0
    1.3530   -0.9150   -0.3521 C   0  0  0  0  0  0  0  0  0  0  0  0
    1.0357   -1.9464   -0.9328 O   0  0  0  0  0  0  0  0  0  0  0  0
    2.5414   -0.3108   -0.7261 N   0  0  0  0  0  0  0  0  0  0  0  0
    2.7960    0.5502   -0.2525 H   0  0  0  0  0  0  0  0  0  0  0  0
    3.5210   -0.9465   -1.5999 C   0  0  0  0  0  0  0  0  0  0  0  0
    3.0936   -1.1200   -2.5931 H   0  0  0  0  0  0  0  0  0  0  0  0
    4.4016   -0.3064   -1.7104 H   0  0  0  0  0  0  0  0  0  0  0  0
    3.8414   -1.9066   -1.1814 H   0  0  0  0  0  0  0  0  0  0  0  0
  1  2  1  0  0  0  0
  2  3  1  0  0  0  0
  2  4  1  0  0  0  0
  2  5  1  0  0  0  0
  5  6  2  0  0  0  0
  5  7  1  0  0  0  0
  7  8  1  0  0  0  0
  7  9  1  0  0  0  0
  9 10  1  0  0  0  0
  9 11  1  0  0  0  0
  9 15  1  0  0  0  0
 11 12  1  0  0  0  0
 11 13  1  0  0  0  0
 11 14  1  0  0  0  0
 15 16  2  0  0  0  0
 15 17  1  0  0  0  0
 17 18  1  0  0  0  0
 17 19  1  0  0  0  0
 19 20  1  0  0  0  0
 19 21  1  0  0  0  0
 19 22  1  0  0  0  0
M  END
$$$$

  -OEChem-11182114133D

 22 21  0     1  0  0  0  0  0999 V2000
   -2.6803   -3.6217    1.1035 H   0  0  0  0  0  0  0  0  0  0  0  0
   -2.6145   -2.6245    0.6590 C   0  0  0  0  0  0  0  0  0  0  0  0
   -3.4375   -2.0142    1.0382 H   0  0  0  0  0  0  0  0  0  0  0  0
   -2.7063   -2.7180   -0.4260 H   0  0  0  0  0  0  0  0  0  0  0  0
   -1.2862   -1.9810    1.0102 C   0  0  0  0  0  0  0  0  0  0  0  0
   -0.4962   -2.5954    1.7080 O   0  0  0  0  0  0  0  0  0  0  0  0
   -1.0084   -0.7163    0.5212 N   0  0  0  0  0  0  0  0  0  0  0  0
   -1.6636   -0.3994   -0.1870 H   0  0  0  0  0  0  0  0  0  0  0  0
    0.3332   -0.0987    0.4840 C   0  0  1  0  0  0  0  0  0  0  0  0
    0.1739    0.9503    0.2180 H   0  0  0  0  0  0  0  0  0  0  0  0
    1.0351   -0.0852    1.8527 C   0  0  0  0  0  0  0  0  0  0  0  0
    1.4657   -1.0640    2.0847 H   0  0  0  0  0  0  0  0  0  0  0  0
    1.8443    0.6506    1.8588 H   0  0  0  0  0  0  0  0  0  0  0  0
    0.3238    0.1798    2.6410 H   0  0  0  0  0  0  0  0  0  0  0  0
    1.2363   -0.6807   -0.6320 C   0  0  0  0  0  0  0  0  0  0  0  0
    0.7628   -1.3968   -1.5073 O   0  0  0  0  0  0  0  0  0  0  0  0
    2.5269   -0.2088   -0.7978 N   0  0  0  0  0  0  0  0  0  0  0  0
    2.9150    0.3544   -0.0475 H   0  0  0  0  0  0  0  0  0  0  0  0
    3.4154   -0.6742   -1.8564 C   0  0  0  0  0  0  0  0  0  0  0  0
    2.9860   -0.4588   -2.8405 H   0  0  0  0  0  0  0  0  0  0  0  0
    4.3842   -0.1701   -1.7860 H   0  0  0  0  0  0  0  0  0  0  0  0
    3.5791   -1.7538   -1.7719 H   0  0  0  0  0  0  0  0  0  0  0  0
  1  2  1  0  0  0  0
  2  3  1  0  0  0  0
  2  4  1  0  0  0  0
  2  5  1  0  0  0  0
  5  6  2  0  0  0  0
  5  7  1  0  0  0  0
  7  8  1  0  0  0  0
  7  9  1  0  0  0  0
  9 10  1  0  0  0  0
  9 11  1  0  0  0  0
  9 15  1  0  0  0  0
 11 12  1  0  0  0  0
 11 13  1  0  0  0  0
 11 14  1  0  0  0  0
 15 16  2  0  0  0  0
 15 17  1  0  0  0  0
 17 18  1  0  0  0  0
 17 19  1  0  0  0  0
 19 20  1  0  0  0  0
 19 21  1  0  0  0  0
 19 22  1  0  0  0  0
M  END
$$$$

  -OEChem-11182114133D

 22 21  0     1  0  0  0  0  0999 V2000
   -2.6658   -3.6311    1.0880 H   0  0  0  0  0  0  0  0  0  0  0  0
   -2.6150   -2.6229    0.6676 C   0  0  0  0  0  0  0  0  0  0  0  0
   -3.4212   -2.0220    1.0946 H   0  0  0  0  0  0  0  0  0  0  0  0
   -2.7495   -2.6880   -0.4149 H   0  0  0  0  0  0  0  0  0  0  0  0
   -1.2727   -1.9908    0.9851 C   0  0  0  0  0  0  0  0  0  0  0  0
   -0.4598   -2.6205    1.6419 O   0  0  0  0  0  0  0  0  0  0  0  0
   -0.9998   -0.7226    0.5046 N   0  0  0  0  0  0  0  0  0  0  0  0
   -1.6608   -0.3922   -0.1924 H   0  0  0  0  0  0  0  0  0  0  0  0
    0.3350   -0.0910    0.4848 C   0  0  1  0  0  0  0  0  0  0  0  0
    0.1726    0.9566    0.2144 H   0  0  0  0  0  0  0  0  0  0  0  0
    1.0122   -0.0669    1.8673 C   0  0  0  0  0  0  0  0  0  0  0  0
    1.4405   -1.0426    2.1161 H   0  0  0  0  0  0  0  0  0  0  0  0
    1.8183    0.6725    1.8836 H   0  0  0  0  0  0  0  0  0  0  0  0
    0.2858    0.2019    2.6405 H   0  0  0  0  0  0  0  0  0  0  0  0
    1.2458   -0.6694   -0.6266 C   0  0  0  0  0  0  0  0  0  0  0  0
    0.7471   -1.1886   -1.6192 O   0  0  0  0  0  0  0  0  0  0  0  0
    2.6106   -0.4408   -0.6155 N   0  0  0  0  0  0  0  0  0  0  0  0
    3.0092   -0.0722    0.2425 H   0  0  0  0  0  0  0  0  0  0  0  0
    3.5101   -0.9510   -1.6434 C   0  0  0  0  0  0  0  0  0  0  0  0
    3.2231   -0.5687   -2.6288 H   0  0  0  0  0  0  0  0  0  0  0  0
    4.5375   -0.6353   -1.4383 H   0  0  0  0  0  0  0  0  0  0  0  0
    3.4810   -2.0454   -1.6680 H   0  0  0  0  0  0  0  0  0  0  0  0
  1  2  1  0  0  0  0
  2  3  1  0  0  0  0
  2  4  1  0  0  0  0
  2  5  1  0  0  0  0
  5  6  2  0  0  0  0
  5  7  1  0  0  0  0
  7  8  1  0  0  0  0
  7  9  1  0  0  0  0
  9 10  1  0  0  0  0
  9 11  1  0  0  0  0
  9 15  1  0  0  0  0
 11 12  1  0  0  0  0
 11 13  1  0  0  0  0
 11 14  1  0  0  0  0
 15 16  2  0  0  0  0
 15 17  1  0  0  0  0
 17 18  1  0  0  0  0
 17 19  1  0  0  0  0
 19 20  1  0  0  0  0
 19 21  1  0  0  0  0
 19 22  1  0  0  0  0
M  END
$$$$

  -OEChem-11182114133D

 22 21  0     1  0  0  0  0  0999 V2000
   -2.6562   -3.6351    1.0831 H   0  0  0  0  0  0  0  0  0  0  0  0
   -2.6096   -2.6233    0.6707 C   0  0  0  0  0  0  0  0  0  0  0  0
   -3.4057   -2.0234    1.1180 H   0  0  0  0  0  0  0  0  0  0  0  0
   -2.7644   -2.6772   -0.4097 H   0  0  0  0  0  0  0  0  0  0  0  0
   -1.2593   -1.9990    0.9683 C   0  0  0  0  0  0  0  0  0  0  0  0
   -0.4295   -2.6417    1.5902 O   0  0  0  0  0  0  0  0  0  0  0  0
   -0.9896   -0.7287    0.4933 N   0  0  0  0  0  0  0  0  0  0  0  0
   -1.6624   -0.3799   -0.1834 H   0  0  0  0  0  0  0  0  0  0  0  0
    0.3387   -0.0858    0.4871 C   0  0  1  0  0  0  0  0  0  0  0  0
    0.1727    0.9597    0.2104 H   0  0  0  0  0  0  0  0  0  0  0  0
    0.9944   -0.0484    1.8795 C   0  0  0  0  0  0  0  0  0  0  0  0
    1.4019   -1.0253    2.1557 H   0  0  0  0  0  0  0  0  0  0  0  0
    1.8121    0.6784    1.8931 H   0  0  0  0  0  0  0  0  0  0  0  0
    0.2602    0.2480    2.6348 H   0  0  0  0  0  0  0  0  0  0  0  0
    1.2567   -0.6617   -0.6189 C   0  0  0  0  0  0  0  0  0  0  0  0
    0.7731   -0.9748   -1.7011 O   0  0  0  0  0  0  0  0  0  0  0  0
    2.6314   -0.7045   -0.4654 N   0  0  0  0  0  0  0  0  0  0  0  0
    2.9908   -0.5437    0.4705 H   0  0  0  0  0  0  0  0  0  0  0  0
    3.5259   -1.2665   -1.4702 C   0  0  0  0  0  0  0  0  0  0  0  0
    3.4184   -0.7340   -2.4211 H   0  0  0  0  0  0  0  0  0  0  0  0
    4.5661   -1.1775   -1.1425 H   0  0  0  0  0  0  0  0  0  0  0  0
    3.3018   -2.3261   -1.6322 H   0  0  0  0  0  0  0  0  0  0  0  0
  1  2  1  0  0  0  0
  2  3  1  0  0  0  0
  2  4  1  0  0  0  0
  2  5  1  0  0  0  0
  5  6  2  0  0  0  0
  5  7  1  0  0  0  0
  7  8  1  0  0  0  0
  7  9  1  0  0  0  0
  9 10  1  0  0  0  0
  9 11  1  0  0  0  0
  9 15  1  0  0  0  0
 11 12  1  0  0  0  0
 11 13  1  0  0  0  0
 11 14  1  0  0  0  0
 15 16  2  0  0  0  0
 15 17  1  0  0  0  0
 17 18  1  0  0  0  0
 17 19  1  0  0  0  0
 19 20  1  0  0  0  0
 19 21  1  0  0  0  0
 19 22  1  0  0  0  0
M  END
$$$$

  -OEChem-11182114133D

 22 21  0     1  0  0  0  0  0999 V2000
   -2.6548   -3.6345    1.0939 H   0  0  0  0  0  0  0  0  0  0  0  0
   -2.6097   -2.6219    0.6834 C   0  0  0  0  0  0  0  0  0  0  0  0
   -3.3850   -2.0153    1.1572 H   0  0  0  0  0  0  0  0  0  0  0  0
   -2.7984   -2.6699   -0.3917 H   0  0  0  0  0  0  0  0  0  0  0  0
   -1.2445   -2.0125    0.9413 C   0  0  0  0  0  0  0  0  0  0  0  0
   -0.3957   -2.6701    1.5209 O   0  0  0  0  0  0  0  0  0  0  0  0
   -0.9766   -0.7403    0.4713 N   0  0  0  0  0  0  0  0  0  0  0  0
   -1.6655   -0.3659   -0.1751 H   0  0  0  0  0  0  0  0  0  0  0  0
    0.3452   -0.0858    0.4826 C   0  0  1  0  0  0  0  0  0  0  0  0
    0.1764    0.9572    0.1981 H   0  0  0  0  0  0  0  0  0  0  0  0
    0.9774   -0.0344    1.8861 C   0  0  0  0  0  0  0  0  0  0  0  0
    1.3468   -1.0150    2.1987 H   0  0  0  0  0  0  0  0  0  0  0  0
    1.8188    0.6651    1.8949 H   0  0  0  0  0  0  0  0  0  0  0  0
    0.2398    0.3073    2.6186 H   0  0  0  0  0  0  0  0  0  0  0  0
    1.2757   -0.6585   -0.6130 C   0  0  0  0  0  0  0  0  0  0  0  0
    0.8540   -0.7565   -1.7596 O   0  0  0  0  0  0  0  0  0  0  0  0
    2.5954   -0.9814   -0.3518 N   0  0  0  0  0  0  0  0  0  0  0  0
    2.8616   -1.0322    0.6272 H   0  0  0  0  0  0  0  0  0  0  0  0
    3.4698   -1.5955   -1.3431 C   0  0  0  0  0  0  0  0  0  0  0  0
    3.5585   -0.9547   -2.2266 H   0  0  0  0  0  0  0  0  0  0  0  0
    4.4697   -1.7437   -0.9245 H   0  0  0  0  0  0  0  0  0  0  0  0
    3.0743   -2.5689   -1.6519 H   0  0  0  0  0  0  0  0  0  0  0  0
  1  2  1  0  0  0  0
  2  3  1  0  0  0  0
  2  4  1  0  0  0  0
  2  5  1  0  0  0  0
  5  6  2  0  0  0  0
  5  7  1  0  0  0  0
  7  8  1  0  0  0  0
  7  9  1  0  0  0  0
  9 10  1  0  0  0  0
  9 11  1  0  0  0  0
  9 15  1  0  0  0  0
 11 12  1  0  0  0  0
 11 13  1  0  0  0  0
 11 14  1  0  0  0  0
 15 16  2  0  0  0  0
 15 17  1  0  0  0  0
 17 18  1  0  0  0  0
 17 19  1  0  0  0  0
 19 20  1  0  0  0  0
 19 21  1  0  0  0  0
 19 22  1  0  0  0  0
M  END
$$$$

  -OEChem-11182114133D

 22 21  0     1  0  0  0  0  0999 V2000
   -2.6542   -3.6307    1.1087 H   0  0  0  0  0  0  0  0  0  0  0  0
   -2.6107   -2.6181    0.6978 C   0  0  0  0  0  0  0  0  0  0  0  0
   -3.3656   -2.0042    1.1947 H   0  0  0  0  0  0  0  0  0  0  0  0
   -2.8320   -2.6628   -0.3713 H   0  0  0  0  0  0  0  0  0  0  0  0
   -1.2325   -2.0230    0.9167 C   0  0  0  0  0  0  0  0  0  0  0  0
   -0.3675   -2.6935    1.4570 O   0  0  0  0  0  0  0  0  0  0  0  0
   -0.9646   -0.7507    0.4479 N   0  0  0  0  0  0  0  0  0  0  0  0
   -1.6732   -0.3466   -0.1582 H   0  0  0  0  0  0  0  0  0  0  0  0
    0.3524   -0.0892    0.4749 C   0  0  1  0  0  0  0  0  0  0  0  0
    0.1833    0.9522    0.1843 H   0  0  0  0  0  0  0  0  0  0  0  0
    0.9679   -0.0275    1.8855 C   0  0  0  0  0  0  0  0  0  0  0  0
    1.2988   -1.0109    2.2298 H   0  0  0  0  0  0  0  0  0  0  0  0
    1.8337    0.6417    1.8868 H   0  0  0  0  0  0  0  0  0  0  0  0
    0.2338    0.3584    2.5993 H   0  0  0  0  0  0  0  0  0  0  0  0
    1.2936   -0.6638   -0.6083 C   0  0  0  0  0  0  0  0  0  0  0  0
    0.9777   -0.5523   -1.7869 O   0  0  0  0  0  0  0  0  0  0  0  0
    2.4964   -1.2634   -0.2823 N   0  0  0  0  0  0  0  0  0  0  0  0
    2.6167   -1.5118    0.6960 H   0  0  0  0  0  0  0  0  0  0  0  0
    3.3441   -1.9164   -1.2717 C   0  0  0  0  0  0  0  0  0  0  0  0
    3.6406   -1.2072   -2.0517 H   0  0  0  0  0  0  0  0  0  0  0  0
    4.2508   -2.3023   -0.7960 H   0  0  0  0  0  0  0  0  0  0  0  0
    2.8133   -2.7525   -1.7389 H   0  0  0  0  0  0  0  0  0  0  0  0
  1  2  1  0  0  0  0
  2  3  1  0  0  0  0
  2  4  1  0  0  0  0
  2  5  1  0  0  0  0
  5  6  2  0  0  0  0
  5  7  1  0  0  0  0
  7  8  1  0  0  0  0
  7  9  1  0  0  0  0
  9 10  1  0  0  0  0
  9 11  1  0  0  0  0
  9 15  1  0  0  0  0
 11 12  1  0  0  0  0
 11 13  1  0  0  0  0
 11 14  1  0  0  0  0
 15 16  2  0  0  0  0
 15 17  1  0  0  0  0
 17 18  1  0  0  0  0
 17 19  1  0  0  0  0
 19 20  1  0  0  0  0
 19 21  1  0  0  0  0
 19 22  1  0  0  0  0
M  END
$$$$

  -OEChem-11182114133D

 22 21  0     1  0  0  0  0  0999 V2000
   -2.6686   -3.6169    1.1456 H   0  0  0  0  0  0  0  0  0  0  0  0
   -2.6266   -2.6047    0.7336 C   0  0  0  0  0  0  0  0  0  0  0  0
   -3.3433   -1.9772    1.2687 H   0  0  0  0  0  0  0  0  0  0  0  0
   -2.9031   -2.6435   -0.3229 H   0  0  0  0  0  0  0  0  0  0  0  0
   -1.2278   -2.0368    0.8828 C   0  0  0  0  0  0  0  0  0  0  0  0
   -0.3438   -2.7273    1.3656 O   0  0  0  0  0  0  0  0  0  0  0  0
   -0.9574   -0.7662    0.4116 N   0  0  0  0  0  0  0  0  0  0  0  0
   -1.6985   -0.3126   -0.1154 H   0  0  0  0  0  0  0  0  0  0  0  0
    0.3575   -0.1029    0.4524 C   0  0  1  0  0  0  0  0  0  0  0  0
    0.1913    0.9379    0.1568 H   0  0  0  0  0  0  0  0  0  0  0  0
    0.9598   -0.0383    1.8679 C   0  0  0  0  0  0  0  0  0  0  0  0
    1.2657   -1.0236    2.2287 H   0  0  0  0  0  0  0  0  0  0  0  0
    1.8412    0.6105    1.8680 H   0  0  0  0  0  0  0  0  0  0  0  0
    0.2278    0.3733    2.5692 H   0  0  0  0  0  0  0  0  0  0  0  0
    1.3117   -0.6814   -0.6151 C   0  0  0  0  0  0  0  0  0  0  0  0
    1.1634   -0.3581   -1.7872 O   0  0  0  0  0  0  0  0  0  0  0  0
    2.3401   -1.5360   -0.2651 N   0  0  0  0  0  0  0  0  0  0  0  0
    2.2547   -1.9605    0.6563 H   0  0  0  0  0  0  0  0  0  0  0  0
    3.1795   -2.2000   -1.2539 C   0  0  0  0  0  0  0  0  0  0  0  0
    3.6847   -1.4620   -1.8858 H   0  0  0  0  0  0  0  0  0  0  0  0
    3.9429   -2.8052   -0.7557 H   0  0  0  0  0  0  0  0  0  0  0  0
    2.5760   -2.8552   -1.8906 H   0  0  0  0  0  0  0  0  0  0  0  0
  1  2  1  0  0  0  0
  2  3  1  0  0  0  0
  2  4  1  0  0  0  0
  2  5  1  0  0  0  0
  5  6  2  0  0  0  0
  5  7  1  0  0  0  0
  7  8  1  0  0  0  0
  7  9  1  0  0  0  0
  9 10  1  0  0  0  0
  9 11  1  0  0  0  0
  9 15  1  0  0  0  0
 11 12  1  0  0  0  0
 11 13  1  0  0  0  0
 11 14  1  0  0  0  0
 15 16  2  0  0  0  0
 15 17  1  0  0  0  0
 17 18  1  0  0  0  0
 17 19  1  0  0  0  0
 19 20  1  0  0  0  0
 19 21  1  0  0  0  0
 19 22  1  0  0  0  0
M  END
$$$$

  -OEChem-11182114133D

 22 21  0     1  0  0  0  0  0999 V2000
   -2.6909   -3.5945    1.1968 H   0  0  0  0  0  0  0  0  0  0  0  0
   -2.6463   -2.5871    0.7733 C   0  0  0  0  0  0  0  0  0  0  0  0
   -3.3202   -1.9386    1.3383 H   0  0  0  0  0  0  0  0  0  0  0  0
   -2.9772   -2.6279   -0.2673 H   0  0  0  0  0  0  0  0  0  0  0  0
   -1.2290   -2.0510    0.8461 C   0  0  0  0  0  0  0  0  0  0  0  0
   -0.3309   -2.7653    1.2660 O   0  0  0  0  0  0  0  0  0  0  0  0
   -0.9554   -0.7813    0.3737 N   0  0  0  0  0  0  0  0  0  0  0  0
   -1.7250   -0.2794   -0.0602 H   0  0  0  0  0  0  0  0  0  0  0  0
    0.3592   -0.1177    0.4272 C   0  0  1  0  0  0  0  0  0  0  0  0
    0.1963    0.9242    0.1333 H   0  0  0  0  0  0  0  0  0  0  0  0
    0.9518   -0.0622    1.8465 C   0  0  0  0  0  0  0  0  0  0  0  0
    1.2477   -1.0512    2.2057 H   0  0  0  0  0  0  0  0  0  0  0  0
    1.8389    0.5787    1.8541 H   0  0  0  0  0  0  0  0  0  0  0  0
    0.2192    0.3537    2.5446 H   0  0  0  0  0  0  0  0  0  0  0  0
    1.3270   -0.6968   -0.6264 C   0  0  0  0  0  0  0  0  0  0  0  0
    1.3888   -0.1872   -1.7381 O   0  0  0  0  0  0  0  0  0  0  0  0
    2.1380   -1.7699   -0.3115 N   0  0  0  0  0  0  0  0  0  0  0  0
    1.8383   -2.3007    0.5073 H   0  0  0  0  0  0  0  0  0  0  0  0
    2.9722   -2.4405   -1.2995 C   0  0  0  0  0  0  0  0  0  0  0  0
    3.6691   -1.7316   -1.7588 H   0  0  0  0  0  0  0  0  0  0  0  0
    3.5550   -3.2350   -0.8235 H   0  0  0  0  0  0  0  0  0  0  0  0
    2.3527   -2.8852   -2.0852 H   0  0  0  0  0  0  0  0  0  0  0  0
  1  2  1  0  0  0  0
  2  3  1  0  0  0  0
  2  4  1  0  0  0  0
  2  5  1  0  0  0  0
  5  6  2  0  0  0  0
  5  7  1  0  0  0  0
  7  8  1  0  0  0  0
  7  9  1  0  0  0  0
  9 10  1  0  0  0  0
  9 11  1  0  0  0  0
  9 15  1  0  0  0  0
 11 12  1  0  0  0  0
 11 13  1  0  0  0  0
 11 14  1  0  0  0  0
 15 16  2  0  0  0  0
 15 17  1  0  0  0  0
 17 18  1  0  0  0  0
 17 19  1  0  0  0  0
 19 20  1  0  0  0  0
 19 21  1  0  0  0  0
 19 22  1  0  0  0  0
M  END
$$$$

  -OEChem-11182114133D

 22 21  0     1  0  0  0  0  0999 V2000
   -2.7415   -3.5660    1.2365 H   0  0  0  0  0  0  0  0  0  0  0  0
   -2.6820   -2.5647    0.8003 C   0  0  0  0  0  0  0  0  0  0  0  0
   -3.3331   -1.8954    1.3678 H   0  0  0  0  0  0  0  0  0  0  0  0
   -3.0295   -2.6107   -0.2347 H   0  0  0  0  0  0  0  0  0  0  0  0
   -1.2525   -2.0587    0.8440 C   0  0  0  0  0  0  0  0  0  0  0  0
   -0.3615   -2.7948    1.2405 O   0  0  0  0  0  0  0  0  0  0  0  0
   -0.9631   -0.7956    0.3630 N   0  0  0  0  0  0  0  0  0  0  0  0
   -1.7419   -0.2688   -0.0222 H   0  0  0  0  0  0  0  0  0  0  0  0
    0.3552   -0.1351    0.4087 C   0  0  1  0  0  0  0  0  0  0  0  0
    0.1940    0.9082    0.1178 H   0  0  0  0  0  0  0  0  0  0  0  0
    0.9540   -0.0930    1.8242 C   0  0  0  0  0  0  0  0  0  0  0  0
    1.2573   -1.0860    2.1670 H   0  0  0  0  0  0  0  0  0  0  0  0
    1.8383    0.5517    1.8347 H   0  0  0  0  0  0  0  0  0  0  0  0
    0.2233    0.3100    2.5318 H   0  0  0  0  0  0  0  0  0  0  0  0
    1.3334   -0.7145   -0.6346 C   0  0  0  0  0  0  0  0  0  0  0  0
    1.5993   -0.0743   -1.6437 O   0  0  0  0  0  0  0  0  0  0  0  0
    1.9145   -1.9499   -0.4264 N   0  0  0  0  0  0  0  0  0  0  0  0
    1.4812   -2.5113    0.3112 H   0  0  0  0  0  0  0  0  0  0  0  0
    2.7388   -2.6189   -1.4229 C   0  0  0  0  0  0  0  0  0  0  0  0
    3.5899   -1.9889   -1.7018 H   0  0  0  0  0  0  0  0  0  0  0  0
    3.1250   -3.5606   -1.0214 H   0  0  0  0  0  0  0  0  0  0  0  0
    2.1519   -2.8371   -2.3210 H   0  0  0  0  0  0  0  0  0  0  0  0
  1  2  1  0  0  0  0
  2  3  1  0  0  0  0
  2  4  1  0  0  0  0
  2  5  1  0  0  0  0
  5  6  2  0  0  0  0
  5  7  1  0  0  0  0
  7  8  1  0  0  0  0
  7  9  1  0  0  0  0
  9 10  1  0  0  0  0
  9 11  1  0  0  0  0
  9 15  1  0  0  0  0
 11 12  1  0  0  0  0
 11 13  1  0  0  0  0
 11 14  1  0  0  0  0
 15 16  2  0  0  0  0
 15 17  1  0  0  0  0
 17 18  1  0  0  0  0
 17 19  1  0  0  0  0
 19 20  1  0  0  0  0
 19 21  1  0  0  0  0
 19 22  1  0  0  0  0
M  END
$$$$

  -OEChem-11182114133D

 22 21  0     1  0  0  0  0  0999 V2000
   -2.8171   -3.5300    1.2858 H   0  0  0  0  0  0  0  0  0  0  0  0
   -2.7422   -2.5308    0.8469 C   0  0  0  0  0  0  0  0  0  0  0  0
   -3.3599   -1.8445    1.4313 H   0  0  0  0  0  0  0  0  0  0  0  0
   -3.1192   -2.5680   -0.1782 H   0  0  0  0  0  0  0  0  0  0  0  0
   -1.2987   -2.0636    0.8515 C   0  0  0  0  0  0  0  0  0  0  0  0
   -0.4202   -2.8255    1.2243 O   0  0  0  0  0  0  0  0  0  0  0  0
   -0.9879   -0.8090    0.3605 N   0  0  0  0  0  0  0  0  0  0  0  0
   -1.7698   -0.2593    0.0160 H   0  0  0  0  0  0  0  0  0  0  0  0
    0.3389   -0.1590    0.3837 C   0  0  1  0  0  0  0  0  0  0  0  0
    0.1810    0.8864    0.0988 H   0  0  0  0  0  0  0  0  0  0  0  0
    0.9564   -0.1343    1.7904 C   0  0  0  0  0  0  0  0  0  0  0  0
    1.2626   -1.1338    2.1124 H   0  0  0  0  0  0  0  0  0  0  0  0
    1.8428    0.5077    1.7965 H   0  0  0  0  0  0  0  0  0  0  0  0
    0.2379    0.2611    2.5145 H   0  0  0  0  0  0  0  0  0  0  0  0
    1.3214   -0.7364   -0.6583 C   0  0  0  0  0  0  0  0  0  0  0  0
    1.7869   -0.0093   -1.5261 O   0  0  0  0  0  0  0  0  0  0  0  0
    1.6729   -2.0710   -0.6212 N   0  0  0  0  0  0  0  0  0  0  0  0
    1.1771   -2.6453    0.0661 H   0  0  0  0  0  0  0  0  0  0  0  0
    2.5279   -2.7148   -1.6079 C   0  0  0  0  0  0  0  0  0  0  0  0
    3.4974   -2.2090   -1.6638 H   0  0  0  0  0  0  0  0  0  0  0  0
    2.7000   -3.7595   -1.3322 H   0  0  0  0  0  0  0  0  0  0  0  0
    2.0579   -2.6881   -2.5962 H   0  0  0  0  0  0  0  0  0  0  0  0
  1  2  1  0  0  0  0
  2  3  1  0  0  0  0
  2  4  1  0  0  0  0
  2  5  1  0  0  0  0
  5  6  2  0  0  0  0
  5  7  1  0  0  0  0
  7  8  1  0  0  0  0
  7  9  1  0  0  0  0
  9 10  1  0  0  0  0
  9 11  1  0  0  0  0
  9 15  1  0  0  0  0
 11 12  1  0  0  0  0
 11 13  1  0  0  0  0
 11 14  1  0  0  0  0
 15 16  2  0  0  0  0
 15 17  1  0  0  0  0
 17 18  1  0  0  0  0
 17 19  1  0  0  0  0
 19 20  1  0  0  0  0
 19 21  1  0  0  0  0
 19 22  1  0  0  0  0
M  END
$$$$

  -OEChem-11182114133D

 22 21  0     1  0  0  0  0  0999 V2000
   -2.8767   -3.4978    1.3523 H   0  0  0  0  0  0  0  0  0  0  0  0
   -2.7994   -2.4924    0.9285 C   0  0  0  0  0  0  0  0  0  0  0  0
   -3.3599   -1.8009    1.5624 H   0  0  0  0  0  0  0  0  0  0  0  0
   -3.2388   -2.4978   -0.0720 H   0  0  0  0  0  0  0  0  0  0  0  0
   -1.3453   -2.0662    0.8533 C   0  0  0  0  0  0  0  0  0  0  0  0
   -0.4683   -2.8571    1.1630 O   0  0  0  0  0  0  0  0  0  0  0  0
   -1.0288   -0.8154    0.3568 N   0  0  0  0  0  0  0  0  0  0  0  0
   -1.8174   -0.2396    0.0761 H   0  0  0  0  0  0  0  0  0  0  0  0
    0.3069   -0.1805    0.3431 C   0  0  1  0  0  0  0  0  0  0  0  0
    0.1516    0.8690    0.0722 H   0  0  0  0  0  0  0  0  0  0  0  0
    0.9576   -0.1826    1.7339 C   0  0  0  0  0  0  0  0  0  0  0  0
    1.2755   -1.1887    2.0227 H   0  0  0  0  0  0  0  0  0  0  0  0
    1.8409    0.4638    1.7333 H   0  0  0  0  0  0  0  0  0  0  0  0
    0.2553    0.1915    2.4846 H   0  0  0  0  0  0  0  0  0  0  0  0
    1.2721   -0.7508   -0.7203 C   0  0  0  0  0  0  0  0  0  0  0  0
    1.9377    0.0146   -1.4055 O   0  0  0  0  0  0  0  0  0  0  0  0
    1.3949   -2.1135   -0.9056 N   0  0  0  0  0  0  0  0  0  0  0  0
    0.8858   -2.7024   -0.2412 H   0  0  0  0  0  0  0  0  0  0  0  0
    2.3470   -2.7268   -1.8204 C   0  0  0  0  0  0  0  0  0  0  0  0
    3.3719   -2.4643   -1.5387 H   0  0  0  0  0  0  0  0  0  0  0  0
    2.2474   -3.8161   -1.7924 H   0  0  0  0  0  0  0  0  0  0  0  0
    2.1646   -2.3896   -2.8460 H   0  0  0  0  0  0  0  0  0  0  0  0
  1  2  1  0  0  0  0
  2  3  1  0  0  0  0
  2  4  1  0  0  0  0
  2  5  1  0  0  0  0
  5  6  2  0  0  0  0
  5  7  1  0  0  0  0
  7  8  1  0  0  0  0
  7  9  1  0  0  0  0
  9 10  1  0  0  0  0
  9 11  1  0  0  0  0
  9 15  1  0  0  0  0
 11 12  1  0  0  0  0
 11 13  1  0  0  0  0
 11 14  1  0  0  0  0
 15 16  2  0  0  0  0
 15 17  1  0  0  0  0
 17 18  1  0  0  0  0
 17 19  1  0  0  0  0
 19 20  1  0  0  0  0
 19 21  1  0  0  0  0
 19 22  1  0  0  0  0
M  END
$$$$

  -OEChem-11182114133D

 22 21  0     1  0  0  0  0  0999 V2000
   -2.8916   -3.4736    1.4153 H   0  0  0  0  0  0  0  0  0  0  0  0
   -2.8205   -2.4684    0.9897 C   0  0  0  0  0  0  0  0  0  0  0  0
   -3.3266   -1.7684    1.6588 H   0  0  0  0  0  0  0  0  0  0  0  0
   -3.3210   -2.4610    0.0184 H   0  0  0  0  0  0  0  0  0  0  0  0
   -1.3654   -2.0715    0.8269 C   0  0  0  0  0  0  0  0  0  0  0  0
   -0.4874   -2.8890    1.0499 O   0  0  0  0  0  0  0  0  0  0  0  0
   -1.0512   -0.8188    0.3354 N   0  0  0  0  0  0  0  0  0  0  0  0
   -1.8446   -0.2164    0.1356 H   0  0  0  0  0  0  0  0  0  0  0  0
    0.2880   -0.1892    0.3186 C   0  0  1  0  0  0  0  0  0  0  0  0
    0.1361    0.8630    0.0570 H   0  0  0  0  0  0  0  0  0  0  0  0
    0.9371   -0.2105    1.7102 C   0  0  0  0  0  0  0  0  0  0  0  0
    1.2374   -1.2242    1.9918 H   0  0  0  0  0  0  0  0  0  0  0  0
    1.8314    0.4208    1.7146 H   0  0  0  0  0  0  0  0  0  0  0  0
    0.2411    0.1709    2.4633 H   0  0  0  0  0  0  0  0  0  0  0  0
    1.2592   -0.7459   -0.7480 C   0  0  0  0  0  0  0  0  0  0  0  0
    2.0940   -0.0018   -1.2461 O   0  0  0  0  0  0  0  0  0  0  0  0
    1.1802   -2.0589   -1.1690 N   0  0  0  0  0  0  0  0  0  0  0  0
    0.6112   -2.6680   -0.5763 H   0  0  0  0  0  0  0  0  0  0  0  0
    2.1460   -2.6670   -2.0737 C   0  0  0  0  0  0  0  0  0  0  0  0
    3.1465   -2.6569   -1.6290 H   0  0  0  0  0  0  0  0  0  0  0  0
    1.8671   -3.7048   -2.2794 H   0  0  0  0  0  0  0  0  0  0  0  0
    2.1764   -2.1239   -3.0241 H   0  0  0  0  0  0  0  0  0  0  0  0
  1  2  1  0  0  0  0
  2  3  1  0  0  0  0
  2  4  1  0  0  0  0
  2  5  1  0  0  0  0
  5  6  2  0  0  0  0
  5  7  1  0  0  0  0
  7  8  1  0  0  0  0
  7  9  1  0  0  0  0
  9 10  1  0  0  0  0
  9 11  1  0  0  0  0
  9 15  1  0  0  0  0
 11 12  1  0  0  0  0
 11 13  1  0  0  0  0
 11 14  1  0  0  0  0
 15 16  2  0  0  0  0
 15 17  1  0  0  0  0
 17 18  1  0  0  0  0
 17 19  1  0  0  0  0
 19 20  1  0  0  0  0
 19 21  1  0  0  0  0
 19 22  1  0  0  0  0
M  END
$$$$

  -OEChem-11182114133D

 22 21  0     1  0  0  0  0  0999 V2000
   -2.8760   -3.4746    1.4337 H   0  0  0  0  0  0  0  0  0  0  0  0
   -2.8160   -2.4593    1.0312 C   0  0  0  0  0  0  0  0  0  0  0  0
   -3.2764   -1.7718    1.7448 H   0  0  0  0  0  0  0  0  0  0  0  0
   -3.3681   -2.4207    0.0889 H   0  0  0  0  0  0  0  0  0  0  0  0
   -1.3673   -2.0738    0.7996 C   0  0  0  0  0  0  0  0  0  0  0  0
   -0.4876   -2.9070    0.9374 O   0  0  0  0  0  0  0  0  0  0  0  0
   -1.0628   -0.8173    0.3135 N   0  0  0  0  0  0  0  0  0  0  0  0
   -1.8582   -0.1979    0.1881 H   0  0  0  0  0  0  0  0  0  0  0  0
    0.2768   -0.1873    0.3044 C   0  0  1  0  0  0  0  0  0  0  0  0
    0.1268    0.8659    0.0468 H   0  0  0  0  0  0  0  0  0  0  0  0
    0.9153   -0.2205    1.7011 C   0  0  0  0  0  0  0  0  0  0  0  0
    1.2085   -1.2381    1.9767 H   0  0  0  0  0  0  0  0  0  0  0  0
    1.8125    0.4065    1.7174 H   0  0  0  0  0  0  0  0  0  0  0  0
    0.2156    0.1589    2.4516 H   0  0  0  0  0  0  0  0  0  0  0  0
    1.2560   -0.7351   -0.7603 C   0  0  0  0  0  0  0  0  0  0  0  0
    2.2296   -0.0653   -1.0809 O   0  0  0  0  0  0  0  0  0  0  0  0
    1.0058   -1.9272   -1.4119 N   0  0  0  0  0  0  0  0  0  0  0  0
    0.3539   -2.5405   -0.9204 H   0  0  0  0  0  0  0  0  0  0  0  0
    1.9556   -2.5324   -2.3359 C   0  0  0  0  0  0  0  0  0  0  0  0
    2.8887   -2.7785   -1.8187 H   0  0  0  0  0  0  0  0  0  0  0  0
    1.5376   -3.4517   -2.7568 H   0  0  0  0  0  0  0  0  0  0  0  0
    2.1791   -1.8475   -3.1605 H   0  0  0  0  0  0  0  0  0  0  0  0
  1  2  1  0  0  0  0
  2  3  1  0  0  0  0
  2  4  1  0  0  0  0
  2  5  1  0  0  0  0
  5  6  2  0  0  0  0
  5  7  1  0  0  0  0
  7  8  1  0  0  0  0
  7  9  1  0  0  0  0
  9 10  1  0  0  0  0
  9 11  1  0  0  0  0
  9 15  1  0  0  0  0
 11 12  1  0  0  0  0
 11 13  1  0  0  0  0
 11 14  1  0  0  0  0
 15 16  2  0  0  0  0
 15 17  1  0  0  0  0
 17 18  1  0  0  0  0
 17 19  1  0  0  0  0
 19 20  1  0  0  0  0
 19 21  1  0  0  0  0
 19 22  1  0  0  0  0
M  END
$$$$

  -OEChem-11182114133D

 22 21  0     1  0  0  0  0  0999 V2000
   -2.8441   -3.4859    1.4334 H   0  0  0  0  0  0  0  0  0  0  0  0
   -2.7968   -2.4637    1.0471 C   0  0  0  0  0  0  0  0  0  0  0  0
   -3.2352   -1.7890    1.7864 H   0  0  0  0  0  0  0  0  0  0  0  0
   -3.3775   -2.4092    0.1230 H   0  0  0  0  0  0  0  0  0  0  0  0
   -1.3555   -2.0740    0.7787 C   0  0  0  0  0  0  0  0  0  0  0  0
   -0.4729   -2.9088    0.8731 O   0  0  0  0  0  0  0  0  0  0  0  0
   -1.0630   -0.8120    0.3004 N   0  0  0  0  0  0  0  0  0  0  0  0
   -1.8591   -0.1854    0.2245 H   0  0  0  0  0  0  0  0  0  0  0  0
    0.2767   -0.1823    0.3039 C   0  0  1  0  0  0  0  0  0  0  0  0
    0.1304    0.8715    0.0486 H   0  0  0  0  0  0  0  0  0  0  0  0
    0.8994   -0.2222    1.7085 C   0  0  0  0  0  0  0  0  0  0  0  0
    1.1955   -1.2403    1.9786 H   0  0  0  0  0  0  0  0  0  0  0  0
    1.7927    0.4096    1.7414 H   0  0  0  0  0  0  0  0  0  0  0  0
    0.1890    0.1468    2.4539 H   0  0  0  0  0  0  0  0  0  0  0  0
    1.2594   -0.7255   -0.7611 C   0  0  0  0  0  0  0  0  0  0  0  0
    2.3446   -0.1793   -0.9153 O   0  0  0  0  0  0  0  0  0  0  0  0
    0.8766   -1.7286   -1.6312 N   0  0  0  0  0  0  0  0  0  0  0  0
    0.1070   -2.3007   -1.2883 H   0  0  0  0  0  0  0  0  0  0  0  0
    1.7979   -2.3247   -2.5899 C   0  0  0  0  0  0  0  0  0  0  0  0
    2.6327   -2.8060   -2.0699 H   0  0  0  0  0  0  0  0  0  0  0  0
    1.2805   -3.0783   -3.1911 H   0  0  0  0  0  0  0  0  0  0  0  0
    2.1969   -1.5611   -3.2657 H   0  0  0  0  0  0  0  0  0  0  0  0
  1  2  1  0  0  0  0
  2  3  1  0  0  0  0
  2  4  1  0  0  0  0
  2  5  1  0  0  0  0
  5  6  2  0  0  0  0
  5  7  1  0  0  0  0
  7  8  1  0  0  0  0
  7  9  1  0  0  0  0
  9 10  1  0  0  0  0
  9 11  1  0  0  0  0
  9 15  1  0  0  0  0
 11 12  1  0  0  0  0
 11 13  1  0  0  0  0
 11 14  1  0  0  0  0
 15 16  2  0  0  0  0
 15 17  1  0  0  0  0
 17 18  1  0  0  0  0
 17 19  1  0  0  0  0
 19 20  1  0  0  0  0
 19 21  1  0  0  0  0
 19 22  1  0  0  0  0
M  END
$$$$

  -OEChem-11182114133D

 22 21  0     1  0  0  0  0  0999 V2000
   -2.8081   -3.5060    1.4190 H   0  0  0  0  0  0  0  0  0  0  0  0
   -2.7693   -2.4801    1.0412 C   0  0  0  0  0  0  0  0  0  0  0  0
   -3.2030   -1.8143    1.7912 H   0  0  0  0  0  0  0  0  0  0  0  0
   -3.3599   -2.4202    0.1238 H   0  0  0  0  0  0  0  0  0  0  0  0
   -1.3326   -2.0809    0.7623 C   0  0  0  0  0  0  0  0  0  0  0  0
   -0.4434   -2.9068    0.8643 O   0  0  0  0  0  0  0  0  0  0  0  0
   -1.0533   -0.8113    0.2944 N   0  0  0  0  0  0  0  0  0  0  0  0
   -1.8525   -0.1859    0.2459 H   0  0  0  0  0  0  0  0  0  0  0  0
    0.2842   -0.1778    0.3110 C   0  0  1  0  0  0  0  0  0  0  0  0
    0.1374    0.8764    0.0579 H   0  0  0  0  0  0  0  0  0  0  0  0
    0.8932   -0.2172    1.7229 C   0  0  0  0  0  0  0  0  0  0  0  0
    1.1956   -1.2336    1.9924 H   0  0  0  0  0  0  0  0  0  0  0  0
    1.7804    0.4221    1.7693 H   0  0  0  0  0  0  0  0  0  0  0  0
    0.1721    0.1422    2.4625 H   0  0  0  0  0  0  0  0  0  0  0  0
    1.2658   -0.7155   -0.7589 C   0  0  0  0  0  0  0  0  0  0  0  0
    2.4344   -0.3486   -0.7592 O   0  0  0  0  0  0  0  0  0  0  0  0
    0.7991   -1.4719   -1.8176 N   0  0  0  0  0  0  0  0  0  0  0  0
   -0.1032   -1.9109   -1.6587 H   0  0  0  0  0  0  0  0  0  0  0  0
    1.6877   -2.0604   -2.8116 C   0  0  0  0  0  0  0  0  0  0  0  0
    2.3741   -2.7703   -2.3383 H   0  0  0  0  0  0  0  0  0  0  0  0
    1.1057   -2.5916   -3.5705 H   0  0  0  0  0  0  0  0  0  0  0  0
    2.2746   -1.2824   -3.3111 H   0  0  0  0  0  0  0  0  0  0  0  0
  1  2  1  0  0  0  0
  2  3  1  0  0  0  0
  2  4  1  0  0  0  0
  2  5  1  0  0  0  0
  5  6  2  0  0  0  0
  5  7  1  0  0  0  0
  7  8  1  0  0  0  0
  7  9  1  0  0  0  0
  9 10  1  0  0  0  0
  9 11  1  0  0  0  0
  9 15  1  0  0  0  0
 11 12  1  0  0  0  0
 11 13  1  0  0  0  0
 11 14  1  0  0  0  0
 15 16  2  0  0  0  0
 15 17  1  0  0  0  0
 17 18  1  0  0  0  0
 17 19  1  0  0  0  0
 19 20  1  0  0  0  0
 19 21  1  0  0  0  0
 19 22  1  0  0  0  0
M  END
$$$$

  -OEChem-11182114133D

 22 21  0     1  0  0  0  0  0999 V2000
   -2.7858   -3.5288    1.3818 H   0  0  0  0  0  0  0  0  0  0  0  0
   -2.7486   -2.5024    1.0052 C   0  0  0  0  0  0  0  0  0  0  0  0
   -3.2105   -1.8419    1.7430 H   0  0  0  0  0  0  0  0  0  0  0  0
   -3.3144   -2.4495    0.0721 H   0  0  0  0  0  0  0  0  0  0  0  0
   -1.3093   -2.0867    0.7647 C   0  0  0  0  0  0  0  0  0  0  0  0
   -0.4147   -2.8995    0.9103 O   0  0  0  0  0  0  0  0  0  0  0  0
   -1.0348   -0.8137    0.3010 N   0  0  0  0  0  0  0  0  0  0  0  0
   -1.8376   -0.1934    0.2500 H   0  0  0  0  0  0  0  0  0  0  0  0
    0.2999   -0.1760    0.3253 C   0  0  1  0  0  0  0  0  0  0  0  0
    0.1523    0.8768    0.0677 H   0  0  0  0  0  0  0  0  0  0  0  0
    0.8997   -0.2027    1.7422 C   0  0  0  0  0  0  0  0  0  0  0  0
    1.2051   -1.2156    2.0214 H   0  0  0  0  0  0  0  0  0  0  0  0
    1.7837    0.4411    1.7901 H   0  0  0  0  0  0  0  0  0  0  0  0
    0.1715    0.1589    2.4738 H   0  0  0  0  0  0  0  0  0  0  0  0
    1.2757   -0.7182   -0.7483 C   0  0  0  0  0  0  0  0  0  0  0  0
    2.4852   -0.5652   -0.6298 O   0  0  0  0  0  0  0  0  0  0  0  0
    0.7790   -1.1954   -1.9476 N   0  0  0  0  0  0  0  0  0  0  0  0
   -0.2050   -1.4446   -1.9430 H   0  0  0  0  0  0  0  0  0  0  0  0
    1.6344   -1.7528   -2.9881 C   0  0  0  0  0  0  0  0  0  0  0  0
    2.1644   -2.6353   -2.6147 H   0  0  0  0  0  0  0  0  0  0  0  0
    1.0339   -2.0474   -3.8540 H   0  0  0  0  0  0  0  0  0  0  0  0
    2.3713   -1.0124   -3.3174 H   0  0  0  0  0  0  0  0  0  0  0  0
  1  2  1  0  0  0  0
  2  3  1  0  0  0  0
  2  4  1  0  0  0  0
  2  5  1  0  0  0  0
  5  6  2  0  0  0  0
  5  7  1  0  0  0  0
  7  8  1  0  0  0  0
  7  9  1  0  0  0  0
  9 10  1  0  0  0  0
  9 11  1  0  0  0  0
  9 15  1  0  0  0  0
 11 12  1  0  0  0  0
 11 13  1  0  0  0  0
 11 14  1  0  0  0  0
 15 16  2  0  0  0  0
 15 17  1  0  0  0  0
 17 18  1  0  0  0  0
 17 19  1  0  0  0  0
 19 20  1  0  0  0  0
 19 21  1  0  0  0  0
 19 22  1  0  0  0  0
M  END
$$$$

  -OEChem-11182114133D

 22 21  0     1  0  0  0  0  0999 V2000
   -2.7790   -3.5430    1.3486 H   0  0  0  0  0  0  0  0  0  0  0  0
   -2.7385   -2.5144    0.9787 C   0  0  0  0  0  0  0  0  0  0  0  0
   -3.2170   -1.8599    1.7111 H   0  0  0  0  0  0  0  0  0  0  0  0
   -3.2864   -2.4587    0.0352 H   0  0  0  0  0  0  0  0  0  0  0  0
   -1.2963   -2.0925    0.7685 C   0  0  0  0  0  0  0  0  0  0  0  0
   -0.4021   -2.8978    0.9526 O   0  0  0  0  0  0  0  0  0  0  0  0
   -1.0208   -0.8195    0.3042 N   0  0  0  0  0  0  0  0  0  0  0  0
   -1.8266   -0.2053    0.2336 H   0  0  0  0  0  0  0  0  0  0  0  0
    0.3109   -0.1772    0.3324 C   0  0  1  0  0  0  0  0  0  0  0  0
    0.1624    0.8747    0.0716 H   0  0  0  0  0  0  0  0  0  0  0  0
    0.9056   -0.1952    1.7522 C   0  0  0  0  0  0  0  0  0  0  0  0
    1.2154   -1.2053    2.0368 H   0  0  0  0  0  0  0  0  0  0  0  0
    1.7864    0.4529    1.7994 H   0  0  0  0  0  0  0  0  0  0  0  0
    0.1732    0.1651    2.4802 H   0  0  0  0  0  0  0  0  0  0  0  0
    1.2830   -0.7269   -0.7412 C   0  0  0  0  0  0  0  0  0  0  0  0
    2.4882   -0.7964   -0.5337 O   0  0  0  0  0  0  0  0  0  0  0  0
    0.8237   -0.9123   -2.0327 N   0  0  0  0  0  0  0  0  0  0  0  0
   -0.1839   -0.9577   -2.1431 H   0  0  0  0  0  0  0  0  0  0  0  0
    1.6685   -1.4206   -3.1068 C   0  0  0  0  0  0  0  0  0  0  0  0
    2.0376   -2.4221   -2.8617 H   0  0  0  0  0  0  0  0  0  0  0  0
    1.1002   -1.4778   -4.0399 H   0  0  0  0  0  0  0  0  0  0  0  0
    2.5261   -0.7587   -3.2671 H   0  0  0  0  0  0  0  0  0  0  0  0
  1  2  1  0  0  0  0
  2  3  1  0  0  0  0
  2  4  1  0  0  0  0
  2  5  1  0  0  0  0
  5  6  2  0  0  0  0
  5  7  1  0  0  0  0
  7  8  1  0  0  0  0
  7  9  1  0  0  0  0
  9 10  1  0  0  0  0
  9 11  1  0  0  0  0
  9 15  1  0  0  0  0
 11 12  1  0  0  0  0
 11 13  1  0  0  0  0
 11 14  1  0  0  0  0
 15 16  2  0  0  0  0
 15 17  1  0  0  0  0
 17 18  1  0  0  0  0
 17 19  1  0  0  0  0
 19 20  1  0  0  0  0
 19 21  1  0  0  0  0
 19 22  1  0  0  0  0
M  END
$$$$

  -OEChem-11182114133D

 22 21  0     1  0  0  0  0  0999 V2000
   -2.7828   -3.5299    1.3826 H   0  0  0  0  0  0  0  0  0  0  0  0
   -2.7362   -2.5258    0.9515 C   0  0  0  0  0  0  0  0  0  0  0  0
   -3.2540   -1.8337    1.6195 H   0  0  0  0  0  0  0  0  0  0  0  0
   -3.2408   -2.5356   -0.0174 H   0  0  0  0  0  0  0  0  0  0  0  0
   -1.2902   -2.0996    0.7799 C   0  0  0  0  0  0  0  0  0  0  0  0
   -0.4010   -2.9001    1.0018 O   0  0  0  0  0  0  0  0  0  0  0  0
   -1.0101   -0.8268    0.3168 N   0  0  0  0  0  0  0  0  0  0  0  0
   -1.8174   -0.2192    0.2183 H   0  0  0  0  0  0  0  0  0  0  0  0
    0.3196   -0.1817    0.3399 C   0  0  1  0  0  0  0  0  0  0  0  0
    0.1703    0.8706    0.0814 H   0  0  0  0  0  0  0  0  0  0  0  0
    0.9199   -0.1952    1.7575 C   0  0  0  0  0  0  0  0  0  0  0  0
    1.2150   -1.2069    2.0522 H   0  0  0  0  0  0  0  0  0  0  0  0
    1.8112    0.4390    1.7936 H   0  0  0  0  0  0  0  0  0  0  0  0
    0.1961    0.1840    2.4846 H   0  0  0  0  0  0  0  0  0  0  0  0
    1.2834   -0.7341   -0.7402 C   0  0  0  0  0  0  0  0  0  0  0  0
    2.4394   -1.0412   -0.4771 O   0  0  0  0  0  0  0  0  0  0  0  0
    0.9224   -0.6278   -2.0719 N   0  0  0  0  0  0  0  0  0  0  0  0
   -0.0583   -0.4520   -2.2622 H   0  0  0  0  0  0  0  0  0  0  0  0
    1.7768   -1.0828   -3.1622 C   0  0  0  0  0  0  0  0  0  0  0  0
    1.9785   -2.1551   -3.0676 H   0  0  0  0  0  0  0  0  0  0  0  0
    1.2889   -0.9042   -4.1250 H   0  0  0  0  0  0  0  0  0  0  0  0
    2.7298   -0.5432   -3.1542 H   0  0  0  0  0  0  0  0  0  0  0  0
  1  2  1  0  0  0  0
  2  3  1  0  0  0  0
  2  4  1  0  0  0  0
  2  5  1  0  0  0  0
  5  6  2  0  0  0  0
  5  7  1  0  0  0  0
  7  8  1  0  0  0  0
  7  9  1  0  0  0  0
  9 10  1  0  0  0  0
  9 11  1  0  0  0  0
  9 15  1  0  0  0  0
 11 12  1  0  0  0  0
 11 13  1  0  0  0  0
 11 14  1  0  0  0  0
 15 16  2  0  0  0  0
 15 17  1  0  0  0  0
 17 18  1  0  0  0  0
 17 19  1  0  0  0  0
 19 20  1  0  0  0  0
 19 21  1  0  0  0  0
 19 22  1  0  0  0  0
M  END
$$$$

  -OEChem-11182114133D

 22 21  0     1  0  0  0  0  0999 V2000
   -2.8003   -3.5388    1.3681 H   0  0  0  0  0  0  0  0  0  0  0  0
   -2.7433   -2.5385    0.9292 C   0  0  0  0  0  0  0  0  0  0  0  0
   -3.2935   -1.8442    1.5686 H   0  0  0  0  0  0  0  0  0  0  0  0
   -3.2077   -2.5620   -0.0593 H   0  0  0  0  0  0  0  0  0  0  0  0
   -1.2944   -2.1032    0.8111 C   0  0  0  0  0  0  0  0  0  0  0  0
   -0.4128   -2.8919    1.0953 O   0  0  0  0  0  0  0  0  0  0  0  0
   -1.0075   -0.8343    0.3406 N   0  0  0  0  0  0  0  0  0  0  0  0
   -1.8153   -0.2421    0.1761 H   0  0  0  0  0  0  0  0  0  0  0  0
    0.3213   -0.1869    0.3436 C   0  0  1  0  0  0  0  0  0  0  0  0
    0.1646    0.8647    0.0867 H   0  0  0  0  0  0  0  0  0  0  0  0
    0.9434   -0.1901    1.7516 C   0  0  0  0  0  0  0  0  0  0  0  0
    1.2427   -1.1990    2.0516 H   0  0  0  0  0  0  0  0  0  0  0  0
    1.8358    0.4430    1.7679 H   0  0  0  0  0  0  0  0  0  0  0  0
    0.2310    0.1951    2.4866 H   0  0  0  0  0  0  0  0  0  0  0  0
    1.2768   -0.7409   -0.7443 C   0  0  0  0  0  0  0  0  0  0  0  0
    2.3317   -1.2949   -0.4638 O   0  0  0  0  0  0  0  0  0  0  0  0
    1.0699   -0.3731   -2.0628 N   0  0  0  0  0  0  0  0  0  0  0  0
    0.1780    0.0527   -2.2901 H   0  0  0  0  0  0  0  0  0  0  0  0
    1.9558   -0.7738   -3.1498 C   0  0  0  0  0  0  0  0  0  0  0  0
    1.9848   -1.8651   -3.2370 H   0  0  0  0  0  0  0  0  0  0  0  0
    1.6029   -0.3588   -4.0986 H   0  0  0  0  0  0  0  0  0  0  0  0
    2.9723   -0.4073   -2.9714 H   0  0  0  0  0  0  0  0  0  0  0  0
  1  2  1  0  0  0  0
  2  3  1  0  0  0  0
  2  4  1  0  0  0  0
  2  5  1  0  0  0  0
  5  6  2  0  0  0  0
  5  7  1  0  0  0  0
  7  8  1  0  0  0  0
  7  9  1  0  0  0  0
  9 10  1  0  0  0  0
  9 11  1  0  0  0  0
  9 15  1  0  0  0  0
 11 12  1  0  0  0  0
 11 13  1  0  0  0  0
 11 14  1  0  0  0  0
 15 16  2  0  0  0  0
 15 17  1  0  0  0  0
 17 18  1  0  0  0  0
 17 19  1  0  0  0  0
 19 20  1  0  0  0  0
 19 21  1  0  0  0  0
 19 22  1  0  0  0  0
M  END
$$$$

  -OEChem-11182114133D

 22 21  0     1  0  0  0  0  0999 V2000
   -2.8143   -3.5637    1.2761 H   0  0  0  0  0  0  0  0  0  0  0  0
   -2.7382   -2.5601    0.8477 C   0  0  0  0  0  0  0  0  0  0  0  0
   -3.3662   -1.8820    1.4303 H   0  0  0  0  0  0  0  0  0  0  0  0
   -3.1007   -2.5906   -0.1825 H   0  0  0  0  0  0  0  0  0  0  0  0
   -1.2956   -2.0891    0.8770 C   0  0  0  0  0  0  0  0  0  0  0  0
   -0.4400   -2.8413    1.3032 O   0  0  0  0  0  0  0  0  0  0  0  0
   -0.9965   -0.8238    0.4020 N   0  0  0  0  0  0  0  0  0  0  0  0
   -1.7919   -0.2816    0.0811 H   0  0  0  0  0  0  0  0  0  0  0  0
    0.3320   -0.1762    0.3735 C   0  0  1  0  0  0  0  0  0  0  0  0
    0.1648    0.8757    0.1265 H   0  0  0  0  0  0  0  0  0  0  0  0
    0.9998   -0.1743    1.7597 C   0  0  0  0  0  0  0  0  0  0  0  0
    1.3120   -1.1808    2.0542 H   0  0  0  0  0  0  0  0  0  0  0  0
    1.8903    0.4614    1.7452 H   0  0  0  0  0  0  0  0  0  0  0  0
    0.3097    0.2111    2.5158 H   0  0  0  0  0  0  0  0  0  0  0  0
    1.2637   -0.7310   -0.7348 C   0  0  0  0  0  0  0  0  0  0  0  0
    2.1394   -1.5534   -0.5053 O   0  0  0  0  0  0  0  0  0  0  0  0
    1.2432   -0.1404   -1.9875 N   0  0  0  0  0  0  0  0  0  0  0  0
    0.5231    0.5497   -2.1717 H   0  0  0  0  0  0  0  0  0  0  0  0
    2.1374   -0.5337   -3.0707 C   0  0  0  0  0  0  0  0  0  0  0  0
    1.9953   -1.5907   -3.3200 H   0  0  0  0  0  0  0  0  0  0  0  0
    1.9350    0.0632   -3.9652 H   0  0  0  0  0  0  0  0  0  0  0  0
    3.1820   -0.3778   -2.7810 H   0  0  0  0  0  0  0  0  0  0  0  0
  1  2  1  0  0  0  0
  2  3  1  0  0  0  0
  2  4  1  0  0  0  0
  2  5  1  0  0  0  0
  5  6  2  0  0  0  0
  5  7  1  0  0  0  0
  7  8  1  0  0  0  0
  7  9  1  0  0  0  0
  9 10  1  0  0  0  0
  9 11  1  0  0  0  0
  9 15  1  0  0  0  0
 11 12  1  0  0  0  0
 11 13  1  0  0  0  0
 11 14  1  0  0  0  0
 15 16  2  0  0  0  0
 15 17  1  0  0  0  0
 17 18  1  0  0  0  0
 17 19  1  0  0  0  0
 19 20  1  0  0  0  0
 19 21  1  0  0  0  0
 19 22  1  0  0  0  0
M  END
$$$$

  -OEChem-11182114133D

 22 21  0     1  0  0  0  0  0999 V2000
   -2.7737   -3.5941    1.1484 H   0  0  0  0  0  0  0  0  0  0  0  0
   -2.6898   -2.5892    0.7246 C   0  0  0  0  0  0  0  0  0  0  0  0
   -3.4357   -1.9454    1.1964 H   0  0  0  0  0  0  0  0  0  0  0  0
   -2.8884   -2.6446   -0.3483 H   0  0  0  0  0  0  0  0  0  0  0  0
   -1.2975   -2.0355    0.9656 C   0  0  0  0  0  0  0  0  0  0  0  0
   -0.5044   -2.7047    1.6013 O   0  0  0  0  0  0  0  0  0  0  0  0
   -0.9950   -0.7725    0.4844 N   0  0  0  0  0  0  0  0  0  0  0  0
   -1.7351   -0.3376   -0.0564 H   0  0  0  0  0  0  0  0  0  0  0  0
    0.3414   -0.1422    0.4277 C   0  0  1  0  0  0  0  0  0  0  0  0
    0.1731    0.9125    0.1935 H   0  0  0  0  0  0  0  0  0  0  0  0
    1.0656   -0.1549    1.7838 C   0  0  0  0  0  0  0  0  0  0  0  0
    1.4275   -1.1573    2.0324 H   0  0  0  0  0  0  0  0  0  0  0  0
    1.9306    0.5143    1.7540 H   0  0  0  0  0  0  0  0  0  0  0  0
    0.3931    0.1799    2.5789 H   0  0  0  0  0  0  0  0  0  0  0  0
    1.2406   -0.7051   -0.7016 C   0  0  0  0  0  0  0  0  0  0  0  0
    1.7941   -1.7917   -0.6198 O   0  0  0  0  0  0  0  0  0  0  0  0
    1.4518    0.0510   -1.8426 N   0  0  0  0  0  0  0  0  0  0  0  0
    1.0154    0.9655   -1.8933 H   0  0  0  0  0  0  0  0  0  0  0  0
    2.3073   -0.3834   -2.9414 C   0  0  0  0  0  0  0  0  0  0  0  0
    1.9506   -1.3338   -3.3524 H   0  0  0  0  0  0  0  0  0  0  0  0
    2.3032    0.3618   -3.7425 H   0  0  0  0  0  0  0  0  0  0  0  0
    3.3381   -0.5145   -2.5957 H   0  0  0  0  0  0  0  0  0  0  0  0
  1  2  1  0  0  0  0
  2  3  1  0  0  0  0
  2  4  1  0  0  0  0
  2  5  1  0  0  0  0
  5  6  2  0  0  0  0
  5  7  1  0  0  0  0
  7  8  1  0  0  0  0
  7  9  1  0  0  0  0
  9 10  1  0  0  0  0
  9 11  1  0  0  0  0
  9 15  1  0  0  0  0
 11 12  1  0  0  0  0
 11 13  1  0  0  0  0
 11 14  1  0  0  0  0
 15 16  2  0  0  0  0
 15 17  1  0  0  0  0
 17 18  1  0  0  0  0
 17 19  1  0  0  0  0
 19 20  1  0  0  0  0
 19 21  1  0  0  0  0
 19 22  1  0  0  0  0
M  END
$$$$

  -OEChem-11182114133D

 22 21  0     1  0  0  0  0  0999 V2000
   -2.7242   -3.6040    1.1095 H   0  0  0  0  0  0  0  0  0  0  0  0
   -2.6340   -2.6146    0.6519 C   0  0  0  0  0  0  0  0  0  0  0  0
   -3.4499   -1.9844    1.0133 H   0  0  0  0  0  0  0  0  0  0  0  0
   -2.7148   -2.7227   -0.4323 H   0  0  0  0  0  0  0  0  0  0  0  0
   -1.2971   -1.9926    1.0112 C   0  0  0  0  0  0  0  0  0  0  0  0
   -0.5554   -2.5957    1.7665 O   0  0  0  0  0  0  0  0  0  0  0  0
   -1.0012   -0.7294    0.5242 N   0  0  0  0  0  0  0  0  0  0  0  0
   -1.6905   -0.3705   -0.1283 H   0  0  0  0  0  0  0  0  0  0  0  0
    0.3432   -0.1153    0.4652 C   0  0  1  0  0  0  0  0  0  0  0  0
    0.1789    0.9405    0.2331 H   0  0  0  0  0  0  0  0  0  0  0  0
    1.0875   -0.1376    1.8085 C   0  0  0  0  0  0  0  0  0  0  0  0
    1.4799   -1.1362    2.0248 H   0  0  0  0  0  0  0  0  0  0  0  0
    1.9329    0.5562    1.7832 H   0  0  0  0  0  0  0  0  0  0  0  0
    0.4177    0.1588    2.6213 H   0  0  0  0  0  0  0  0  0  0  0  0
    1.2354   -0.6862   -0.6648 C   0  0  0  0  0  0  0  0  0  0  0  0
    1.4304   -1.8862   -0.7940 O   0  0  0  0  0  0  0  0  0  0  0  0
    1.7145    0.1622   -1.6488 N   0  0  0  0  0  0  0  0  0  0  0  0
    1.5580    1.1582   -1.5326 H   0  0  0  0  0  0  0  0  0  0  0  0
    2.5189   -0.2965   -2.7758 C   0  0  0  0  0  0  0  0  0  0  0  0
    1.9604   -1.0245   -3.3737 H   0  0  0  0  0  0  0  0  0  0  0  0
    2.7848    0.5473   -3.4199 H   0  0  0  0  0  0  0  0  0  0  0  0
    3.4423   -0.7667   -2.4213 H   0  0  0  0  0  0  0  0  0  0  0  0
  1  2  1  0  0  0  0
  2  3  1  0  0  0  0
  2  4  1  0  0  0  0
  2  5  1  0  0  0  0
  5  6  2  0  0  0  0
  5  7  1  0  0  0  0
  7  8  1  0  0  0  0
  7  9  1  0  0  0  0
  9 10  1  0  0  0  0
  9 11  1  0  0  0  0
  9 15  1  0  0  0  0
 11 12  1  0  0  0  0
 11 13  1  0  0  0  0
 11 14  1  0  0  0  0
 15 16  2  0  0  0  0
 15 17  1  0  0  0  0
 17 18  1  0  0  0  0
 17 19  1  0  0  0  0
 19 20  1  0  0  0  0
 19 21  1  0  0  0  0
 19 22  1  0  0  0  0
M  END
$$$$

  -OEChem-11182114133D

 22 21  0     1  0  0  0  0  0999 V2000
   -2.7089   -3.6075    1.1094 H   0  0  0  0  0  0  0  0  0  0  0  0
   -2.6183   -2.6241    0.6393 C   0  0  0  0  0  0  0  0  0  0  0  0
   -3.4504   -1.9980    0.9694 H   0  0  0  0  0  0  0  0  0  0  0  0
   -2.6687   -2.7491   -0.4450 H   0  0  0  0  0  0  0  0  0  0  0  0
   -1.2989   -1.9810    1.0245 C   0  0  0  0  0  0  0  0  0  0  0  0
   -0.5653   -2.5665    1.8025 O   0  0  0  0  0  0  0  0  0  0  0  0
   -1.0051   -0.7201    0.5306 N   0  0  0  0  0  0  0  0  0  0  0  0
   -1.6713   -0.3901   -0.1602 H   0  0  0  0  0  0  0  0  0  0  0  0
    0.3427   -0.1138    0.4763 C   0  0  1  0  0  0  0  0  0  0  0  0
    0.1791    0.9388    0.2294 H   0  0  0  0  0  0  0  0  0  0  0  0
    1.0808   -0.1223    1.8233 C   0  0  0  0  0  0  0  0  0  0  0  0
    1.4757   -1.1178    2.0489 H   0  0  0  0  0  0  0  0  0  0  0  0
    1.9230    0.5753    1.7976 H   0  0  0  0  0  0  0  0  0  0  0  0
    0.4055    0.1776    2.6303 H   0  0  0  0  0  0  0  0  0  0  0  0
    1.2431   -0.6914   -0.6439 C   0  0  0  0  0  0  0  0  0  0  0  0
    1.1666   -1.8616   -0.9928 O   0  0  0  0  0  0  0  0  0  0  0  0
    1.9818    0.1741   -1.4328 N   0  0  0  0  0  0  0  0  0  0  0  0
    2.0367    1.1454   -1.1431 H   0  0  0  0  0  0  0  0  0  0  0  0
    2.7785   -0.2654   -2.5727 C   0  0  0  0  0  0  0  0  0  0  0  0
    2.1406   -0.7392   -3.3263 H   0  0  0  0  0  0  0  0  0  0  0  0
    3.2815    0.5891   -3.0352 H   0  0  0  0  0  0  0  0  0  0  0  0
    3.5403   -0.9846   -2.2536 H   0  0  0  0  0  0  0  0  0  0  0  0
  1  2  1  0  0  0  0
  2  3  1  0  0  0  0
  2  4  1  0  0  0  0
  2  5  1  0  0  0  0
  5  6  2  0  0  0  0
  5  7  1  0  0  0  0
  7  8  1  0  0  0  0
  7  9  1  0  0  0  0
  9 10  1  0  0  0  0
  9 11  1  0  0  0  0
  9 15  1  0  0  0  0
 11 12  1  0  0  0  0
 11 13  1  0  0  0  0
 11 14  1  0  0  0  0
 15 16  2  0  0  0  0
 15 17  1  0  0  0  0
 17 18  1  0  0  0  0
 17 19  1  0  0  0  0
 19 20  1  0  0  0  0
 19 21  1  0  0  0  0
 19 22  1  0  0  0  0
M  END
$$$$

  -OEChem-11182114133D

 22 21  0     1  0  0  0  0  0999 V2000
   -2.7073   -3.6067    1.1231 H   0  0  0  0  0  0  0  0  0  0  0  0
   -2.6190   -2.6252    0.6487 C   0  0  0  0  0  0  0  0  0  0  0  0
   -3.4510   -1.9986    0.9779 H   0  0  0  0  0  0  0  0  0  0  0  0
   -2.6714   -2.7543   -0.4350 H   0  0  0  0  0  0  0  0  0  0  0  0
   -1.2995   -1.9789    1.0269 C   0  0  0  0  0  0  0  0  0  0  0  0
   -0.5502   -2.5698    1.7864 O   0  0  0  0  0  0  0  0  0  0  0  0
   -1.0092   -0.7193    0.5290 N   0  0  0  0  0  0  0  0  0  0  0  0
   -1.6661   -0.4020   -0.1767 H   0  0  0  0  0  0  0  0  0  0  0  0
    0.3394   -0.1156    0.4774 C   0  0  1  0  0  0  0  0  0  0  0  0
    0.1784    0.9349    0.2186 H   0  0  0  0  0  0  0  0  0  0  0  0
    1.0677   -0.1116    1.8303 C   0  0  0  0  0  0  0  0  0  0  0  0
    1.4697   -1.1022    2.0641 H   0  0  0  0  0  0  0  0  0  0  0  0
    1.9035    0.5937    1.8091 H   0  0  0  0  0  0  0  0  0  0  0  0
    0.3831    0.1861    2.6304 H   0  0  0  0  0  0  0  0  0  0  0  0
    1.2430   -0.6984   -0.6379 C   0  0  0  0  0  0  0  0  0  0  0  0
    0.9744   -1.7570   -1.1921 O   0  0  0  0  0  0  0  0  0  0  0  0
    2.2107    0.1072   -1.2131 N   0  0  0  0  0  0  0  0  0  0  0  0
    2.4246    0.9856   -0.7515 H   0  0  0  0  0  0  0  0  0  0  0  0
    3.0369   -0.3141   -2.3388 C   0  0  0  0  0  0  0  0  0  0  0  0
    2.4132   -0.5319   -3.2122 H   0  0  0  0  0  0  0  0  0  0  0  0
    3.7419    0.4782   -2.6081 H   0  0  0  0  0  0  0  0  0  0  0  0
    3.6076   -1.2124   -2.0806 H   0  0  0  0  0  0  0  0  0  0  0  0
  1  2  1  0  0  0  0
  2  3  1  0  0  0  0
  2  4  1  0  0  0  0
  2  5  1  0  0  0  0
  5  6  2  0  0  0  0
  5  7  1  0  0  0  0
  7  8  1  0  0  0  0
  7  9  1  0  0  0  0
  9 10  1  0  0  0  0
  9 11  1  0  0  0  0
  9 15  1  0  0  0  0
 11 12  1  0  0  0  0
 11 13  1  0  0  0  0
 11 14  1  0  0  0  0
 15 16  2  0  0  0  0
 15 17  1  0  0  0  0
 17 18  1  0  0  0  0
 17 19  1  0  0  0  0
 19 20  1  0  0  0  0
 19 21  1  0  0  0  0
 19 22  1  0  0  0  0
M  END
$$$$

  -OEChem-11182114133D

 22 21  0     1  0  0  0  0  0999 V2000
   -2.7059   -3.6041    1.1373 H   0  0  0  0  0  0  0  0  0  0  0  0
   -2.6180   -2.6261    0.6559 C   0  0  0  0  0  0  0  0  0  0  0  0
   -3.4470   -1.9954    0.9851 H   0  0  0  0  0  0  0  0  0  0  0  0
   -2.6765   -2.7616   -0.4269 H   0  0  0  0  0  0  0  0  0  0  0  0
   -1.2948   -1.9807    1.0224 C   0  0  0  0  0  0  0  0  0  0  0  0
   -0.5240   -2.5845    1.7501 O   0  0  0  0  0  0  0  0  0  0  0  0
   -1.0111   -0.7189    0.5282 N   0  0  0  0  0  0  0  0  0  0  0  0
   -1.6667   -0.4048   -0.1805 H   0  0  0  0  0  0  0  0  0  0  0  0
    0.3347   -0.1094    0.4804 C   0  0  1  0  0  0  0  0  0  0  0  0
    0.1745    0.9405    0.2183 H   0  0  0  0  0  0  0  0  0  0  0  0
    1.0549   -0.1015    1.8388 C   0  0  0  0  0  0  0  0  0  0  0  0
    1.4653   -1.0884    2.0730 H   0  0  0  0  0  0  0  0  0  0  0  0
    1.8828    0.6130    1.8265 H   0  0  0  0  0  0  0  0  0  0  0  0
    0.3615    0.1874    2.6345 H   0  0  0  0  0  0  0  0  0  0  0  0
    1.2365   -0.6913   -0.6367 C   0  0  0  0  0  0  0  0  0  0  0  0
    0.8412   -1.5951   -1.3640 O   0  0  0  0  0  0  0  0  0  0  0  0
    2.3906   -0.0197   -1.0009 N   0  0  0  0  0  0  0  0  0  0  0  0
    2.7118    0.7230   -0.3878 H   0  0  0  0  0  0  0  0  0  0  0  0
    3.2551   -0.4522   -2.0929 C   0  0  0  0  0  0  0  0  0  0  0  0
    2.7151   -0.4218   -3.0451 H   0  0  0  0  0  0  0  0  0  0  0  0
    4.1262    0.2056   -2.1693 H   0  0  0  0  0  0  0  0  0  0  0  0
    3.6077   -1.4747   -1.9205 H   0  0  0  0  0  0  0  0  0  0  0  0
  1  2  1  0  0  0  0
  2  3  1  0  0  0  0
  2  4  1  0  0  0  0
  2  5  1  0  0  0  0
  5  6  2  0  0  0  0
  5  7  1  0  0  0  0
  7  8  1  0  0  0  0
  7  9  1  0  0  0  0
  9 10  1  0  0  0  0
  9 11  1  0  0  0  0
  9 15  1  0  0  0  0
 11 12  1  0  0  0  0
 11 13  1  0  0  0  0
 11 14  1  0  0  0  0
 15 16  2  0  0  0  0
 15 17  1  0  0  0  0
 17 18  1  0  0  0  0
 17 19  1  0  0  0  0
 19 20  1  0  0  0  0
 19 21  1  0  0  0  0
 19 22  1  0  0  0  0
M  END
$$$$

  -OEChem-11182114133D

 22 21  0     1  0  0  0  0  0999 V2000
   -2.7393   -3.6146    1.0514 H   0  0  0  0  0  0  0  0  0  0  0  0
   -2.6505   -2.6037    0.6432 C   0  0  0  0  0  0  0  0  0  0  0  0
   -3.4478   -1.9841    1.0605 H   0  0  0  0  0  0  0  0  0  0  0  0
   -2.7645   -2.6528   -0.4427 H   0  0  0  0  0  0  0  0  0  0  0  0
   -1.2967   -2.0142    0.9939 C   0  0  0  0  0  0  0  0  0  0  0  0
   -0.5247   -2.6777    1.6657 O   0  0  0  0  0  0  0  0  0  0  0  0
   -0.9858   -0.7491    0.5260 N   0  0  0  0  0  0  0  0  0  0  0  0
   -1.6423   -0.4062   -0.1701 H   0  0  0  0  0  0  0  0  0  0  0  0
    0.3527   -0.1194    0.4913 C   0  0  1  0  0  0  0  0  0  0  0  0
    0.1714    0.9593    0.4975 H   0  0  0  0  0  0  0  0  0  0  0  0
    1.2335   -0.3960    1.7220 C   0  0  0  0  0  0  0  0  0  0  0  0
    1.6597   -1.4034    1.6804 H   0  0  0  0  0  0  0  0  0  0  0  0
    2.0591    0.3198    1.7706 H   0  0  0  0  0  0  0  0  0  0  0  0
    0.6447   -0.3011    2.6396 H   0  0  0  0  0  0  0  0  0  0  0  0
    1.1015   -0.4110   -0.8318 C   0  0  0  0  0  0  0  0  0  0  0  0
    0.5189   -0.9395   -1.7723 O   0  0  0  0  0  0  0  0  0  0  0  0
    2.3715    0.0962   -1.0432 N   0  0  0  0  0  0  0  0  0  0  0  0
    2.8491    0.5021   -0.2445 H   0  0  0  0  0  0  0  0  0  0  0  0
    3.1197   -0.1137   -2.2769 C   0  0  0  0  0  0  0  0  0  0  0  0
    2.5718    0.2953   -3.1324 H   0  0  0  0  0  0  0  0  0  0  0  0
    4.0913    0.3863   -2.2195 H   0  0  0  0  0  0  0  0  0  0  0  0
    3.2889   -1.1826   -2.4445 H   0  0  0  0  0  0  0  0  0  0  0  0
  1  2  1  0  0  0  0
  2  3  1  0  0  0  0
  2  4  1  0  0  0  0
  2  5  1  0  0  0  0
  5  6  2  0  0  0  0
  5  7  1  0  0  0  0
  7  8  1  0  0  0  0
  7  9  1  0  0  0  0
  9 10  1  0  0  0  0
  9 11  1  0  0  0  0
  9 15  1  0  0  0  0
 11 12  1  0  0  0  0
 11 13  1  0  0  0  0
 11 14  1  0  0  0  0
 15 16  2  0  0  0  0
 15 17  1  0  0  0  0
 17 18  1  0  0  0  0
 17 19  1  0  0  0  0
 19 20  1  0  0  0  0
 19 21  1  0  0  0  0
 19 22  1  0  0  0  0
M  END
$$$$

  -OEChem-11182114133D

 22 21  0     1  0  0  0  0  0999 V2000
   -2.7384   -3.6150    1.0519 H   0  0  0  0  0  0  0  0  0  0  0  0
   -2.6522   -2.6009    0.6513 C   0  0  0  0  0  0  0  0  0  0  0  0
   -3.4337   -1.9794    1.0949 H   0  0  0  0  0  0  0  0  0  0  0  0
   -2.7945   -2.6381   -0.4317 H   0  0  0  0  0  0  0  0  0  0  0  0
   -1.2857   -2.0249    0.9731 C   0  0  0  0  0  0  0  0  0  0  0  0
   -0.4956   -2.7040    1.6072 O   0  0  0  0  0  0  0  0  0  0  0  0
   -0.9768   -0.7575    0.5114 N   0  0  0  0  0  0  0  0  0  0  0  0
   -1.6401   -0.3988   -0.1704 H   0  0  0  0  0  0  0  0  0  0  0  0
    0.3559   -0.1169    0.4928 C   0  0  1  0  0  0  0  0  0  0  0  0
    0.1681    0.9608    0.4911 H   0  0  0  0  0  0  0  0  0  0  0  0
    1.2131   -0.3800    1.7438 C   0  0  0  0  0  0  0  0  0  0  0  0
    1.6549   -1.3810    1.7140 H   0  0  0  0  0  0  0  0  0  0  0  0
    2.0252    0.3497    1.8108 H   0  0  0  0  0  0  0  0  0  0  0  0
    0.6016   -0.2935    2.6474 H   0  0  0  0  0  0  0  0  0  0  0  0
    1.1147   -0.4061   -0.8254 C   0  0  0  0  0  0  0  0  0  0  0  0
    0.4907   -0.7137   -1.8351 O   0  0  0  0  0  0  0  0  0  0  0  0
    2.4744   -0.1719   -0.9316 N   0  0  0  0  0  0  0  0  0  0  0  0
    2.9791    0.0217   -0.0720 H   0  0  0  0  0  0  0  0  0  0  0  0
    3.2350   -0.4270   -2.1491 C   0  0  0  0  0  0  0  0  0  0  0  0
    2.8363    0.1616   -2.9820 H   0  0  0  0  0  0  0  0  0  0  0  0
    4.2840   -0.1511   -2.0049 H   0  0  0  0  0  0  0  0  0  0  0  0
    3.1887   -1.4886   -2.4138 H   0  0  0  0  0  0  0  0  0  0  0  0
  1  2  1  0  0  0  0
  2  3  1  0  0  0  0
  2  4  1  0  0  0  0
  2  5  1  0  0  0  0
  5  6  2  0  0  0  0
  5  7  1  0  0  0  0
  7  8  1  0  0  0  0
  7  9  1  0  0  0  0
  9 10  1  0  0  0  0
  9 11  1  0  0  0  0
  9 15  1  0  0  0  0
 11 12  1  0  0  0  0
 11 13  1  0  0  0  0
 11 14  1  0  0  0  0
 15 16  2  0  0  0  0
 15 17  1  0  0  0  0
 17 18  1  0  0  0  0
 17 19  1  0  0  0  0
 19 20  1  0  0  0  0
 19 21  1  0  0  0  0
 19 22  1  0  0  0  0
M  END
$$$$

  -OEChem-11182114133D

 22 21  0     1  0  0  0  0  0999 V2000
   -2.7389   -3.6148    1.0504 H   0  0  0  0  0  0  0  0  0  0  0  0
   -2.6524   -2.5988    0.6552 C   0  0  0  0  0  0  0  0  0  0  0  0
   -3.4192   -1.9740    1.1191 H   0  0  0  0  0  0  0  0  0  0  0  0
   -2.8174   -2.6269   -0.4247 H   0  0  0  0  0  0  0  0  0  0  0  0
   -1.2752   -2.0355    0.9525 C   0  0  0  0  0  0  0  0  0  0  0  0
   -0.4709   -2.7280    1.5533 O   0  0  0  0  0  0  0  0  0  0  0  0
   -0.9662   -0.7668    0.4960 N   0  0  0  0  0  0  0  0  0  0  0  0
   -1.6405   -0.3871   -0.1635 H   0  0  0  0  0  0  0  0  0  0  0  0
    0.3609   -0.1163    0.4939 C   0  0  1  0  0  0  0  0  0  0  0  0
    0.1664    0.9603    0.4830 H   0  0  0  0  0  0  0  0  0  0  0  0
    1.1972   -0.3637    1.7629 C   0  0  0  0  0  0  0  0  0  0  0  0
    1.6357   -1.3663    1.7586 H   0  0  0  0  0  0  0  0  0  0  0  0
    2.0110    0.3644    1.8294 H   0  0  0  0  0  0  0  0  0  0  0  0
    0.5716   -0.2596    2.6550 H   0  0  0  0  0  0  0  0  0  0  0  0
    1.1305   -0.4051   -0.8174 C   0  0  0  0  0  0  0  0  0  0  0  0
    0.5104   -0.4938   -1.8713 O   0  0  0  0  0  0  0  0  0  0  0  0
    2.5127   -0.4648   -0.8491 N   0  0  0  0  0  0  0  0  0  0  0  0
    2.9933   -0.4800    0.0455 H   0  0  0  0  0  0  0  0  0  0  0  0
    3.2693   -0.7716   -2.0568 C   0  0  0  0  0  0  0  0  0  0  0  0
    3.0521   -0.0400   -2.8423 H   0  0  0  0  0  0  0  0  0  0  0  0
    4.3430   -0.7429   -1.8479 H   0  0  0  0  0  0  0  0  0  0  0  0
    3.0138   -1.7707   -2.4251 H   0  0  0  0  0  0  0  0  0  0  0  0
  1  2  1  0  0  0  0
  2  3  1  0  0  0  0
  2  4  1  0  0  0  0
  2  5  1  0  0  0  0
  5  6  2  0  0  0  0
  5  7  1  0  0  0  0
  7  8  1  0  0  0  0
  7  9  1  0  0  0  0
  9 10  1  0  0  0  0
  9 11  1  0  0  0  0
  9 15  1  0  0  0  0
 11 12  1  0  0  0  0
 11 13  1  0  0  0  0
 11 14  1  0  0  0  0
 15 16  2  0  0  0  0
 15 17  1  0  0  0  0
 17 18  1  0  0  0  0
 17 19  1  0  0  0  0
 19 20  1  0  0  0  0
 19 21  1  0  0  0  0
 19 22  1  0  0  0  0
M  END
$$$$

  -OEChem-11182114133D

 22 21  0     1  0  0  0  0  0999 V2000
   -2.7414   -3.6111    1.0611 H   0  0  0  0  0  0  0  0  0  0  0  0
   -2.6548   -2.5951    0.6660 C   0  0  0  0  0  0  0  0  0  0  0  0
   -3.4029   -1.9640    1.1514 H   0  0  0  0  0  0  0  0  0  0  0  0
   -2.8488   -2.6189   -0.4091 H   0  0  0  0  0  0  0  0  0  0  0  0
   -1.2647   -2.0468    0.9284 C   0  0  0  0  0  0  0  0  0  0  0  0
   -0.4450   -2.7538    1.4903 O   0  0  0  0  0  0  0  0  0  0  0  0
   -0.9553   -0.7776    0.4750 N   0  0  0  0  0  0  0  0  0  0  0  0
   -1.6471   -0.3698   -0.1487 H   0  0  0  0  0  0  0  0  0  0  0  0
    0.3667   -0.1192    0.4888 C   0  0  1  0  0  0  0  0  0  0  0  0
    0.1668    0.9565    0.4688 H   0  0  0  0  0  0  0  0  0  0  0  0
    1.1841   -0.3509    1.7734 C   0  0  0  0  0  0  0  0  0  0  0  0
    1.6086   -1.3587    1.8022 H   0  0  0  0  0  0  0  0  0  0  0  0
    2.0078    0.3671    1.8305 H   0  0  0  0  0  0  0  0  0  0  0  0
    0.5491   -0.2159    2.6544 H   0  0  0  0  0  0  0  0  0  0  0  0
    1.1480   -0.4097   -0.8137 C   0  0  0  0  0  0  0  0  0  0  0  0
    0.5773   -0.2798   -1.8904 O   0  0  0  0  0  0  0  0  0  0  0  0
    2.4851   -0.7658   -0.8003 N   0  0  0  0  0  0  0  0  0  0  0  0
    2.8888   -0.9900    0.1045 H   0  0  0  0  0  0  0  0  0  0  0  0
    3.2264   -1.1199   -2.0044 C   0  0  0  0  0  0  0  0  0  0  0  0
    3.2139   -0.2915   -2.7205 H   0  0  0  0  0  0  0  0  0  0  0  0
    4.2685   -1.3425   -1.7552 H   0  0  0  0  0  0  0  0  0  0  0  0
    2.7860   -2.0031   -2.4791 H   0  0  0  0  0  0  0  0  0  0  0  0
  1  2  1  0  0  0  0
  2  3  1  0  0  0  0
  2  4  1  0  0  0  0
  2  5  1  0  0  0  0
  5  6  2  0  0  0  0
  5  7  1  0  0  0  0
  7  8  1  0  0  0  0
  7  9  1  0  0  0  0
  9 10  1  0  0  0  0
  9 11  1  0  0  0  0
  9 15  1  0  0  0  0
 11 12  1  0  0  0  0
 11 13  1  0  0  0  0
 11 14  1  0  0  0  0
 15 16  2  0  0  0  0
 15 17  1  0  0  0  0
 17 18  1  0  0  0  0
 17 19  1  0  0  0  0
 19 20  1  0  0  0  0
 19 21  1  0  0  0  0
 19 22  1  0  0  0  0
M  END
$$$$

  -OEChem-11182114133D

 22 21  0     1  0  0  0  0  0999 V2000
   -2.7460   -3.6063    1.0824 H   0  0  0  0  0  0  0  0  0  0  0  0
   -2.6641   -2.5887    0.6897 C   0  0  0  0  0  0  0  0  0  0  0  0
   -3.3859   -1.9526    1.2077 H   0  0  0  0  0  0  0  0  0  0  0  0
   -2.9003   -2.6036   -0.3772 H   0  0  0  0  0  0  0  0  0  0  0  0
   -1.2586   -2.0576    0.9013 C   0  0  0  0  0  0  0  0  0  0  0  0
   -0.4208   -2.7810    1.4138 O   0  0  0  0  0  0  0  0  0  0  0  0
   -0.9477   -0.7895    0.4468 N   0  0  0  0  0  0  0  0  0  0  0  0
   -1.6621   -0.3465   -0.1253 H   0  0  0  0  0  0  0  0  0  0  0  0
    0.3716   -0.1278    0.4748 C   0  0  1  0  0  0  0  0  0  0  0  0
    0.1694    0.9475    0.4444 H   0  0  0  0  0  0  0  0  0  0  0  0
    1.1734   -0.3448    1.7719 C   0  0  0  0  0  0  0  0  0  0  0  0
    1.5762   -1.3595    1.8343 H   0  0  0  0  0  0  0  0  0  0  0  0
    2.0127    0.3561    1.8148 H   0  0  0  0  0  0  0  0  0  0  0  0
    0.5348   -0.1708    2.6433 H   0  0  0  0  0  0  0  0  0  0  0  0
    1.1659   -0.4238   -0.8167 C   0  0  0  0  0  0  0  0  0  0  0  0
    0.6951   -0.0777   -1.8934 O   0  0  0  0  0  0  0  0  0  0  0  0
    2.3917   -1.0638   -0.7888 N   0  0  0  0  0  0  0  0  0  0  0  0
    2.6642   -1.4808    0.0972 H   0  0  0  0  0  0  0  0  0  0  0  0
    3.1166   -1.4460   -1.9943 C   0  0  0  0  0  0  0  0  0  0  0  0
    3.3211   -0.5662   -2.6137 H   0  0  0  0  0  0  0  0  0  0  0  0
    4.0720   -1.9092   -1.7297 H   0  0  0  0  0  0  0  0  0  0  0  0
    2.5334   -2.1629   -2.5817 H   0  0  0  0  0  0  0  0  0  0  0  0
  1  2  1  0  0  0  0
  2  3  1  0  0  0  0
  2  4  1  0  0  0  0
  2  5  1  0  0  0  0
  5  6  2  0  0  0  0
  5  7  1  0  0  0  0
  7  8  1  0  0  0  0
  7  9  1  0  0  0  0
  9 10  1  0  0  0  0
  9 11  1  0  0  0  0
  9 15  1  0  0  0  0
 11 12  1  0  0  0  0
 11 13  1  0  0  0  0
 11 14  1  0  0  0  0
 15 16  2  0  0  0  0
 15 17  1  0  0  0  0
 17 18  1  0  0  0  0
 17 19  1  0  0  0  0
 19 20  1  0  0  0  0
 19 21  1  0  0  0  0
 19 22  1  0  0  0  0
M  END
$$$$

  -OEChem-11182114133D

 22 21  0     1  0  0  0  0  0999 V2000
   -2.7571   -3.5887    1.1405 H   0  0  0  0  0  0  0  0  0  0  0  0
   -2.6765   -2.5768    0.7332 C   0  0  0  0  0  0  0  0  0  0  0  0
   -3.3490   -1.9199    1.2899 H   0  0  0  0  0  0  0  0  0  0  0  0
   -2.9803   -2.5948   -0.3163 H   0  0  0  0  0  0  0  0  0  0  0  0
   -1.2490   -2.0764    0.8511 C   0  0  0  0  0  0  0  0  0  0  0  0
   -0.3862   -2.8247    1.2802 O   0  0  0  0  0  0  0  0  0  0  0  0
   -0.9423   -0.8064    0.4002 N   0  0  0  0  0  0  0  0  0  0  0  0
   -1.6908   -0.3132   -0.0794 H   0  0  0  0  0  0  0  0  0  0  0  0
    0.3728   -0.1394    0.4484 C   0  0  1  0  0  0  0  0  0  0  0  0
    0.1668    0.9351    0.4161 H   0  0  0  0  0  0  0  0  0  0  0  0
    1.1566   -0.3527    1.7571 C   0  0  0  0  0  0  0  0  0  0  0  0
    1.5526   -1.3686    1.8360 H   0  0  0  0  0  0  0  0  0  0  0  0
    2.0010    0.3418    1.8030 H   0  0  0  0  0  0  0  0  0  0  0  0
    0.5091   -0.1650    2.6189 H   0  0  0  0  0  0  0  0  0  0  0  0
    1.1875   -0.4319   -0.8288 C   0  0  0  0  0  0  0  0  0  0  0  0
    0.8770    0.1227   -1.8756 O   0  0  0  0  0  0  0  0  0  0  0  0
    2.2450   -1.3221   -0.8151 N   0  0  0  0  0  0  0  0  0  0  0  0
    2.3252   -1.9037    0.0158 H   0  0  0  0  0  0  0  0  0  0  0  0
    2.9499   -1.7320   -2.0227 C   0  0  0  0  0  0  0  0  0  0  0  0
    3.3758   -0.8615   -2.5329 H   0  0  0  0  0  0  0  0  0  0  0  0
    3.7664   -2.4152   -1.7700 H   0  0  0  0  0  0  0  0  0  0  0  0
    2.2671   -2.2441   -2.7087 H   0  0  0  0  0  0  0  0  0  0  0  0
  1  2  1  0  0  0  0
  2  3  1  0  0  0  0
  2  4  1  0  0  0  0
  2  5  1  0  0  0  0
  5  6  2  0  0  0  0
  5  7  1  0  0  0  0
  7  8  1  0  0  0  0
  7  9  1  0  0  0  0
  9 10  1  0  0  0  0
  9 11  1  0  0  0  0
  9 15  1  0  0  0  0
 11 12  1  0  0  0  0
 11 13  1  0  0  0  0
 11 14  1  0  0  0  0
 15 16  2  0  0  0  0
 15 17  1  0  0  0  0
 17 18  1  0  0  0  0
 17 19  1  0  0  0  0
 19 20  1  0  0  0  0
 19 21  1  0  0  0  0
 19 22  1  0  0  0  0
M  END
$$$$

  -OEChem-11182114133D

 22 21  0     1  0  0  0  0  0999 V2000
   -2.7566   -3.5648    1.2170 H   0  0  0  0  0  0  0  0  0  0  0  0
   -2.6857   -2.5640    0.7815 C   0  0  0  0  0  0  0  0  0  0  0  0
   -3.3161   -1.8845    1.3601 H   0  0  0  0  0  0  0  0  0  0  0  0
   -3.0498   -2.6012   -0.2481 H   0  0  0  0  0  0  0  0  0  0  0  0
   -1.2465   -2.0846    0.8053 C   0  0  0  0  0  0  0  0  0  0  0  0
   -0.3603   -2.8564    1.1358 O   0  0  0  0  0  0  0  0  0  0  0  0
   -0.9471   -0.8132    0.3548 N   0  0  0  0  0  0  0  0  0  0  0  0
   -1.7246   -0.2734   -0.0154 H   0  0  0  0  0  0  0  0  0  0  0  0
    0.3679   -0.1481    0.4207 C   0  0  1  0  0  0  0  0  0  0  0  0
    0.1647    0.9273    0.3907 H   0  0  0  0  0  0  0  0  0  0  0  0
    1.1439   -0.3709    1.7319 C   0  0  0  0  0  0  0  0  0  0  0  0
    1.5400   -1.3872    1.8049 H   0  0  0  0  0  0  0  0  0  0  0  0
    1.9891    0.3221    1.7854 H   0  0  0  0  0  0  0  0  0  0  0  0
    0.4933   -0.1886    2.5925 H   0  0  0  0  0  0  0  0  0  0  0  0
    1.1949   -0.4444   -0.8456 C   0  0  0  0  0  0  0  0  0  0  0  0
    1.1019    0.2910   -1.8201 O   0  0  0  0  0  0  0  0  0  0  0  0
    2.0278   -1.5461   -0.8877 N   0  0  0  0  0  0  0  0  0  0  0  0
    1.8904   -2.2279   -0.1424 H   0  0  0  0  0  0  0  0  0  0  0  0
    2.7329   -1.9616   -2.0930 C   0  0  0  0  0  0  0  0  0  0  0  0
    3.3724   -1.1528   -2.4619 H   0  0  0  0  0  0  0  0  0  0  0  0
    3.3654   -2.8288   -1.8801 H   0  0  0  0  0  0  0  0  0  0  0  0
    2.0209   -2.2341   -2.8787 H   0  0  0  0  0  0  0  0  0  0  0  0
  1  2  1  0  0  0  0
  2  3  1  0  0  0  0
  2  4  1  0  0  0  0
  2  5  1  0  0  0  0
  5  6  2  0  0  0  0
  5  7  1  0  0  0  0
  7  8  1  0  0  0  0
  7  9  1  0  0  0  0
  9 10  1  0  0  0  0
  9 11  1  0  0  0  0
  9 15  1  0  0  0  0
 11 12  1  0  0  0  0
 11 13  1  0  0  0  0
 11 14  1  0  0  0  0
 15 16  2  0  0  0  0
 15 17  1  0  0  0  0
 17 18  1  0  0  0  0
 17 19  1  0  0  0  0
 19 20  1  0  0  0  0
 19 21  1  0  0  0  0
 19 22  1  0  0  0  0
M  END
$$$$

  -OEChem-11182114133D

 22 21  0     1  0  0  0  0  0999 V2000
   -2.7485   -3.5570    1.2527 H   0  0  0  0  0  0  0  0  0  0  0  0
   -2.6948   -2.5473    0.8355 C   0  0  0  0  0  0  0  0  0  0  0  0
   -3.2651   -1.8719    1.4776 H   0  0  0  0  0  0  0  0  0  0  0  0
   -3.1397   -2.5542   -0.1625 H   0  0  0  0  0  0  0  0  0  0  0  0
   -1.2501   -2.0920    0.7560 C   0  0  0  0  0  0  0  0  0  0  0  0
   -0.3515   -2.8863    0.9864 O   0  0  0  0  0  0  0  0  0  0  0  0
   -0.9578   -0.8196    0.3046 N   0  0  0  0  0  0  0  0  0  0  0  0
   -1.7544   -0.2427    0.0492 H   0  0  0  0  0  0  0  0  0  0  0  0
    0.3571   -0.1550    0.3884 C   0  0  1  0  0  0  0  0  0  0  0  0
    0.1572    0.9211    0.3615 H   0  0  0  0  0  0  0  0  0  0  0  0
    1.1208   -0.3949    1.7027 C   0  0  0  0  0  0  0  0  0  0  0  0
    1.5202   -1.4113    1.7612 H   0  0  0  0  0  0  0  0  0  0  0  0
    1.9633    0.3001    1.7742 H   0  0  0  0  0  0  0  0  0  0  0  0
    0.4620   -0.2286    2.5602 H   0  0  0  0  0  0  0  0  0  0  0  0
    1.2021   -0.4526   -0.8637 C   0  0  0  0  0  0  0  0  0  0  0  0
    1.3532    0.4013   -1.7278 O   0  0  0  0  0  0  0  0  0  0  0  0
    1.7798   -1.6991   -1.0046 N   0  0  0  0  0  0  0  0  0  0  0  0
    1.4575   -2.4088   -0.3438 H   0  0  0  0  0  0  0  0  0  0  0  0
    2.4829   -2.1223   -2.2075 C   0  0  0  0  0  0  0  0  0  0  0  0
    3.3077   -1.4375   -2.4308 H   0  0  0  0  0  0  0  0  0  0  0  0
    2.8974   -3.1254   -2.0682 H   0  0  0  0  0  0  0  0  0  0  0  0
    1.7996   -2.1429   -3.0627 H   0  0  0  0  0  0  0  0  0  0  0  0
  1  2  1  0  0  0  0
  2  3  1  0  0  0  0
  2  4  1  0  0  0  0
  2  5  1  0  0  0  0
  5  6  2  0  0  0  0
  5  7  1  0  0  0  0
  7  8  1  0  0  0  0
  7  9  1  0  0  0  0
  9 10  1  0  0  0  0
  9 11  1  0  0  0  0
  9 15  1  0  0  0  0
 11 12  1  0  0  0  0
 11 13  1  0  0  0  0
 11 14  1  0  0  0  0
 15 16  2  0  0  0  0
 15 17  1  0  0  0  0
 17 18  1  0  0  0  0
 17 19  1  0  0  0  0
 19 20  1  0  0  0  0
 19 21  1  0  0  0  0
 19 22  1  0  0  0  0
M  END
$$$$

  -OEChem-11182114133D

 22 21  0     1  0  0  0  0  0999 V2000
   -2.7855   -3.5338    1.3149 H   0  0  0  0  0  0  0  0  0  0  0  0
   -2.7309   -2.5236    0.8996 C   0  0  0  0  0  0  0  0  0  0  0  0
   -3.2551   -1.8399    1.5717 H   0  0  0  0  0  0  0  0  0  0  0  0
   -3.2239   -2.5163   -0.0756 H   0  0  0  0  0  0  0  0  0  0  0  0
   -1.2825   -2.0981    0.7512 C   0  0  0  0  0  0  0  0  0  0  0  0
   -0.3905   -2.9141    0.9223 O   0  0  0  0  0  0  0  0  0  0  0  0
   -0.9855   -0.8296    0.2917 N   0  0  0  0  0  0  0  0  0  0  0  0
   -1.7860   -0.2350    0.0962 H   0  0  0  0  0  0  0  0  0  0  0  0
    0.3346   -0.1691    0.3593 C   0  0  1  0  0  0  0  0  0  0  0  0
    0.1397    0.9082    0.3394 H   0  0  0  0  0  0  0  0  0  0  0  0
    1.1120   -0.4286    1.6603 C   0  0  0  0  0  0  0  0  0  0  0  0
    1.5070   -1.4478    1.6966 H   0  0  0  0  0  0  0  0  0  0  0  0
    1.9591    0.2607    1.7307 H   0  0  0  0  0  0  0  0  0  0  0  0
    0.4654   -0.2714    2.5287 H   0  0  0  0  0  0  0  0  0  0  0  0
    1.1799   -0.4662   -0.8927 C   0  0  0  0  0  0  0  0  0  0  0  0
    1.5630    0.4441   -1.6156 O   0  0  0  0  0  0  0  0  0  0  0  0
    1.4972   -1.7761   -1.1925 N   0  0  0  0  0  0  0  0  0  0  0  0
    1.0895   -2.4886   -0.5821 H   0  0  0  0  0  0  0  0  0  0  0  0
    2.2447   -2.1816   -2.3737 C   0  0  0  0  0  0  0  0  0  0  0  0
    3.2155   -1.6760   -2.4054 H   0  0  0  0  0  0  0  0  0  0  0  0
    2.4190   -3.2616   -2.3557 H   0  0  0  0  0  0  0  0  0  0  0  0
    1.6872   -1.9339   -3.2827 H   0  0  0  0  0  0  0  0  0  0  0  0
  1  2  1  0  0  0  0
  2  3  1  0  0  0  0
  2  4  1  0  0  0  0
  2  5  1  0  0  0  0
  5  6  2  0  0  0  0
  5  7  1  0  0  0  0
  7  8  1  0  0  0  0
  7  9  1  0  0  0  0
  9 10  1  0  0  0  0
  9 11  1  0  0  0  0
  9 15  1  0  0  0  0
 11 12  1  0  0  0  0
 11 13  1  0  0  0  0
 11 14  1  0  0  0  0
 15 16  2  0  0  0  0
 15 17  1  0  0  0  0
 17 18  1  0  0  0  0
 17 19  1  0  0  0  0
 19 20  1  0  0  0  0
 19 21  1  0  0  0  0
 19 22  1  0  0  0  0
M  END
$$$$

  -OEChem-11182114133D

 22 21  0     1  0  0  0  0  0999 V2000
   -2.8124   -3.5354    1.3548 H   0  0  0  0  0  0  0  0  0  0  0  0
   -2.7633   -2.5071    0.9853 C   0  0  0  0  0  0  0  0  0  0  0  0
   -3.2235   -1.8468    1.7243 H   0  0  0  0  0  0  0  0  0  0  0  0
   -3.3230   -2.4421    0.0489 H   0  0  0  0  0  0  0  0  0  0  0  0
   -1.3193   -2.1027    0.7563 C   0  0  0  0  0  0  0  0  0  0  0  0
   -0.4321   -2.9345    0.8593 O   0  0  0  0  0  0  0  0  0  0  0  0
   -1.0291   -0.8360    0.2887 N   0  0  0  0  0  0  0  0  0  0  0  0
   -1.8333   -0.2294    0.1554 H   0  0  0  0  0  0  0  0  0  0  0  0
    0.2956   -0.1787    0.3214 C   0  0  1  0  0  0  0  0  0  0  0  0
    0.1036    0.8991    0.3130 H   0  0  0  0  0  0  0  0  0  0  0  0
    1.1027   -0.4551    1.5997 C   0  0  0  0  0  0  0  0  0  0  0  0
    1.4912   -1.4776    1.6131 H   0  0  0  0  0  0  0  0  0  0  0  0
    1.9560    0.2283    1.6548 H   0  0  0  0  0  0  0  0  0  0  0  0
    0.4802   -0.3033    2.4864 H   0  0  0  0  0  0  0  0  0  0  0  0
    1.1252   -0.4669   -0.9447 C   0  0  0  0  0  0  0  0  0  0  0  0
    1.7297    0.4368   -1.5067 O   0  0  0  0  0  0  0  0  0  0  0  0
    1.1882   -1.7559   -1.4361 N   0  0  0  0  0  0  0  0  0  0  0  0
    0.7500   -2.4750   -0.8558 H   0  0  0  0  0  0  0  0  0  0  0  0
    2.0294   -2.1535   -2.5559 C   0  0  0  0  0  0  0  0  0  0  0  0
    3.0851   -1.9833   -2.3206 H   0  0  0  0  0  0  0  0  0  0  0  0
    1.8888   -3.2165   -2.7737 H   0  0  0  0  0  0  0  0  0  0  0  0
    1.7703   -1.5803   -3.4522 H   0  0  0  0  0  0  0  0  0  0  0  0
  1  2  1  0  0  0  0
  2  3  1  0  0  0  0
  2  4  1  0  0  0  0
  2  5  1  0  0  0  0
  5  6  2  0  0  0  0
  5  7  1  0  0  0  0
  7  8  1  0  0  0  0
  7  9  1  0  0  0  0
  9 10  1  0  0  0  0
  9 11  1  0  0  0  0
  9 15  1  0  0  0  0
 11 12  1  0  0  0  0
 11 13  1  0  0  0  0
 11 14  1  0  0  0  0
 15 16  2  0  0  0  0
 15 17  1  0  0  0  0
 17 18  1  0  0  0  0
 17 19  1  0  0  0  0
 19 20  1  0  0  0  0
 19 21  1  0  0  0  0
 19 22  1  0  0  0  0
M  END
$$$$

  -OEChem-11182114133D

 22 21  0     1  0  0  0  0  0999 V2000
   -2.8123   -3.5257    1.4099 H   0  0  0  0  0  0  0  0  0  0  0  0
   -2.7717   -2.4970    1.0404 C   0  0  0  0  0  0  0  0  0  0  0  0
   -3.1917   -1.8349    1.8014 H   0  0  0  0  0  0  0  0  0  0  0  0
   -3.3737   -2.4255    0.1313 H   0  0  0  0  0  0  0  0  0  0  0  0
   -1.3362   -2.1047    0.7459 C   0  0  0  0  0  0  0  0  0  0  0  0
   -0.4560   -2.9483    0.7817 O   0  0  0  0  0  0  0  0  0  0  0  0
   -1.0514   -0.8368    0.2792 N   0  0  0  0  0  0  0  0  0  0  0  0
   -1.8549   -0.2203    0.1988 H   0  0  0  0  0  0  0  0  0  0  0  0
    0.2760   -0.1814    0.3044 C   0  0  1  0  0  0  0  0  0  0  0  0
    0.0868    0.8969    0.3025 H   0  0  0  0  0  0  0  0  0  0  0  0
    1.0829   -0.4715    1.5797 C   0  0  0  0  0  0  0  0  0  0  0  0
    1.4668   -1.4959    1.5823 H   0  0  0  0  0  0  0  0  0  0  0  0
    1.9391    0.2079    1.6406 H   0  0  0  0  0  0  0  0  0  0  0  0
    0.4622   -0.3256    2.4686 H   0  0  0  0  0  0  0  0  0  0  0  0
    1.1102   -0.4576   -0.9632 C   0  0  0  0  0  0  0  0  0  0  0  0
    1.9004    0.3828   -1.3725 O   0  0  0  0  0  0  0  0  0  0  0  0
    0.9464   -1.6459   -1.6483 N   0  0  0  0  0  0  0  0  0  0  0  0
    0.4278   -2.3658   -1.1421 H   0  0  0  0  0  0  0  0  0  0  0  0
    1.7916   -2.0437   -2.7655 C   0  0  0  0  0  0  0  0  0  0  0  0
    2.8299   -2.1593   -2.4373 H   0  0  0  0  0  0  0  0  0  0  0  0
    1.4475   -2.9977   -3.1761 H   0  0  0  0  0  0  0  0  0  0  0  0
    1.7545   -1.2928   -3.5617 H   0  0  0  0  0  0  0  0  0  0  0  0
  1  2  1  0  0  0  0
  2  3  1  0  0  0  0
  2  4  1  0  0  0  0
  2  5  1  0  0  0  0
  5  6  2  0  0  0  0
  5  7  1  0  0  0  0
  7  8  1  0  0  0  0
  7  9  1  0  0  0  0
  9 10  1  0  0  0  0
  9 11  1  0  0  0  0
  9 15  1  0  0  0  0
 11 12  1  0  0  0  0
 11 13  1  0  0  0  0
 11 14  1  0  0  0  0
 15 16  2  0  0  0  0
 15 17  1  0  0  0  0
 17 18  1  0  0  0  0
 17 19  1  0  0  0  0
 19 20  1  0  0  0  0
 19 21  1  0  0  0  0
 19 22  1  0  0  0  0
M  END
$$$$

  -OEChem-11182114133D

 22 21  0     1  0  0  0  0  0999 V2000
   -2.8154   -3.5234    1.4319 H   0  0  0  0  0  0  0  0  0  0  0  0
   -2.7743   -2.4950    1.0614 C   0  0  0  0  0  0  0  0  0  0  0  0
   -3.1869   -1.8313    1.8250 H   0  0  0  0  0  0  0  0  0  0  0  0
   -3.3825   -2.4221    0.1565 H   0  0  0  0  0  0  0  0  0  0  0  0
   -1.3399   -2.1071    0.7563 C   0  0  0  0  0  0  0  0  0  0  0  0
   -0.4638   -2.9536    0.7857 O   0  0  0  0  0  0  0  0  0  0  0  0
   -1.0568   -0.8397    0.2874 N   0  0  0  0  0  0  0  0  0  0  0  0
   -1.8599   -0.2204    0.2256 H   0  0  0  0  0  0  0  0  0  0  0  0
    0.2715   -0.1848    0.3035 C   0  0  1  0  0  0  0  0  0  0  0  0
    0.0817    0.8931    0.3008 H   0  0  0  0  0  0  0  0  0  0  0  0
    1.0767   -0.4755    1.5803 C   0  0  0  0  0  0  0  0  0  0  0  0
    1.4639   -1.4987    1.5795 H   0  0  0  0  0  0  0  0  0  0  0  0
    1.9309    0.2057    1.6461 H   0  0  0  0  0  0  0  0  0  0  0  0
    0.4533   -0.3350    2.4681 H   0  0  0  0  0  0  0  0  0  0  0  0
    1.1081   -0.4540   -0.9657 C   0  0  0  0  0  0  0  0  0  0  0  0
    2.0506    0.2772   -1.2408 O   0  0  0  0  0  0  0  0  0  0  0  0
    0.7537   -1.4717   -1.8306 N   0  0  0  0  0  0  0  0  0  0  0  0
    0.1209   -2.1645   -1.4331 H   0  0  0  0  0  0  0  0  0  0  0  0
    1.5657   -1.8495   -2.9796 C   0  0  0  0  0  0  0  0  0  0  0  0
    2.5489   -2.2038   -2.6529 H   0  0  0  0  0  0  0  0  0  0  0  0
    1.0752   -2.6505   -3.5409 H   0  0  0  0  0  0  0  0  0  0  0  0
    1.7037   -0.9948   -3.6502 H   0  0  0  0  0  0  0  0  0  0  0  0
  1  2  1  0  0  0  0
  2  3  1  0  0  0  0
  2  4  1  0  0  0  0
  2  5  1  0  0  0  0
  5  6  2  0  0  0  0
  5  7  1  0  0  0  0
  7  8  1  0  0  0  0
  7  9  1  0  0  0  0
  9 10  1  0  0  0  0
  9 11  1  0  0  0  0
  9 15  1  0  0  0  0
 11 12  1  0  0  0  0
 11 13  1  0  0  0  0
 11 14  1  0  0  0  0
 15 16  2  0  0  0  0
 15 17  1  0  0  0  0
 17 18  1  0  0  0  0
 17 19  1  0  0  0  0
 19 20  1  0  0  0  0
 19 21  1  0  0  0  0
 19 22  1  0  0  0  0
M  END
$$$$

  -OEChem-11182114133D

 22 21  0     1  0  0  0  0  0999 V2000
   -2.8101   -3.5425    1.4083 H   0  0  0  0  0  0  0  0  0  0  0  0
   -2.7679   -2.5056    1.0624 C   0  0  0  0  0  0  0  0  0  0  0  0
   -3.1784   -1.8596    1.8423 H   0  0  0  0  0  0  0  0  0  0  0  0
   -3.3768   -2.4102    0.1601 H   0  0  0  0  0  0  0  0  0  0  0  0
   -1.3328   -2.1133    0.7649 C   0  0  0  0  0  0  0  0  0  0  0  0
   -0.4541   -2.9546    0.8215 O   0  0  0  0  0  0  0  0  0  0  0  0
   -1.0550   -0.8424    0.2992 N   0  0  0  0  0  0  0  0  0  0  0  0
   -1.8600   -0.2243    0.2494 H   0  0  0  0  0  0  0  0  0  0  0  0
    0.2733   -0.1856    0.3081 C   0  0  1  0  0  0  0  0  0  0  0  0
    0.0799    0.8914    0.3091 H   0  0  0  0  0  0  0  0  0  0  0  0
    1.0809   -0.4748    1.5849 C   0  0  0  0  0  0  0  0  0  0  0  0
    1.4842   -1.4918    1.5750 H   0  0  0  0  0  0  0  0  0  0  0  0
    1.9243    0.2189    1.6593 H   0  0  0  0  0  0  0  0  0  0  0  0
    0.4542   -0.3524    2.4730 H   0  0  0  0  0  0  0  0  0  0  0  0
    1.1066   -0.4431   -0.9678 C   0  0  0  0  0  0  0  0  0  0  0  0
    2.1790    0.1266   -1.1233 O   0  0  0  0  0  0  0  0  0  0  0  0
    0.6016   -1.2274   -1.9876 N   0  0  0  0  0  0  0  0  0  0  0  0
   -0.1801   -1.8210   -1.7229 H   0  0  0  0  0  0  0  0  0  0  0  0
    1.3823   -1.5894   -3.1637 C   0  0  0  0  0  0  0  0  0  0  0  0
    2.2550   -2.1843   -2.8749 H   0  0  0  0  0  0  0  0  0  0  0  0
    0.7724   -2.1788   -3.8549 H   0  0  0  0  0  0  0  0  0  0  0  0
    1.7257   -0.6918   -3.6889 H   0  0  0  0  0  0  0  0  0  0  0  0
  1  2  1  0  0  0  0
  2  3  1  0  0  0  0
  2  4  1  0  0  0  0
  2  5  1  0  0  0  0
  5  6  2  0  0  0  0
  5  7  1  0  0  0  0
  7  8  1  0  0  0  0
  7  9  1  0  0  0  0
  9 10  1  0  0  0  0
  9 11  1  0  0  0  0
  9 15  1  0  0  0  0
 11 12  1  0  0  0  0
 11 13  1  0  0  0  0
 11 14  1  0  0  0  0
 15 16  2  0  0  0  0
 15 17  1  0  0  0  0
 17 18  1  0  0  0  0
 17 19  1  0  0  0  0
 19 20  1  0  0  0  0
 19 21  1  0  0  0  0
 19 22  1  0  0  0  0
M  END
$$$$

  -OEChem-11182114133D

 22 21  0     1  0  0  0  0  0999 V2000
   -2.7997   -3.5522    1.3904 H   0  0  0  0  0  0  0  0  0  0  0  0
   -2.7563   -2.5187    1.0349 C   0  0  0  0  0  0  0  0  0  0  0  0
   -3.1897   -1.8679    1.7980 H   0  0  0  0  0  0  0  0  0  0  0  0
   -3.3445   -2.4377    0.1177 H   0  0  0  0  0  0  0  0  0  0  0  0
   -1.3173   -2.1192    0.7672 C   0  0  0  0  0  0  0  0  0  0  0  0
   -0.4361   -2.9538    0.8637 O   0  0  0  0  0  0  0  0  0  0  0  0
   -1.0403   -0.8451    0.3072 N   0  0  0  0  0  0  0  0  0  0  0  0
   -1.8464   -0.2284    0.2603 H   0  0  0  0  0  0  0  0  0  0  0  0
    0.2877   -0.1875    0.3189 C   0  0  1  0  0  0  0  0  0  0  0  0
    0.0929    0.8892    0.3187 H   0  0  0  0  0  0  0  0  0  0  0  0
    1.0894   -0.4707    1.6020 C   0  0  0  0  0  0  0  0  0  0  0  0
    1.5005   -1.4847    1.5942 H   0  0  0  0  0  0  0  0  0  0  0  0
    1.9272    0.2292    1.6836 H   0  0  0  0  0  0  0  0  0  0  0  0
    0.4556   -0.3534    2.4858 H   0  0  0  0  0  0  0  0  0  0  0  0
    1.1170   -0.4416   -0.9618 C   0  0  0  0  0  0  0  0  0  0  0  0
    2.2823   -0.0719   -1.0298 O   0  0  0  0  0  0  0  0  0  0  0  0
    0.5070   -0.9487   -2.0943 N   0  0  0  0  0  0  0  0  0  0  0  0
   -0.3965   -1.3861   -1.9409 H   0  0  0  0  0  0  0  0  0  0  0  0
    1.2440   -1.2762   -3.3086 C   0  0  0  0  0  0  0  0  0  0  0  0
    1.9840   -2.0581   -3.1078 H   0  0  0  0  0  0  0  0  0  0  0  0
    0.5583   -1.6359   -4.0815 H   0  0  0  0  0  0  0  0  0  0  0  0
    1.7623   -0.3918   -3.6940 H   0  0  0  0  0  0  0  0  0  0  0  0
  1  2  1  0  0  0  0
  2  3  1  0  0  0  0
  2  4  1  0  0  0  0
  2  5  1  0  0  0  0
  5  6  2  0  0  0  0
  5  7  1  0  0  0  0
  7  8  1  0  0  0  0
  7  9  1  0  0  0  0
  9 10  1  0  0  0  0
  9 11  1  0  0  0  0
  9 15  1  0  0  0  0
 11 12  1  0  0  0  0
 11 13  1  0  0  0  0
 11 14  1  0  0  0  0
 15 16  2  0  0  0  0
 15 17  1  0  0  0  0
 17 18  1  0  0  0  0
 17 19  1  0  0  0  0
 19 20  1  0  0  0  0
 19 21  1  0  0  0  0
 19 22  1  0  0  0  0
M  END
$$$$

  -OEChem-11182114133D

 22 21  0     1  0  0  0  0  0999 V2000
   -2.7924   -3.5541    1.3911 H   0  0  0  0  0  0  0  0  0  0  0  0
   -2.7474   -2.5271    1.0168 C   0  0  0  0  0  0  0  0  0  0  0  0
   -3.1931   -1.8636    1.7616 H   0  0  0  0  0  0  0  0  0  0  0  0
   -3.3231   -2.4651    0.0903 H   0  0  0  0  0  0  0  0  0  0  0  0
   -1.3060   -2.1273    0.7619 C   0  0  0  0  0  0  0  0  0  0  0  0
   -0.4247   -2.9578    0.8864 O   0  0  0  0  0  0  0  0  0  0  0  0
   -1.0279   -0.8521    0.3043 N   0  0  0  0  0  0  0  0  0  0  0  0
   -1.8346   -0.2365    0.2598 H   0  0  0  0  0  0  0  0  0  0  0  0
    0.2998   -0.1949    0.3229 C   0  0  1  0  0  0  0  0  0  0  0  0
    0.1056    0.8816    0.3181 H   0  0  0  0  0  0  0  0  0  0  0  0
    1.0907   -0.4687    1.6153 C   0  0  0  0  0  0  0  0  0  0  0  0
    1.5032   -1.4822    1.6186 H   0  0  0  0  0  0  0  0  0  0  0  0
    1.9270    0.2325    1.6989 H   0  0  0  0  0  0  0  0  0  0  0  0
    0.4492   -0.3457    2.4927 H   0  0  0  0  0  0  0  0  0  0  0  0
    1.1286   -0.4524   -0.9583 C   0  0  0  0  0  0  0  0  0  0  0  0
    2.3446   -0.3089   -0.9612 O   0  0  0  0  0  0  0  0  0  0  0  0
    0.4812   -0.6566   -2.1634 N   0  0  0  0  0  0  0  0  0  0  0  0
   -0.5004   -0.9064   -2.0997 H   0  0  0  0  0  0  0  0  0  0  0  0
    1.1917   -0.9228   -3.4083 C   0  0  0  0  0  0  0  0  0  0  0  0
    1.7715   -1.8483   -3.3277 H   0  0  0  0  0  0  0  0  0  0  0  0
    0.4816   -1.0279   -4.2341 H   0  0  0  0  0  0  0  0  0  0  0  0
    1.8738   -0.0993   -3.6452 H   0  0  0  0  0  0  0  0  0  0  0  0
  1  2  1  0  0  0  0
  2  3  1  0  0  0  0
  2  4  1  0  0  0  0
  2  5  1  0  0  0  0
  5  6  2  0  0  0  0
  5  7  1  0  0  0  0
  7  8  1  0  0  0  0
  7  9  1  0  0  0  0
  9 10  1  0  0  0  0
  9 11  1  0  0  0  0
  9 15  1  0  0  0  0
 11 12  1  0  0  0  0
 11 13  1  0  0  0  0
 11 14  1  0  0  0  0
 15 16  2  0  0  0  0
 15 17  1  0  0  0  0
 17 18  1  0  0  0  0
 17 19  1  0  0  0  0
 19 20  1  0  0  0  0
 19 21  1  0  0  0  0
 19 22  1  0  0  0  0
M  END
$$$$

  -OEChem-11182114133D

 22 21  0     1  0  0  0  0  0999 V2000
   -2.7924   -3.5497    1.3943 H   0  0  0  0  0  0  0  0  0  0  0  0
   -2.7419   -2.5355    0.9876 C   0  0  0  0  0  0  0  0  0  0  0  0
   -3.2165   -1.8515    1.6953 H   0  0  0  0  0  0  0  0  0  0  0  0
   -3.2869   -2.5087    0.0411 H   0  0  0  0  0  0  0  0  0  0  0  0
   -1.2956   -2.1339    0.7651 C   0  0  0  0  0  0  0  0  0  0  0  0
   -0.4167   -2.9594    0.9304 O   0  0  0  0  0  0  0  0  0  0  0  0
   -1.0136   -0.8587    0.3084 N   0  0  0  0  0  0  0  0  0  0  0  0
   -1.8225   -0.2488    0.2413 H   0  0  0  0  0  0  0  0  0  0  0  0
    0.3121   -0.1989    0.3278 C   0  0  1  0  0  0  0  0  0  0  0  0
    0.1169    0.8775    0.3220 H   0  0  0  0  0  0  0  0  0  0  0  0
    1.1001   -0.4674    1.6238 C   0  0  0  0  0  0  0  0  0  0  0  0
    1.5116   -1.4813    1.6330 H   0  0  0  0  0  0  0  0  0  0  0  0
    1.9372    0.2331    1.7057 H   0  0  0  0  0  0  0  0  0  0  0  0
    0.4570   -0.3406    2.4995 H   0  0  0  0  0  0  0  0  0  0  0  0
    1.1363   -0.4602   -0.9565 C   0  0  0  0  0  0  0  0  0  0  0  0
    2.3562   -0.5615   -0.9249 O   0  0  0  0  0  0  0  0  0  0  0  0
    0.5161   -0.3563   -2.1890 N   0  0  0  0  0  0  0  0  0  0  0  0
   -0.4980   -0.3779   -2.1844 H   0  0  0  0  0  0  0  0  0  0  0  0
    1.2164   -0.5662   -3.4505 C   0  0  0  0  0  0  0  0  0  0  0  0
    1.6161   -1.5845   -3.5016 H   0  0  0  0  0  0  0  0  0  0  0  0
    0.5323   -0.4183   -4.2916 H   0  0  0  0  0  0  0  0  0  0  0  0
    2.0447    0.1431   -3.5527 H   0  0  0  0  0  0  0  0  0  0  0  0
  1  2  1  0  0  0  0
  2  3  1  0  0  0  0
  2  4  1  0  0  0  0
  2  5  1  0  0  0  0
  5  6  2  0  0  0  0
  5  7  1  0  0  0  0
  7  8  1  0  0  0  0
  7  9  1  0  0  0  0
  9 10  1  0  0  0  0
  9 11  1  0  0  0  0
  9 15  1  0  0  0  0
 11 12  1  0  0  0  0
 11 13  1  0  0  0  0
 11 14  1  0  0  0  0
 15 16  2  0  0  0  0
 15 17  1  0  0  0  0
 17 18  1  0  0  0  0
 17 19  1  0  0  0  0
 19 20  1  0  0  0  0
 19 21  1  0  0  0  0
 19 22  1  0  0  0  0
M  END
$$$$

  -OEChem-11182114133D

 22 21  0     1  0  0  0  0  0999 V2000
   -2.8023   -3.5463    1.3780 H   0  0  0  0  0  0  0  0  0  0  0  0
   -2.7399   -2.5487    0.9335 C   0  0  0  0  0  0  0  0  0  0  0  0
   -3.2685   -1.8443    1.5802 H   0  0  0  0  0  0  0  0  0  0  0  0
   -3.2230   -2.5696   -0.0463 H   0  0  0  0  0  0  0  0  0  0  0  0
   -1.2878   -2.1334    0.7866 C   0  0  0  0  0  0  0  0  0  0  0  0
   -0.4143   -2.9480    1.0196 O   0  0  0  0  0  0  0  0  0  0  0  0
   -0.9977   -0.8588    0.3319 N   0  0  0  0  0  0  0  0  0  0  0  0
   -1.8085   -0.2609    0.2080 H   0  0  0  0  0  0  0  0  0  0  0  0
    0.3266   -0.1971    0.3422 C   0  0  1  0  0  0  0  0  0  0  0  0
    0.1311    0.8791    0.3409 H   0  0  0  0  0  0  0  0  0  0  0  0
    1.1274   -0.4613    1.6312 C   0  0  0  0  0  0  0  0  0  0  0  0
    1.5306   -1.4785    1.6469 H   0  0  0  0  0  0  0  0  0  0  0  0
    1.9713    0.2324    1.6955 H   0  0  0  0  0  0  0  0  0  0  0  0
    0.4952   -0.3204    2.5126 H   0  0  0  0  0  0  0  0  0  0  0  0
    1.1356   -0.4611   -0.9521 C   0  0  0  0  0  0  0  0  0  0  0  0
    2.3009   -0.8348   -0.9238 O   0  0  0  0  0  0  0  0  0  0  0  0
    0.6070   -0.0612   -2.1673 N   0  0  0  0  0  0  0  0  0  0  0  0
   -0.3762    0.1868   -2.1813 H   0  0  0  0  0  0  0  0  0  0  0  0
    1.3056   -0.2376   -3.4353 C   0  0  0  0  0  0  0  0  0  0  0  0
    1.4986   -1.2994   -3.6217 H   0  0  0  0  0  0  0  0  0  0  0  0
    0.7008    0.1550   -4.2582 H   0  0  0  0  0  0  0  0  0  0  0  0
    2.2614    0.2973   -3.4254 H   0  0  0  0  0  0  0  0  0  0  0  0
  1  2  1  0  0  0  0
  2  3  1  0  0  0  0
  2  4  1  0  0  0  0
  2  5  1  0  0  0  0
  5  6  2  0  0  0  0
  5  7  1  0  0  0  0
  7  8  1  0  0  0  0
  7  9  1  0  0  0  0
  9 10  1  0  0  0  0
  9 11  1  0  0  0  0
  9 15  1  0  0  0  0
 11 12  1  0  0  0  0
 11 13  1  0  0  0  0
 11 14  1  0  0  0  0
 15 16  2  0  0  0  0
 15 17  1  0  0  0  0
 17 18  1  0  0  0  0
 17 19  1  0  0  0  0
 19 20  1  0  0  0  0
 19 21  1  0  0  0  0
 19 22  1  0  0  0  0
M  END
$$$$

  -OEChem-11182114133D

 22 21  0     1  0  0  0  0  0999 V2000
   -2.8255   -3.5657    1.2847 H   0  0  0  0  0  0  0  0  0  0  0  0
   -2.7410   -2.5599    0.8631 C   0  0  0  0  0  0  0  0  0  0  0  0
   -3.3313   -1.8731    1.4743 H   0  0  0  0  0  0  0  0  0  0  0  0
   -3.1409   -2.5713   -0.1537 H   0  0  0  0  0  0  0  0  0  0  0  0
   -1.2881   -2.1222    0.8437 C   0  0  0  0  0  0  0  0  0  0  0  0
   -0.4332   -2.9092    1.2042 O   0  0  0  0  0  0  0  0  0  0  0  0
   -0.9839   -0.8532    0.3814 N   0  0  0  0  0  0  0  0  0  0  0  0
   -1.7872   -0.2932    0.1159 H   0  0  0  0  0  0  0  0  0  0  0  0
    0.3396   -0.1903    0.3650 C   0  0  1  0  0  0  0  0  0  0  0  0
    0.1430    0.8855    0.3705 H   0  0  0  0  0  0  0  0  0  0  0  0
    1.1739   -0.4496    1.6330 C   0  0  0  0  0  0  0  0  0  0  0  0
    1.5731   -1.4684    1.6451 H   0  0  0  0  0  0  0  0  0  0  0  0
    2.0221    0.2405    1.6704 H   0  0  0  0  0  0  0  0  0  0  0  0
    0.5654   -0.3011    2.5297 H   0  0  0  0  0  0  0  0  0  0  0  0
    1.1229   -0.4636   -0.9435 C   0  0  0  0  0  0  0  0  0  0  0  0
    2.1581   -1.1156   -0.9618 O   0  0  0  0  0  0  0  0  0  0  0  0
    0.7439    0.1889   -2.1045 N   0  0  0  0  0  0  0  0  0  0  0  0
   -0.1161    0.7256   -2.0829 H   0  0  0  0  0  0  0  0  0  0  0  0
    1.4539    0.0442   -3.3703 C   0  0  0  0  0  0  0  0  0  0  0  0
    1.4481   -1.0016   -3.6952 H   0  0  0  0  0  0  0  0  0  0  0  0
    0.9753    0.6500   -4.1456 H   0  0  0  0  0  0  0  0  0  0  0  0
    2.4928    0.3748   -3.2667 H   0  0  0  0  0  0  0  0  0  0  0  0
  1  2  1  0  0  0  0
  2  3  1  0  0  0  0
  2  4  1  0  0  0  0
  2  5  1  0  0  0  0
  5  6  2  0  0  0  0
  5  7  1  0  0  0  0
  7  8  1  0  0  0  0
  7  9  1  0  0  0  0
  9 10  1  0  0  0  0
  9 11  1  0  0  0  0
  9 15  1  0  0  0  0
 11 12  1  0  0  0  0
 11 13  1  0  0  0  0
 11 14  1  0  0  0  0
 15 16  2  0  0  0  0
 15 17  1  0  0  0  0
 17 18  1  0  0  0  0
 17 19  1  0  0  0  0
 19 20  1  0  0  0  0
 19 21  1  0  0  0  0
 19 22  1  0  0  0  0
M  END
$$$$

  -OEChem-11182114133D

 22 21  0     1  0  0  0  0  0999 V2000
   -2.8250   -3.5801    1.1896 H   0  0  0  0  0  0  0  0  0  0  0  0
   -2.7272   -2.5718    0.7770 C   0  0  0  0  0  0  0  0  0  0  0  0
   -3.3988   -1.9037    1.3213 H   0  0  0  0  0  0  0  0  0  0  0  0
   -3.0179   -2.5951   -0.2760 H   0  0  0  0  0  0  0  0  0  0  0  0
   -1.2943   -2.0894    0.9096 C   0  0  0  0  0  0  0  0  0  0  0  0
   -0.4761   -2.8276    1.4259 O   0  0  0  0  0  0  0  0  0  0  0  0
   -0.9792   -0.8240    0.4423 N   0  0  0  0  0  0  0  0  0  0  0  0
   -1.7494   -0.3321    0.0012 H   0  0  0  0  0  0  0  0  0  0  0  0
    0.3498   -0.1729    0.3998 C   0  0  1  0  0  0  0  0  0  0  0  0
    0.1604    0.9038    0.4196 H   0  0  0  0  0  0  0  0  0  0  0  0
    1.2271   -0.4441    1.6345 C   0  0  0  0  0  0  0  0  0  0  0  0
    1.6233   -1.4643    1.6249 H   0  0  0  0  0  0  0  0  0  0  0  0
    2.0780    0.2435    1.6484 H   0  0  0  0  0  0  0  0  0  0  0  0
    0.6497   -0.3018    2.5526 H   0  0  0  0  0  0  0  0  0  0  0  0
    1.1002   -0.4545   -0.9249 C   0  0  0  0  0  0  0  0  0  0  0  0
    1.8890   -1.3811   -1.0458 O   0  0  0  0  0  0  0  0  0  0  0  0
    0.9302    0.4061   -1.9963 N   0  0  0  0  0  0  0  0  0  0  0  0
    0.3093    1.1988   -1.8727 H   0  0  0  0  0  0  0  0  0  0  0  0
    1.6409    0.2572   -3.2612 C   0  0  0  0  0  0  0  0  0  0  0  0
    1.4392   -0.7252   -3.7014 H   0  0  0  0  0  0  0  0  0  0  0  0
    1.3181    1.0252   -3.9705 H   0  0  0  0  0  0  0  0  0  0  0  0
    2.7203    0.3591   -3.1077 H   0  0  0  0  0  0  0  0  0  0  0  0
  1  2  1  0  0  0  0
  2  3  1  0  0  0  0
  2  4  1  0  0  0  0
  2  5  1  0  0  0  0
  5  6  2  0  0  0  0
  5  7  1  0  0  0  0
  7  8  1  0  0  0  0
  7  9  1  0  0  0  0
  9 10  1  0  0  0  0
  9 11  1  0  0  0  0
  9 15  1  0  0  0  0
 11 12  1  0  0  0  0
 11 13  1  0  0  0  0
 11 14  1  0  0  0  0
 15 16  2  0  0  0  0
 15 17  1  0  0  0  0
 17 18  1  0  0  0  0
 17 19  1  0  0  0  0
 19 20  1  0  0  0  0
 19 21  1  0  0  0  0
 19 22  1  0  0  0  0
M  END
$$$$

  -OEChem-11182114133D

 22 21  0     1  0  0  0  0  0999 V2000
   -2.7833   -3.5976    1.0874 H   0  0  0  0  0  0  0  0  0  0  0  0
   -2.6838   -2.5867    0.6816 C   0  0  0  0  0  0  0  0  0  0  0  0
   -3.4392   -1.9464    1.1432 H   0  0  0  0  0  0  0  0  0  0  0  0
   -2.8542   -2.6249   -0.3970 H   0  0  0  0  0  0  0  0  0  0  0  0
   -1.2962   -2.0423    0.9671 C   0  0  0  0  0  0  0  0  0  0  0  0
   -0.5287   -2.7221    1.6244 O   0  0  0  0  0  0  0  0  0  0  0  0
   -0.9797   -0.7768    0.4994 N   0  0  0  0  0  0  0  0  0  0  0  0
   -1.7030   -0.3577   -0.0759 H   0  0  0  0  0  0  0  0  0  0  0  0
    0.3566   -0.1421    0.4462 C   0  0  1  0  0  0  0  0  0  0  0  0
    0.1762    0.9358    0.4809 H   0  0  0  0  0  0  0  0  0  0  0  0
    1.2650   -0.4378    1.6503 C   0  0  0  0  0  0  0  0  0  0  0  0
    1.6575   -1.4588    1.6060 H   0  0  0  0  0  0  0  0  0  0  0  0
    2.1168    0.2486    1.6572 H   0  0  0  0  0  0  0  0  0  0  0  0
    0.7119   -0.3152    2.5863 H   0  0  0  0  0  0  0  0  0  0  0  0
    1.0867   -0.4278   -0.8875 C   0  0  0  0  0  0  0  0  0  0  0  0
    1.5332   -1.5343   -1.1543 O   0  0  0  0  0  0  0  0  0  0  0  0
    1.1824    0.5692   -1.8435 N   0  0  0  0  0  0  0  0  0  0  0  0
    0.8384    1.4927   -1.6009 H   0  0  0  0  0  0  0  0  0  0  0  0
    1.8518    0.3817   -3.1258 C   0  0  0  0  0  0  0  0  0  0  0  0
    1.3885   -0.4389   -3.6842 H   0  0  0  0  0  0  0  0  0  0  0  0
    1.7789    1.2922   -3.7283 H   0  0  0  0  0  0  0  0  0  0  0  0
    2.9113    0.1501   -2.9737 H   0  0  0  0  0  0  0  0  0  0  0  0
  1  2  1  0  0  0  0
  2  3  1  0  0  0  0
  2  4  1  0  0  0  0
  2  5  1  0  0  0  0
  5  6  2  0  0  0  0
  5  7  1  0  0  0  0
  7  8  1  0  0  0  0
  7  9  1  0  0  0  0
  9 10  1  0  0  0  0
  9 11  1  0  0  0  0
  9 15  1  0  0  0  0
 11 12  1  0  0  0  0
 11 13  1  0  0  0  0
 11 14  1  0  0  0  0
 15 16  2  0  0  0  0
 15 17  1  0  0  0  0
 17 18  1  0  0  0  0
 17 19  1  0  0  0  0
 19 20  1  0  0  0  0
 19 21  1  0  0  0  0
 19 22  1  0  0  0  0
M  END
$$$$

  -OEChem-11182114133D

 22 21  0     1  0  0  0  0  0999 V2000
   -2.7486   -3.6085    1.0405 H   0  0  0  0  0  0  0  0  0  0  0  0
   -2.6551   -2.5969    0.6354 C   0  0  0  0  0  0  0  0  0  0  0  0
   -3.4528   -1.9766    1.0502 H   0  0  0  0  0  0  0  0  0  0  0  0
   -2.7636   -2.6442   -0.4508 H   0  0  0  0  0  0  0  0  0  0  0  0
   -1.3014   -2.0131    0.9957 C   0  0  0  0  0  0  0  0  0  0  0  0
   -0.5629   -2.6590    1.7186 O   0  0  0  0  0  0  0  0  0  0  0  0
   -0.9852   -0.7482    0.5262 N   0  0  0  0  0  0  0  0  0  0  0  0
   -1.6753   -0.3709   -0.1154 H   0  0  0  0  0  0  0  0  0  0  0  0
    0.3575   -0.1271    0.4731 C   0  0  1  0  0  0  0  0  0  0  0  0
    0.1826    0.9517    0.5093 H   0  0  0  0  0  0  0  0  0  0  0  0
    1.2758   -0.4334    1.6659 C   0  0  0  0  0  0  0  0  0  0  0  0
    1.6596   -1.4573    1.6110 H   0  0  0  0  0  0  0  0  0  0  0  0
    2.1323    0.2471    1.6680 H   0  0  0  0  0  0  0  0  0  0  0  0
    0.7332   -0.3110    2.6082 H   0  0  0  0  0  0  0  0  0  0  0  0
    1.0850   -0.4178   -0.8603 C   0  0  0  0  0  0  0  0  0  0  0  0
    1.2048   -1.5587   -1.2845 O   0  0  0  0  0  0  0  0  0  0  0  0
    1.4693    0.6324   -1.6764 N   0  0  0  0  0  0  0  0  0  0  0  0
    1.3807    1.5739   -1.3072 H   0  0  0  0  0  0  0  0  0  0  0  0
    2.1171    0.4428   -2.9697 C   0  0  0  0  0  0  0  0  0  0  0  0
    1.4834   -0.1552   -3.6333 H   0  0  0  0  0  0  0  0  0  0  0  0
    2.2980    1.4105   -3.4474 H   0  0  0  0  0  0  0  0  0  0  0  0
    3.0778   -0.0681   -2.8459 H   0  0  0  0  0  0  0  0  0  0  0  0
  1  2  1  0  0  0  0
  2  3  1  0  0  0  0
  2  4  1  0  0  0  0
  2  5  1  0  0  0  0
  5  6  2  0  0  0  0
  5  7  1  0  0  0  0
  7  8  1  0  0  0  0
  7  9  1  0  0  0  0
  9 10  1  0  0  0  0
  9 11  1  0  0  0  0
  9 15  1  0  0  0  0
 11 12  1  0  0  0  0
 11 13  1  0  0  0  0
 11 14  1  0  0  0  0
 15 16  2  0  0  0  0
 15 17  1  0  0  0  0
 17 18  1  0  0  0  0
 17 19  1  0  0  0  0
 19 20  1  0  0  0  0
 19 21  1  0  0  0  0
 19 22  1  0  0  0  0
M  END
$$$$

  -OEChem-11182114133D

 22 21  0     1  0  0  0  0  0999 V2000
   -2.7587   -3.5936    1.0784 H   0  0  0  0  0  0  0  0  0  0  0  0
   -2.6439   -2.6047    0.6257 C   0  0  0  0  0  0  0  0  0  0  0  0
   -3.4540   -1.9608    0.9756 H   0  0  0  0  0  0  0  0  0  0  0  0
   -2.7086   -2.7077   -0.4602 H   0  0  0  0  0  0  0  0  0  0  0  0
   -1.3025   -2.0068    1.0074 C   0  0  0  0  0  0  0  0  0  0  0  0
   -0.5672   -2.6442    1.7418 O   0  0  0  0  0  0  0  0  0  0  0  0
   -0.9876   -0.7432    0.5346 N   0  0  0  0  0  0  0  0  0  0  0  0
   -1.6592   -0.3901   -0.1398 H   0  0  0  0  0  0  0  0  0  0  0  0
    0.3568   -0.1256    0.4834 C   0  0  1  0  0  0  0  0  0  0  0  0
    0.1799    0.9532    0.5113 H   0  0  0  0  0  0  0  0  0  0  0  0
    1.2715   -0.4254    1.6803 C   0  0  0  0  0  0  0  0  0  0  0  0
    1.6616   -1.4469    1.6274 H   0  0  0  0  0  0  0  0  0  0  0  0
    2.1235    0.2608    1.6873 H   0  0  0  0  0  0  0  0  0  0  0  0
    0.7230   -0.3065    2.6198 H   0  0  0  0  0  0  0  0  0  0  0  0
    1.0924   -0.4181   -0.8456 C   0  0  0  0  0  0  0  0  0  0  0  0
    0.9519   -1.4861   -1.4269 O   0  0  0  0  0  0  0  0  0  0  0  0
    1.7534    0.6049   -1.5029 N   0  0  0  0  0  0  0  0  0  0  0  0
    1.8638    1.4871   -1.0127 H   0  0  0  0  0  0  0  0  0  0  0  0
    2.4043    0.4328   -2.7967 C   0  0  0  0  0  0  0  0  0  0  0  0
    1.6726    0.1445   -3.5587 H   0  0  0  0  0  0  0  0  0  0  0  0
    2.8775    1.3683   -3.1099 H   0  0  0  0  0  0  0  0  0  0  0  0
    3.1756   -0.3425   -2.7378 H   0  0  0  0  0  0  0  0  0  0  0  0
  1  2  1  0  0  0  0
  2  3  1  0  0  0  0
  2  4  1  0  0  0  0
  2  5  1  0  0  0  0
  5  6  2  0  0  0  0
  5  7  1  0  0  0  0
  7  8  1  0  0  0  0
  7  9  1  0  0  0  0
  9 10  1  0  0  0  0
  9 11  1  0  0  0  0
  9 15  1  0  0  0  0
 11 12  1  0  0  0  0
 11 13  1  0  0  0  0
 11 14  1  0  0  0  0
 15 16  2  0  0  0  0
 15 17  1  0  0  0  0
 17 18  1  0  0  0  0
 17 19  1  0  0  0  0
 19 20  1  0  0  0  0
 19 21  1  0  0  0  0
 19 22  1  0  0  0  0
M  END
$$$$

  -OEChem-11182114133D

 22 21  0     1  0  0  0  0  0999 V2000
   -2.7590   -3.5958    1.0867 H   0  0  0  0  0  0  0  0  0  0  0  0
   -2.6452   -2.6079    0.6311 C   0  0  0  0  0  0  0  0  0  0  0  0
   -3.4571   -1.9647    0.9785 H   0  0  0  0  0  0  0  0  0  0  0  0
   -2.7090   -2.7135   -0.4548 H   0  0  0  0  0  0  0  0  0  0  0  0
   -1.3053   -2.0062    1.0127 C   0  0  0  0  0  0  0  0  0  0  0  0
   -0.5665   -2.6422    1.7454 O   0  0  0  0  0  0  0  0  0  0  0  0
   -0.9901   -0.7449    0.5345 N   0  0  0  0  0  0  0  0  0  0  0  0
   -1.6485   -0.4080   -0.1615 H   0  0  0  0  0  0  0  0  0  0  0  0
    0.3549   -0.1287    0.4843 C   0  0  1  0  0  0  0  0  0  0  0  0
    0.1775    0.9505    0.4994 H   0  0  0  0  0  0  0  0  0  0  0  0
    1.2611   -0.4165    1.6911 C   0  0  0  0  0  0  0  0  0  0  0  0
    1.6512   -1.4386    1.6522 H   0  0  0  0  0  0  0  0  0  0  0  0
    2.1132    0.2694    1.6984 H   0  0  0  0  0  0  0  0  0  0  0  0
    0.7056   -0.2869    2.6251 H   0  0  0  0  0  0  0  0  0  0  0  0
    1.0984   -0.4257   -0.8398 C   0  0  0  0  0  0  0  0  0  0  0  0
    0.7515   -1.3472   -1.5685 O   0  0  0  0  0  0  0  0  0  0  0  0
    2.0095    0.4924   -1.3322 N   0  0  0  0  0  0  0  0  0  0  0  0
    2.2905    1.2508   -0.7184 H   0  0  0  0  0  0  0  0  0  0  0  0
    2.6861    0.3387   -2.6150 C   0  0  0  0  0  0  0  0  0  0  0  0
    1.9585    0.3281   -3.4335 H   0  0  0  0  0  0  0  0  0  0  0  0
    3.3783    1.1700   -2.7796 H   0  0  0  0  0  0  0  0  0  0  0  0
    3.2562   -0.5961   -2.6385 H   0  0  0  0  0  0  0  0  0  0  0  0
  1  2  1  0  0  0  0
  2  3  1  0  0  0  0
  2  4  1  0  0  0  0
  2  5  1  0  0  0  0
  5  6  2  0  0  0  0
  5  7  1  0  0  0  0
  7  8  1  0  0  0  0
  7  9  1  0  0  0  0
  9 10  1  0  0  0  0
  9 11  1  0  0  0  0
  9 15  1  0  0  0  0
 11 12  1  0  0  0  0
 11 13  1  0  0  0  0
 11 14  1  0  0  0  0
 15 16  2  0  0  0  0
 15 17  1  0  0  0  0
 17 18  1  0  0  0  0
 17 19  1  0  0  0  0
 19 20  1  0  0  0  0
 19 21  1  0  0  0  0
 19 22  1  0  0  0  0
M  END
$$$$

  -OEChem-11182114133D

 22 21  0     1  0  0  0  0  0999 V2000
   -2.7468   -3.6075    1.0637 H   0  0  0  0  0  0  0  0  0  0  0  0
   -2.6477   -2.6053    0.6373 C   0  0  0  0  0  0  0  0  0  0  0  0
   -3.4546   -1.9772    1.0219 H   0  0  0  0  0  0  0  0  0  0  0  0
   -2.7346   -2.6770   -0.4498 H   0  0  0  0  0  0  0  0  0  0  0  0
   -1.3031   -2.0081    1.0088 C   0  0  0  0  0  0  0  0  0  0  0  0
   -0.5491   -2.6568    1.7146 O   0  0  0  0  0  0  0  0  0  0  0  0
   -0.9906   -0.7451    0.5347 N   0  0  0  0  0  0  0  0  0  0  0  0
   -1.6466   -0.4094   -0.1646 H   0  0  0  0  0  0  0  0  0  0  0  0
    0.3516   -0.1235    0.4878 C   0  0  1  0  0  0  0  0  0  0  0  0
    0.1732    0.9556    0.4999 H   0  0  0  0  0  0  0  0  0  0  0  0
    1.2496   -0.4090    1.7025 C   0  0  0  0  0  0  0  0  0  0  0  0
    1.6594   -1.4231    1.6551 H   0  0  0  0  0  0  0  0  0  0  0  0
    2.0875    0.2933    1.7315 H   0  0  0  0  0  0  0  0  0  0  0  0
    0.6800   -0.3026    2.6311 H   0  0  0  0  0  0  0  0  0  0  0  0
    1.0951   -0.4170   -0.8377 C   0  0  0  0  0  0  0  0  0  0  0  0
    0.6059   -1.1573   -1.6832 O   0  0  0  0  0  0  0  0  0  0  0  0
    2.2118    0.3250   -1.1805 N   0  0  0  0  0  0  0  0  0  0  0  0
    2.6146    0.9218   -0.4647 H   0  0  0  0  0  0  0  0  0  0  0  0
    2.9335    0.1476   -2.4353 C   0  0  0  0  0  0  0  0  0  0  0  0
    2.2772    0.3514   -3.2880 H   0  0  0  0  0  0  0  0  0  0  0  0
    3.7838    0.8348   -2.4833 H   0  0  0  0  0  0  0  0  0  0  0  0
    3.3111   -0.8771   -2.5181 H   0  0  0  0  0  0  0  0  0  0  0  0
  1  2  1  0  0  0  0
  2  3  1  0  0  0  0
  2  4  1  0  0  0  0
  2  5  1  0  0  0  0
  5  6  2  0  0  0  0
  5  7  1  0  0  0  0
  7  8  1  0  0  0  0
  7  9  1  0  0  0  0
  9 10  1  0  0  0  0
  9 11  1  0  0  0  0
  9 15  1  0  0  0  0
 11 12  1  0  0  0  0
 11 13  1  0  0  0  0
 11 14  1  0  0  0  0
 15 16  2  0  0  0  0
 15 17  1  0  0  0  0
 17 18  1  0  0  0  0
 17 19  1  0  0  0  0
 19 20  1  0  0  0  0
 19 21  1  0  0  0  0
 19 22  1  0  0  0  0
M  END
$$$$

  -OEChem-11182114133D

 22 21  0     1  0  0  0  0  0999 V2000
   -2.7915   -3.5922    1.0094 H   0  0  0  0  0  0  0  0  0  0  0  0
   -2.6681   -2.5801    0.6133 C   0  0  0  0  0  0  0  0  0  0  0  0
   -3.4577   -1.9438    1.0201 H   0  0  0  0  0  0  0  0  0  0  0  0
   -2.7610   -2.6156   -0.4751 H   0  0  0  0  0  0  0  0  0  0  0  0
   -1.3075   -2.0284    0.9973 C   0  0  0  0  0  0  0  0  0  0  0  0
   -0.5749   -2.7146    1.6897 O   0  0  0  0  0  0  0  0  0  0  0  0
   -0.9612   -0.7687    0.5388 N   0  0  0  0  0  0  0  0  0  0  0  0
   -1.6071   -0.4142   -0.1630 H   0  0  0  0  0  0  0  0  0  0  0  0
    0.3759   -0.1319    0.5056 C   0  0  1  0  0  0  0  0  0  0  0  0
    0.2173    0.9140    0.7843 H   0  0  0  0  0  0  0  0  0  0  0  0
    1.4081   -0.6793    1.5066 C   0  0  0  0  0  0  0  0  0  0  0  0
    1.7352   -1.6830    1.2165 H   0  0  0  0  0  0  0  0  0  0  0  0
    2.2880   -0.0312    1.5478 H   0  0  0  0  0  0  0  0  0  0  0  0
    0.9766   -0.7252    2.5115 H   0  0  0  0  0  0  0  0  0  0  0  0
    0.9477   -0.1105   -0.9332 C   0  0  0  0  0  0  0  0  0  0  0  0
    0.2437   -0.4386   -1.8823 O   0  0  0  0  0  0  0  0  0  0  0  0
    2.1906    0.4398   -1.1926 N   0  0  0  0  0  0  0  0  0  0  0  0
    2.7688    0.6860   -0.3950 H   0  0  0  0  0  0  0  0  0  0  0  0
    2.7633    0.5262   -2.5309 C   0  0  0  0  0  0  0  0  0  0  0  0
    2.1157    1.1155   -3.1888 H   0  0  0  0  0  0  0  0  0  0  0  0
    3.7446    1.0088   -2.4926 H   0  0  0  0  0  0  0  0  0  0  0  0
    2.8851   -0.4738   -2.9602 H   0  0  0  0  0  0  0  0  0  0  0  0
  1  2  1  0  0  0  0
  2  3  1  0  0  0  0
  2  4  1  0  0  0  0
  2  5  1  0  0  0  0
  5  6  2  0  0  0  0
  5  7  1  0  0  0  0
  7  8  1  0  0  0  0
  7  9  1  0  0  0  0
  9 10  1  0  0  0  0
  9 11  1  0  0  0  0
  9 15  1  0  0  0  0
 11 12  1  0  0  0  0
 11 13  1  0  0  0  0
 11 14  1  0  0  0  0
 15 16  2  0  0  0  0
 15 17  1  0  0  0  0
 17 18  1  0  0  0  0
 17 19  1  0  0  0  0
 19 20  1  0  0  0  0
 19 21  1  0  0  0  0
 19 22  1  0  0  0  0
M  END
$$$$

  -OEChem-11182114133D

 22 21  0     1  0  0  0  0  0999 V2000
   -2.7963   -3.5938    1.0082 H   0  0  0  0  0  0  0  0  0  0  0  0
   -2.6758   -2.5768    0.6242 C   0  0  0  0  0  0  0  0  0  0  0  0
   -3.4443   -1.9396    1.0681 H   0  0  0  0  0  0  0  0  0  0  0  0
   -2.8062   -2.5929   -0.4607 H   0  0  0  0  0  0  0  0  0  0  0  0
   -1.2977   -2.0445    0.9709 C   0  0  0  0  0  0  0  0  0  0  0  0
   -0.5457   -2.7510    1.6208 O   0  0  0  0  0  0  0  0  0  0  0  0
   -0.9521   -0.7821    0.5202 N   0  0  0  0  0  0  0  0  0  0  0  0
   -1.6093   -0.4040   -0.1590 H   0  0  0  0  0  0  0  0  0  0  0  0
    0.3792   -0.1341    0.5042 C   0  0  1  0  0  0  0  0  0  0  0  0
    0.2080    0.9120    0.7747 H   0  0  0  0  0  0  0  0  0  0  0  0
    1.3942   -0.6642    1.5324 C   0  0  0  0  0  0  0  0  0  0  0  0
    1.7504   -1.6602    1.2497 H   0  0  0  0  0  0  0  0  0  0  0  0
    2.2573    0.0041    1.6013 H   0  0  0  0  0  0  0  0  0  0  0  0
    0.9348   -0.7226    2.5241 H   0  0  0  0  0  0  0  0  0  0  0  0
    0.9622   -0.1090   -0.9304 C   0  0  0  0  0  0  0  0  0  0  0  0
    0.2104   -0.2125   -1.8939 O   0  0  0  0  0  0  0  0  0  0  0  0
    2.3008    0.1580   -1.1594 N   0  0  0  0  0  0  0  0  0  0  0  0
    2.9139    0.1899   -0.3505 H   0  0  0  0  0  0  0  0  0  0  0  0
    2.8922    0.1942   -2.4918 C   0  0  0  0  0  0  0  0  0  0  0  0
    2.3946    0.9469   -3.1125 H   0  0  0  0  0  0  0  0  0  0  0  0
    3.9543    0.4490   -2.4274 H   0  0  0  0  0  0  0  0  0  0  0  0
    2.7988   -0.7823   -2.9787 H   0  0  0  0  0  0  0  0  0  0  0  0
  1  2  1  0  0  0  0
  2  3  1  0  0  0  0
  2  4  1  0  0  0  0
  2  5  1  0  0  0  0
  5  6  2  0  0  0  0
  5  7  1  0  0  0  0
  7  8  1  0  0  0  0
  7  9  1  0  0  0  0
  9 10  1  0  0  0  0
  9 11  1  0  0  0  0
  9 15  1  0  0  0  0
 11 12  1  0  0  0  0
 11 13  1  0  0  0  0
 11 14  1  0  0  0  0
 15 16  2  0  0  0  0
 15 17  1  0  0  0  0
 17 18  1  0  0  0  0
 17 19  1  0  0  0  0
 19 20  1  0  0  0  0
 19 21  1  0  0  0  0
 19 22  1  0  0  0  0
M  END
$$$$

  -OEChem-11182114133D

 22 21  0     1  0  0  0  0  0999 V2000
   -2.8027   -3.5912    1.0113 H   0  0  0  0  0  0  0  0  0  0  0  0
   -2.6814   -2.5727    0.6320 C   0  0  0  0  0  0  0  0  0  0  0  0
   -3.4329   -1.9314    1.0986 H   0  0  0  0  0  0  0  0  0  0  0  0
   -2.8379   -2.5801   -0.4495 H   0  0  0  0  0  0  0  0  0  0  0  0
   -1.2905   -2.0561    0.9501 C   0  0  0  0  0  0  0  0  0  0  0  0
   -0.5253   -2.7772    1.5680 O   0  0  0  0  0  0  0  0  0  0  0  0
   -0.9427   -0.7937    0.5019 N   0  0  0  0  0  0  0  0  0  0  0  0
   -1.6140   -0.3898   -0.1480 H   0  0  0  0  0  0  0  0  0  0  0  0
    0.3843   -0.1387    0.5006 C   0  0  1  0  0  0  0  0  0  0  0  0
    0.2032    0.9088    0.7598 H   0  0  0  0  0  0  0  0  0  0  0  0
    1.3832   -0.6499    1.5543 C   0  0  0  0  0  0  0  0  0  0  0  0
    1.7510   -1.6472    1.2929 H   0  0  0  0  0  0  0  0  0  0  0  0
    2.2403    0.0259    1.6281 H   0  0  0  0  0  0  0  0  0  0  0  0
    0.9058   -0.6983    2.5380 H   0  0  0  0  0  0  0  0  0  0  0  0
    0.9791   -0.1170   -0.9286 C   0  0  0  0  0  0  0  0  0  0  0  0
    0.2258    0.0016   -1.8888 O   0  0  0  0  0  0  0  0  0  0  0  0
    2.3444   -0.1505   -1.1528 N   0  0  0  0  0  0  0  0  0  0  0  0
    2.9417   -0.3274   -0.3505 H   0  0  0  0  0  0  0  0  0  0  0  0
    2.9363   -0.1582   -2.4851 C   0  0  0  0  0  0  0  0  0  0  0  0
    2.6240    0.7268   -3.0494 H   0  0  0  0  0  0  0  0  0  0  0  0
    4.0281   -0.1521   -2.4136 H   0  0  0  0  0  0  0  0  0  0  0  0
    2.6290   -1.0536   -3.0355 H   0  0  0  0  0  0  0  0  0  0  0  0
  1  2  1  0  0  0  0
  2  3  1  0  0  0  0
  2  4  1  0  0  0  0
  2  5  1  0  0  0  0
  5  6  2  0  0  0  0
  5  7  1  0  0  0  0
  7  8  1  0  0  0  0
  7  9  1  0  0  0  0
  9 10  1  0  0  0  0
  9 11  1  0  0  0  0
  9 15  1  0  0  0  0
 11 12  1  0  0  0  0
 11 13  1  0  0  0  0
 11 14  1  0  0  0  0
 15 16  2  0  0  0  0
 15 17  1  0  0  0  0
 17 18  1  0  0  0  0
 17 19  1  0  0  0  0
 19 20  1  0  0  0  0
 19 21  1  0  0  0  0
 19 22  1  0  0  0  0
M  END
$$$$

  -OEChem-11182114133D

 22 21  0     1  0  0  0  0  0999 V2000
   -2.8101   -3.5854    1.0294 H   0  0  0  0  0  0  0  0  0  0  0  0
   -2.6874   -2.5687    0.6456 C   0  0  0  0  0  0  0  0  0  0  0  0
   -3.4181   -1.9184    1.1324 H   0  0  0  0  0  0  0  0  0  0  0  0
   -2.8746   -2.5746   -0.4310 H   0  0  0  0  0  0  0  0  0  0  0  0
   -1.2818   -2.0686    0.9237 C   0  0  0  0  0  0  0  0  0  0  0  0
   -0.5001   -2.8063    1.4995 O   0  0  0  0  0  0  0  0  0  0  0  0
   -0.9335   -0.8055    0.4787 N   0  0  0  0  0  0  0  0  0  0  0  0
   -1.6248   -0.3706   -0.1285 H   0  0  0  0  0  0  0  0  0  0  0  0
    0.3886   -0.1427    0.4919 C   0  0  1  0  0  0  0  0  0  0  0  0
    0.1989    0.9055    0.7425 H   0  0  0  0  0  0  0  0  0  0  0  0
    1.3750   -0.6389    1.5649 C   0  0  0  0  0  0  0  0  0  0  0  0
    1.7465   -1.6405    1.3269 H   0  0  0  0  0  0  0  0  0  0  0  0
    2.2314    0.0385    1.6348 H   0  0  0  0  0  0  0  0  0  0  0  0
    0.8859   -0.6707    2.5436 H   0  0  0  0  0  0  0  0  0  0  0  0
    0.9947   -0.1226   -0.9307 C   0  0  0  0  0  0  0  0  0  0  0  0
    0.2829    0.2053   -1.8732 O   0  0  0  0  0  0  0  0  0  0  0  0
    2.3173   -0.4509   -1.1705 N   0  0  0  0  0  0  0  0  0  0  0  0
    2.8497   -0.8206   -0.3882 H   0  0  0  0  0  0  0  0  0  0  0  0
    2.8969   -0.5103   -2.5067 C   0  0  0  0  0  0  0  0  0  0  0  0
    2.8011    0.4574   -3.0104 H   0  0  0  0  0  0  0  0  0  0  0  0
    3.9599   -0.7625   -2.4463 H   0  0  0  0  0  0  0  0  0  0  0  0
    2.3929   -1.2730   -3.1096 H   0  0  0  0  0  0  0  0  0  0  0  0
  1  2  1  0  0  0  0
  2  3  1  0  0  0  0
  2  4  1  0  0  0  0
  2  5  1  0  0  0  0
  5  6  2  0  0  0  0
  5  7  1  0  0  0  0
  7  8  1  0  0  0  0
  7  9  1  0  0  0  0
  9 10  1  0  0  0  0
  9 11  1  0  0  0  0
  9 15  1  0  0  0  0
 11 12  1  0  0  0  0
 11 13  1  0  0  0  0
 11 14  1  0  0  0  0
 15 16  2  0  0  0  0
 15 17  1  0  0  0  0
 17 18  1  0  0  0  0
 17 19  1  0  0  0  0
 19 20  1  0  0  0  0
 19 21  1  0  0  0  0
 19 22  1  0  0  0  0
M  END
$$$$

  -OEChem-11182114133D

 22 21  0     1  0  0  0  0  0999 V2000
   -2.8212   -3.5755    1.0671 H   0  0  0  0  0  0  0  0  0  0  0  0
   -2.6995   -2.5618    0.6752 C   0  0  0  0  0  0  0  0  0  0  0  0
   -3.3988   -1.8996    1.1912 H   0  0  0  0  0  0  0  0  0  0  0  0
   -2.9327   -2.5675   -0.3923 H   0  0  0  0  0  0  0  0  0  0  0  0
   -1.2759   -2.0829    0.8925 C   0  0  0  0  0  0  0  0  0  0  0  0
   -0.4756   -2.8382    1.4176 O   0  0  0  0  0  0  0  0  0  0  0  0
   -0.9286   -0.8197    0.4473 N   0  0  0  0  0  0  0  0  0  0  0  0
   -1.6426   -0.3533   -0.1077 H   0  0  0  0  0  0  0  0  0  0  0  0
    0.3898   -0.1511    0.4733 C   0  0  1  0  0  0  0  0  0  0  0  0
    0.1909    0.8973    0.7167 H   0  0  0  0  0  0  0  0  0  0  0  0
    1.3656   -0.6343    1.5619 C   0  0  0  0  0  0  0  0  0  0  0  0
    1.7378   -1.6403    1.3466 H   0  0  0  0  0  0  0  0  0  0  0  0
    2.2237    0.0418    1.6254 H   0  0  0  0  0  0  0  0  0  0  0  0
    0.8680   -0.6483    2.5365 H   0  0  0  0  0  0  0  0  0  0  0  0
    1.0121   -0.1329   -0.9405 C   0  0  0  0  0  0  0  0  0  0  0  0
    0.3922    0.4037   -1.8508 O   0  0  0  0  0  0  0  0  0  0  0  0
    2.2265   -0.7359   -1.2149 N   0  0  0  0  0  0  0  0  0  0  0  0
    2.6438   -1.2859   -0.4692 H   0  0  0  0  0  0  0  0  0  0  0  0
    2.7867   -0.8310   -2.5570 C   0  0  0  0  0  0  0  0  0  0  0  0
    2.9176    0.1664   -2.9897 H   0  0  0  0  0  0  0  0  0  0  0  0
    3.7638   -1.3226   -2.5245 H   0  0  0  0  0  0  0  0  0  0  0  0
    2.1260   -1.4137   -3.2076 H   0  0  0  0  0  0  0  0  0  0  0  0
  1  2  1  0  0  0  0
  2  3  1  0  0  0  0
  2  4  1  0  0  0  0
  2  5  1  0  0  0  0
  5  6  2  0  0  0  0
  5  7  1  0  0  0  0
  7  8  1  0  0  0  0
  7  9  1  0  0  0  0
  9 10  1  0  0  0  0
  9 11  1  0  0  0  0
  9 15  1  0  0  0  0
 11 12  1  0  0  0  0
 11 13  1  0  0  0  0
 11 14  1  0  0  0  0
 15 16  2  0  0  0  0
 15 17  1  0  0  0  0
 17 18  1  0  0  0  0
 17 19  1  0  0  0  0
 19 20  1  0  0  0  0
 19 21  1  0  0  0  0
 19 22  1  0  0  0  0
M  END
$$$$

  -OEChem-11182114133D

 22 21  0     1  0  0  0  0  0999 V2000
   -2.8307   -3.5651    1.1125 H   0  0  0  0  0  0  0  0  0  0  0  0
   -2.7119   -2.5538    0.7133 C   0  0  0  0  0  0  0  0  0  0  0  0
   -3.3743   -1.8800    1.2622 H   0  0  0  0  0  0  0  0  0  0  0  0
   -2.9978   -2.5564   -0.3414 H   0  0  0  0  0  0  0  0  0  0  0  0
   -1.2720   -2.0974    0.8597 C   0  0  0  0  0  0  0  0  0  0  0  0
   -0.4509   -2.8729    1.3192 O   0  0  0  0  0  0  0  0  0  0  0  0
   -0.9284   -0.8343    0.4124 N   0  0  0  0  0  0  0  0  0  0  0  0
   -1.6699   -0.3306   -0.0682 H   0  0  0  0  0  0  0  0  0  0  0  0
    0.3872   -0.1620    0.4486 C   0  0  1  0  0  0  0  0  0  0  0  0
    0.1818    0.8865    0.6867 H   0  0  0  0  0  0  0  0  0  0  0  0
    1.3559   -0.6337    1.5489 C   0  0  0  0  0  0  0  0  0  0  0  0
    1.7338   -1.6406    1.3501 H   0  0  0  0  0  0  0  0  0  0  0  0
    2.2129    0.0442    1.6092 H   0  0  0  0  0  0  0  0  0  0  0  0
    0.8514   -0.6375    2.5201 H   0  0  0  0  0  0  0  0  0  0  0  0
    1.0246   -0.1462   -0.9565 C   0  0  0  0  0  0  0  0  0  0  0  0
    0.5522    0.5884   -1.8148 O   0  0  0  0  0  0  0  0  0  0  0  0
    2.0696   -0.9899   -1.2854 N   0  0  0  0  0  0  0  0  0  0  0  0
    2.3201   -1.6935   -0.5953 H   0  0  0  0  0  0  0  0  0  0  0  0
    2.6115   -1.1027   -2.6337 C   0  0  0  0  0  0  0  0  0  0  0  0
    2.9722   -0.1303   -2.9853 H   0  0  0  0  0  0  0  0  0  0  0  0
    3.4504   -1.8050   -2.6458 H   0  0  0  0  0  0  0  0  0  0  0  0
    1.8445   -1.4654   -3.3260 H   0  0  0  0  0  0  0  0  0  0  0  0
  1  2  1  0  0  0  0
  2  3  1  0  0  0  0
  2  4  1  0  0  0  0
  2  5  1  0  0  0  0
  5  6  2  0  0  0  0
  5  7  1  0  0  0  0
  7  8  1  0  0  0  0
  7  9  1  0  0  0  0
  9 10  1  0  0  0  0
  9 11  1  0  0  0  0
  9 15  1  0  0  0  0
 11 12  1  0  0  0  0
 11 13  1  0  0  0  0
 11 14  1  0  0  0  0
 15 16  2  0  0  0  0
 15 17  1  0  0  0  0
 17 18  1  0  0  0  0
 17 19  1  0  0  0  0
 19 20  1  0  0  0  0
 19 21  1  0  0  0  0
 19 22  1  0  0  0  0
M  END
$$$$

  -OEChem-11182114133D

 22 21  0     1  0  0  0  0  0999 V2000
   -2.8369   -3.5450    1.1962 H   0  0  0  0  0  0  0  0  0  0  0  0
   -2.7255   -2.5446    0.7686 C   0  0  0  0  0  0  0  0  0  0  0  0
   -3.3451   -1.8487    1.3394 H   0  0  0  0  0  0  0  0  0  0  0  0
   -3.0705   -2.5643   -0.2681 H   0  0  0  0  0  0  0  0  0  0  0  0
   -1.2726   -2.1103    0.8228 C   0  0  0  0  0  0  0  0  0  0  0  0
   -0.4277   -2.9088    1.1908 O   0  0  0  0  0  0  0  0  0  0  0  0
   -0.9376   -0.8466    0.3725 N   0  0  0  0  0  0  0  0  0  0  0  0
   -1.7067   -0.3048   -0.0136 H   0  0  0  0  0  0  0  0  0  0  0  0
    0.3765   -0.1725    0.4178 C   0  0  1  0  0  0  0  0  0  0  0  0
    0.1667    0.8753    0.6559 H   0  0  0  0  0  0  0  0  0  0  0  0
    1.3431   -0.6421    1.5202 C   0  0  0  0  0  0  0  0  0  0  0  0
    1.7355   -1.6422    1.3156 H   0  0  0  0  0  0  0  0  0  0  0  0
    2.1919    0.0450    1.5890 H   0  0  0  0  0  0  0  0  0  0  0  0
    0.8340   -0.6590    2.4886 H   0  0  0  0  0  0  0  0  0  0  0  0
    1.0260   -0.1593   -0.9796 C   0  0  0  0  0  0  0  0  0  0  0  0
    0.7618    0.7458   -1.7603 O   0  0  0  0  0  0  0  0  0  0  0  0
    1.8475   -1.1948   -1.3833 N   0  0  0  0  0  0  0  0  0  0  0  0
    1.9010   -1.9986   -0.7612 H   0  0  0  0  0  0  0  0  0  0  0  0
    2.3907   -1.3066   -2.7306 C   0  0  0  0  0  0  0  0  0  0  0  0
    2.9877   -0.4223   -2.9775 H   0  0  0  0  0  0  0  0  0  0  0  0
    3.0345   -2.1882   -2.8063 H   0  0  0  0  0  0  0  0  0  0  0  0
    1.5824   -1.4021   -3.4631 H   0  0  0  0  0  0  0  0  0  0  0  0
  1  2  1  0  0  0  0
  2  3  1  0  0  0  0
  2  4  1  0  0  0  0
  2  5  1  0  0  0  0
  5  6  2  0  0  0  0
  5  7  1  0  0  0  0
  7  8  1  0  0  0  0
  7  9  1  0  0  0  0
  9 10  1  0  0  0  0
  9 11  1  0  0  0  0
  9 15  1  0  0  0  0
 11 12  1  0  0  0  0
 11 13  1  0  0  0  0
 11 14  1  0  0  0  0
 15 16  2  0  0  0  0
 15 17  1  0  0  0  0
 17 18  1  0  0  0  0
 17 19  1  0  0  0  0
 19 20  1  0  0  0  0
 19 21  1  0  0  0  0
 19 22  1  0  0  0  0
M  END
$$$$

  -OEChem-11182114133D

 22 21  0     1  0  0  0  0  0999 V2000
   -2.8252   -3.5466    1.2349 H   0  0  0  0  0  0  0  0  0  0  0  0
   -2.7363   -2.5336    0.8321 C   0  0  0  0  0  0  0  0  0  0  0  0
   -3.2958   -1.8505    1.4757 H   0  0  0  0  0  0  0  0  0  0  0  0
   -3.1675   -2.5149   -0.1717 H   0  0  0  0  0  0  0  0  0  0  0  0
   -1.2780   -2.1183    0.7782 C   0  0  0  0  0  0  0  0  0  0  0  0
   -0.4142   -2.9392    1.0373 O   0  0  0  0  0  0  0  0  0  0  0  0
   -0.9543   -0.8526    0.3265 N   0  0  0  0  0  0  0  0  0  0  0  0
   -1.7433   -0.2788    0.0406 H   0  0  0  0  0  0  0  0  0  0  0  0
    0.3593   -0.1771    0.3854 C   0  0  1  0  0  0  0  0  0  0  0  0
    0.1484    0.8699    0.6270 H   0  0  0  0  0  0  0  0  0  0  0  0
    1.3214   -0.6546    1.4869 C   0  0  0  0  0  0  0  0  0  0  0  0
    1.7313   -1.6436    1.2628 H   0  0  0  0  0  0  0  0  0  0  0  0
    2.1593    0.0437    1.5766 H   0  0  0  0  0  0  0  0  0  0  0  0
    0.8049   -0.6993    2.4506 H   0  0  0  0  0  0  0  0  0  0  0  0
    1.0234   -0.1647   -1.0031 C   0  0  0  0  0  0  0  0  0  0  0  0
    1.0143    0.8538   -1.6817 O   0  0  0  0  0  0  0  0  0  0  0  0
    1.5831   -1.3252   -1.5021 N   0  0  0  0  0  0  0  0  0  0  0  0
    1.4436   -2.1687   -0.9474 H   0  0  0  0  0  0  0  0  0  0  0  0
    2.1334   -1.4389   -2.8460 C   0  0  0  0  0  0  0  0  0  0  0  0
    2.9242   -0.6971   -3.0002 H   0  0  0  0  0  0  0  0  0  0  0  0
    2.5618   -2.4347   -2.9956 H   0  0  0  0  0  0  0  0  0  0  0  0
    1.3503   -1.2807   -3.5949 H   0  0  0  0  0  0  0  0  0  0  0  0
  1  2  1  0  0  0  0
  2  3  1  0  0  0  0
  2  4  1  0  0  0  0
  2  5  1  0  0  0  0
  5  6  2  0  0  0  0
  5  7  1  0  0  0  0
  7  8  1  0  0  0  0
  7  9  1  0  0  0  0
  9 10  1  0  0  0  0
  9 11  1  0  0  0  0
  9 15  1  0  0  0  0
 11 12  1  0  0  0  0
 11 13  1  0  0  0  0
 11 14  1  0  0  0  0
 15 16  2  0  0  0  0
 15 17  1  0  0  0  0
 17 18  1  0  0  0  0
 17 19  1  0  0  0  0
 19 20  1  0  0  0  0
 19 21  1  0  0  0  0
 19 22  1  0  0  0  0
M  END
$$$$

  -OEChem-11182114133D

 22 21  0     1  0  0  0  0  0999 V2000
   -2.8275   -3.5359    1.3136 H   0  0  0  0  0  0  0  0  0  0  0  0
   -2.7528   -2.5243    0.9044 C   0  0  0  0  0  0  0  0  0  0  0  0
   -3.2653   -1.8350    1.5798 H   0  0  0  0  0  0  0  0  0  0  0  0
   -3.2442   -2.5016   -0.0713 H   0  0  0  0  0  0  0  0  0  0  0  0
   -1.2960   -2.1250    0.7611 C   0  0  0  0  0  0  0  0  0  0  0  0
   -0.4263   -2.9629    0.9302 O   0  0  0  0  0  0  0  0  0  0  0  0
   -0.9835   -0.8586    0.3051 N   0  0  0  0  0  0  0  0  0  0  0  0
   -1.7841   -0.2665    0.1015 H   0  0  0  0  0  0  0  0  0  0  0  0
    0.3313   -0.1820    0.3555 C   0  0  1  0  0  0  0  0  0  0  0  0
    0.1241    0.8638    0.6051 H   0  0  0  0  0  0  0  0  0  0  0  0
    1.3038   -0.6749    1.4397 C   0  0  0  0  0  0  0  0  0  0  0  0
    1.7169   -1.6566    1.1892 H   0  0  0  0  0  0  0  0  0  0  0  0
    2.1392    0.0256    1.5360 H   0  0  0  0  0  0  0  0  0  0  0  0
    0.7966   -0.7423    2.4068 H   0  0  0  0  0  0  0  0  0  0  0  0
    0.9930   -0.1662   -1.0334 C   0  0  0  0  0  0  0  0  0  0  0  0
    1.2498    0.8933   -1.5892 O   0  0  0  0  0  0  0  0  0  0  0  0
    1.2686   -1.3659   -1.6600 N   0  0  0  0  0  0  0  0  0  0  0  0
    1.0017   -2.2130   -1.1588 H   0  0  0  0  0  0  0  0  0  0  0  0
    1.8725   -1.4701   -2.9810 C   0  0  0  0  0  0  0  0  0  0  0  0
    2.8381   -0.9541   -3.0022 H   0  0  0  0  0  0  0  0  0  0  0  0
    2.0371   -2.5205   -3.2391 H   0  0  0  0  0  0  0  0  0  0  0  0
    1.2176   -1.0250   -3.7371 H   0  0  0  0  0  0  0  0  0  0  0  0
  1  2  1  0  0  0  0
  2  3  1  0  0  0  0
  2  4  1  0  0  0  0
  2  5  1  0  0  0  0
  5  6  2  0  0  0  0
  5  7  1  0  0  0  0
  7  8  1  0  0  0  0
  7  9  1  0  0  0  0
  9 10  1  0  0  0  0
  9 11  1  0  0  0  0
  9 15  1  0  0  0  0
 11 12  1  0  0  0  0
 11 13  1  0  0  0  0
 11 14  1  0  0  0  0
 15 16  2  0  0  0  0
 15 17  1  0  0  0  0
 17 18  1  0  0  0  0
 17 19  1  0  0  0  0
 19 20  1  0  0  0  0
 19 21  1  0  0  0  0
 19 22  1  0  0  0  0
M  END
$$$$

  -OEChem-11182114133D

 22 21  0     1  0  0  0  0  0999 V2000
   -2.8302   -3.5507    1.3432 H   0  0  0  0  0  0  0  0  0  0  0  0
   -2.7663   -2.5244    0.9706 C   0  0  0  0  0  0  0  0  0  0  0  0
   -3.2361   -1.8581    1.6980 H   0  0  0  0  0  0  0  0  0  0  0  0
   -3.3073   -2.4596    0.0233 H   0  0  0  0  0  0  0  0  0  0  0  0
   -1.3150   -2.1314    0.7677 C   0  0  0  0  0  0  0  0  0  0  0  0
   -0.4440   -2.9763    0.8830 O   0  0  0  0  0  0  0  0  0  0  0  0
   -1.0157   -0.8642    0.3053 N   0  0  0  0  0  0  0  0  0  0  0  0
   -1.8235   -0.2667    0.1531 H   0  0  0  0  0  0  0  0  0  0  0  0
    0.2984   -0.1813    0.3307 C   0  0  1  0  0  0  0  0  0  0  0  0
    0.0930    0.8626    0.5892 H   0  0  0  0  0  0  0  0  0  0  0  0
    1.2911   -0.6837    1.3909 C   0  0  0  0  0  0  0  0  0  0  0  0
    1.7031   -1.6592    1.1158 H   0  0  0  0  0  0  0  0  0  0  0  0
    2.1253    0.0190    1.4824 H   0  0  0  0  0  0  0  0  0  0  0  0
    0.8024   -0.7681    2.3662 H   0  0  0  0  0  0  0  0  0  0  0  0
    0.9475   -0.1557   -1.0649 C   0  0  0  0  0  0  0  0  0  0  0  0
    1.4495    0.8728   -1.4976 O   0  0  0  0  0  0  0  0  0  0  0  0
    0.9452   -1.3045   -1.8323 N   0  0  0  0  0  0  0  0  0  0  0  0
    0.6005   -2.1480   -1.3746 H   0  0  0  0  0  0  0  0  0  0  0  0
    1.6110   -1.4118   -3.1232 C   0  0  0  0  0  0  0  0  0  0  0  0
    2.6874   -1.2434   -3.0136 H   0  0  0  0  0  0  0  0  0  0  0  0
    1.4570   -2.4093   -3.5457 H   0  0  0  0  0  0  0  0  0  0  0  0
    1.2080   -0.6740   -3.8250 H   0  0  0  0  0  0  0  0  0  0  0  0
  1  2  1  0  0  0  0
  2  3  1  0  0  0  0
  2  4  1  0  0  0  0
  2  5  1  0  0  0  0
  5  6  2  0  0  0  0
  5  7  1  0  0  0  0
  7  8  1  0  0  0  0
  7  9  1  0  0  0  0
  9 10  1  0  0  0  0
  9 11  1  0  0  0  0
  9 15  1  0  0  0  0
 11 12  1  0  0  0  0
 11 13  1  0  0  0  0
 11 14  1  0  0  0  0
 15 16  2  0  0  0  0
 15 17  1  0  0  0  0
 17 18  1  0  0  0  0
 17 19  1  0  0  0  0
 19 20  1  0  0  0  0
 19 21  1  0  0  0  0
 19 22  1  0  0  0  0
M  END
$$$$

  -OEChem-11182114133D

 22 21  0     1  0  0  0  0  0999 V2000
   -2.8298   -3.5488    1.4024 H   0  0  0  0  0  0  0  0  0  0  0  0
   -2.7732   -2.5245    1.0226 C   0  0  0  0  0  0  0  0  0  0  0  0
   -3.2143   -1.8528    1.7629 H   0  0  0  0  0  0  0  0  0  0  0  0
   -3.3464   -2.4607    0.0946 H   0  0  0  0  0  0  0  0  0  0  0  0
   -1.3273   -2.1406    0.7686 C   0  0  0  0  0  0  0  0  0  0  0  0
   -0.4593   -2.9915    0.8511 O   0  0  0  0  0  0  0  0  0  0  0  0
   -1.0358   -0.8719    0.3045 N   0  0  0  0  0  0  0  0  0  0  0  0
   -1.8467   -0.2694    0.1925 H   0  0  0  0  0  0  0  0  0  0  0  0
    0.2789   -0.1864    0.3162 C   0  0  1  0  0  0  0  0  0  0  0  0
    0.0732    0.8561    0.5791 H   0  0  0  0  0  0  0  0  0  0  0  0
    1.2751   -0.6925    1.3712 C   0  0  0  0  0  0  0  0  0  0  0  0
    1.6863   -1.6669    1.0905 H   0  0  0  0  0  0  0  0  0  0  0  0
    2.1096    0.0099    1.4625 H   0  0  0  0  0  0  0  0  0  0  0  0
    0.7904   -0.7806    2.3480 H   0  0  0  0  0  0  0  0  0  0  0  0
    0.9316   -0.1455   -1.0792 C   0  0  0  0  0  0  0  0  0  0  0  0
    1.6502    0.7933   -1.3948 O   0  0  0  0  0  0  0  0  0  0  0  0
    0.6813   -1.1583   -1.9850 N   0  0  0  0  0  0  0  0  0  0  0  0
    0.2132   -1.9798   -1.6064 H   0  0  0  0  0  0  0  0  0  0  0  0
    1.3509   -1.2578   -3.2749 C   0  0  0  0  0  0  0  0  0  0  0  0
    2.4295   -1.3869   -3.1373 H   0  0  0  0  0  0  0  0  0  0  0  0
    0.9667   -2.1160   -3.8344 H   0  0  0  0  0  0  0  0  0  0  0  0
    1.1769   -0.3541   -3.8686 H   0  0  0  0  0  0  0  0  0  0  0  0
  1  2  1  0  0  0  0
  2  3  1  0  0  0  0
  2  4  1  0  0  0  0
  2  5  1  0  0  0  0
  5  6  2  0  0  0  0
  5  7  1  0  0  0  0
  7  8  1  0  0  0  0
  7  9  1  0  0  0  0
  9 10  1  0  0  0  0
  9 11  1  0  0  0  0
  9 15  1  0  0  0  0
 11 12  1  0  0  0  0
 11 13  1  0  0  0  0
 11 14  1  0  0  0  0
 15 16  2  0  0  0  0
 15 17  1  0  0  0  0
 17 18  1  0  0  0  0
 17 19  1  0  0  0  0
 19 20  1  0  0  0  0
 19 21  1  0  0  0  0
 19 22  1  0  0  0  0
M  END
$$$$

  -OEChem-11182114133D

 22 21  0     1  0  0  0  0  0999 V2000
   -2.8368   -3.5580    1.3995 H   0  0  0  0  0  0  0  0  0  0  0  0
   -2.7755   -2.5303    1.0298 C   0  0  0  0  0  0  0  0  0  0  0  0
   -3.2213   -1.8646    1.7728 H   0  0  0  0  0  0  0  0  0  0  0  0
   -3.3416   -2.4579    0.0981 H   0  0  0  0  0  0  0  0  0  0  0  0
   -1.3271   -2.1459    0.7902 C   0  0  0  0  0  0  0  0  0  0  0  0
   -0.4603   -2.9933    0.9047 O   0  0  0  0  0  0  0  0  0  0  0  0
   -1.0363   -0.8773    0.3226 N   0  0  0  0  0  0  0  0  0  0  0  0
   -1.8486   -0.2772    0.2099 H   0  0  0  0  0  0  0  0  0  0  0  0
    0.2786   -0.1891    0.3182 C   0  0  1  0  0  0  0  0  0  0  0  0
    0.0726    0.8530    0.5820 H   0  0  0  0  0  0  0  0  0  0  0  0
    1.2792   -0.6940    1.3707 C   0  0  0  0  0  0  0  0  0  0  0  0
    1.6930   -1.6658    1.0848 H   0  0  0  0  0  0  0  0  0  0  0  0
    2.1116    0.0107    1.4644 H   0  0  0  0  0  0  0  0  0  0  0  0
    0.7966   -0.7879    2.3480 H   0  0  0  0  0  0  0  0  0  0  0  0
    0.9293   -0.1395   -1.0806 C   0  0  0  0  0  0  0  0  0  0  0  0
    1.8230    0.6639   -1.3121 O   0  0  0  0  0  0  0  0  0  0  0  0
    0.4635   -0.9523   -2.0970 N   0  0  0  0  0  0  0  0  0  0  0  0
   -0.1523   -1.7074   -1.8054 H   0  0  0  0  0  0  0  0  0  0  0  0
    1.0968   -1.0267   -3.4074 C   0  0  0  0  0  0  0  0  0  0  0  0
    2.1201   -1.4057   -3.3168 H   0  0  0  0  0  0  0  0  0  0  0  0
    0.5330   -1.6984   -4.0619 H   0  0  0  0  0  0  0  0  0  0  0  0
    1.1280   -0.0371   -3.8755 H   0  0  0  0  0  0  0  0  0  0  0  0
  1  2  1  0  0  0  0
  2  3  1  0  0  0  0
  2  4  1  0  0  0  0
  2  5  1  0  0  0  0
  5  6  2  0  0  0  0
  5  7  1  0  0  0  0
  7  8  1  0  0  0  0
  7  9  1  0  0  0  0
  9 10  1  0  0  0  0
  9 11  1  0  0  0  0
  9 15  1  0  0  0  0
 11 12  1  0  0  0  0
 11 13  1  0  0  0  0
 11 14  1  0  0  0  0
 15 16  2  0  0  0  0
 15 17  1  0  0  0  0
 17 18  1  0  0  0  0
 17 19  1  0  0  0  0
 19 20  1  0  0  0  0
 19 21  1  0  0  0  0
 19 22  1  0  0  0  0
M  END
$$$$

  -OEChem-11182114133D

 22 21  0     1  0  0  0  0  0999 V2000
   -2.8281   -3.5584    1.4103 H   0  0  0  0  0  0  0  0  0  0  0  0
   -2.7683   -2.5366    1.0245 C   0  0  0  0  0  0  0  0  0  0  0  0
   -3.2203   -1.8609    1.7546 H   0  0  0  0  0  0  0  0  0  0  0  0
   -3.3295   -2.4811    0.0886 H   0  0  0  0  0  0  0  0  0  0  0  0
   -1.3197   -2.1518    0.7873 C   0  0  0  0  0  0  0  0  0  0  0  0
   -0.4539   -2.9980    0.9141 O   0  0  0  0  0  0  0  0  0  0  0  0
   -1.0309   -0.8796    0.3261 N   0  0  0  0  0  0  0  0  0  0  0  0
   -1.8434   -0.2763    0.2335 H   0  0  0  0  0  0  0  0  0  0  0  0
    0.2851   -0.1920    0.3216 C   0  0  1  0  0  0  0  0  0  0  0  0
    0.0789    0.8491    0.5880 H   0  0  0  0  0  0  0  0  0  0  0  0
    1.2817   -0.7003    1.3781 C   0  0  0  0  0  0  0  0  0  0  0  0
    1.7001   -1.6690    1.0876 H   0  0  0  0  0  0  0  0  0  0  0  0
    2.1120    0.0054    1.4823 H   0  0  0  0  0  0  0  0  0  0  0  0
    0.7938   -0.8025    2.3521 H   0  0  0  0  0  0  0  0  0  0  0  0
    0.9353   -0.1314   -1.0790 C   0  0  0  0  0  0  0  0  0  0  0  0
    1.9731    0.4945   -1.2501 O   0  0  0  0  0  0  0  0  0  0  0  0
    0.2947   -0.6874   -2.1708 N   0  0  0  0  0  0  0  0  0  0  0  0
   -0.4632   -1.3278   -1.9526 H   0  0  0  0  0  0  0  0  0  0  0  0
    0.8891   -0.7314   -3.5009 C   0  0  0  0  0  0  0  0  0  0  0  0
    1.8128   -1.3193   -3.4880 H   0  0  0  0  0  0  0  0  0  0  0  0
    0.1942   -1.1906   -4.2104 H   0  0  0  0  0  0  0  0  0  0  0  0
    1.1201    0.2798   -3.8521 H   0  0  0  0  0  0  0  0  0  0  0  0
  1  2  1  0  0  0  0
  2  3  1  0  0  0  0
  2  4  1  0  0  0  0
  2  5  1  0  0  0  0
  5  6  2  0  0  0  0
  5  7  1  0  0  0  0
  7  8  1  0  0  0  0
  7  9  1  0  0  0  0
  9 10  1  0  0  0  0
  9 11  1  0  0  0  0
  9 15  1  0  0  0  0
 11 12  1  0  0  0  0
 11 13  1  0  0  0  0
 11 14  1  0  0  0  0
 15 16  2  0  0  0  0
 15 17  1  0  0  0  0
 17 18  1  0  0  0  0
 17 19  1  0  0  0  0
 19 20  1  0  0  0  0
 19 21  1  0  0  0  0
 19 22  1  0  0  0  0
M  END
$$$$

  -OEChem-11182114133D

 22 21  0     1  0  0  0  0  0999 V2000
   -2.8185   -3.5619    1.3940 H   0  0  0  0  0  0  0  0  0  0  0  0
   -2.7577   -2.5427    1.0013 C   0  0  0  0  0  0  0  0  0  0  0  0
   -3.2225   -1.8632    1.7198 H   0  0  0  0  0  0  0  0  0  0  0  0
   -3.3054   -2.4965    0.0570 H   0  0  0  0  0  0  0  0  0  0  0  0
   -1.3077   -2.1542    0.7804 C   0  0  0  0  0  0  0  0  0  0  0  0
   -0.4422   -2.9978    0.9249 O   0  0  0  0  0  0  0  0  0  0  0  0
   -1.0192   -0.8789    0.3263 N   0  0  0  0  0  0  0  0  0  0  0  0
   -1.8317   -0.2739    0.2480 H   0  0  0  0  0  0  0  0  0  0  0  0
    0.2979   -0.1937    0.3263 C   0  0  1  0  0  0  0  0  0  0  0  0
    0.0920    0.8469    0.5941 H   0  0  0  0  0  0  0  0  0  0  0  0
    1.2862   -0.7018    1.3917 C   0  0  0  0  0  0  0  0  0  0  0  0
    1.7152   -1.6653    1.0994 H   0  0  0  0  0  0  0  0  0  0  0  0
    2.1097    0.0092    1.5107 H   0  0  0  0  0  0  0  0  0  0  0  0
    0.7881   -0.8146    2.3590 H   0  0  0  0  0  0  0  0  0  0  0  0
    0.9454   -0.1279   -1.0770 C   0  0  0  0  0  0  0  0  0  0  0  0
    2.0905    0.2809   -1.2180 O   0  0  0  0  0  0  0  0  0  0  0  0
    0.1862   -0.3890   -2.2032 N   0  0  0  0  0  0  0  0  0  0  0  0
   -0.6940   -0.8666   -2.0373 H   0  0  0  0  0  0  0  0  0  0  0  0
    0.7445   -0.3982   -3.5498 C   0  0  0  0  0  0  0  0  0  0  0  0
    1.5245   -1.1621   -3.6353 H   0  0  0  0  0  0  0  0  0  0  0  0
   -0.0384   -0.6170   -4.2822 H   0  0  0  0  0  0  0  0  0  0  0  0
    1.1789    0.5774   -3.7922 H   0  0  0  0  0  0  0  0  0  0  0  0
  1  2  1  0  0  0  0
  2  3  1  0  0  0  0
  2  4  1  0  0  0  0
  2  5  1  0  0  0  0
  5  6  2  0  0  0  0
  5  7  1  0  0  0  0
  7  8  1  0  0  0  0
  7  9  1  0  0  0  0
  9 10  1  0  0  0  0
  9 11  1  0  0  0  0
  9 15  1  0  0  0  0
 11 12  1  0  0  0  0
 11 13  1  0  0  0  0
 11 14  1  0  0  0  0
 15 16  2  0  0  0  0
 15 17  1  0  0  0  0
 17 18  1  0  0  0  0
 17 19  1  0  0  0  0
 19 20  1  0  0  0  0
 19 21  1  0  0  0  0
 19 22  1  0  0  0  0
M  END
$$$$

  -OEChem-11182114133D

 22 21  0     1  0  0  0  0  0999 V2000
   -2.8164   -3.5807    1.3441 H   0  0  0  0  0  0  0  0  0  0  0  0
   -2.7508   -2.5487    0.9873 C   0  0  0  0  0  0  0  0  0  0  0  0
   -3.2082   -1.8921    1.7314 H   0  0  0  0  0  0  0  0  0  0  0  0
   -3.3027   -2.4667    0.0479 H   0  0  0  0  0  0  0  0  0  0  0  0
   -1.2991   -2.1609    0.7740 C   0  0  0  0  0  0  0  0  0  0  0  0
   -0.4347   -3.0011    0.9427 O   0  0  0  0  0  0  0  0  0  0  0  0
   -1.0097   -0.8854    0.3192 N   0  0  0  0  0  0  0  0  0  0  0  0
   -1.8230   -0.2818    0.2450 H   0  0  0  0  0  0  0  0  0  0  0  0
    0.3071   -0.1996    0.3239 C   0  0  1  0  0  0  0  0  0  0  0  0
    0.0984    0.8422    0.5842 H   0  0  0  0  0  0  0  0  0  0  0  0
    1.2853   -0.6966    1.4046 C   0  0  0  0  0  0  0  0  0  0  0  0
    1.7132   -1.6657    1.1290 H   0  0  0  0  0  0  0  0  0  0  0  0
    2.1105    0.0131    1.5209 H   0  0  0  0  0  0  0  0  0  0  0  0
    0.7784   -0.7943    2.3691 H   0  0  0  0  0  0  0  0  0  0  0  0
    0.9573   -0.1374   -1.0797 C   0  0  0  0  0  0  0  0  0  0  0  0
    2.1617    0.0371   -1.2126 O   0  0  0  0  0  0  0  0  0  0  0  0
    0.1551   -0.0915   -2.2062 N   0  0  0  0  0  0  0  0  0  0  0  0
   -0.8106   -0.3739   -2.0766 H   0  0  0  0  0  0  0  0  0  0  0  0
    0.6924   -0.0366   -3.5607 C   0  0  0  0  0  0  0  0  0  0  0  0
    1.2888   -0.9302   -3.7727 H   0  0  0  0  0  0  0  0  0  0  0  0
   -0.1224    0.0189   -4.2889 H   0  0  0  0  0  0  0  0  0  0  0  0
    1.3260    0.8477   -3.6871 H   0  0  0  0  0  0  0  0  0  0  0  0
  1  2  1  0  0  0  0
  2  3  1  0  0  0  0
  2  4  1  0  0  0  0
  2  5  1  0  0  0  0
  5  6  2  0  0  0  0
  5  7  1  0  0  0  0
  7  8  1  0  0  0  0
  7  9  1  0  0  0  0
  9 10  1  0  0  0  0
  9 11  1  0  0  0  0
  9 15  1  0  0  0  0
 11 12  1  0  0  0  0
 11 13  1  0  0  0  0
 11 14  1  0  0  0  0
 15 16  2  0  0  0  0
 15 17  1  0  0  0  0
 17 18  1  0  0  0  0
 17 19  1  0  0  0  0
 19 20  1  0  0  0  0
 19 21  1  0  0  0  0
 19 22  1  0  0  0  0
M  END
$$$$

  -OEChem-11182114133D

 22 21  0     1  0  0  0  0  0999 V2000
   -2.8236   -3.5673    1.3419 H   0  0  0  0  0  0  0  0  0  0  0  0
   -2.7479   -2.5543    0.9359 C   0  0  0  0  0  0  0  0  0  0  0  0
   -3.2563   -1.8665    1.6157 H   0  0  0  0  0  0  0  0  0  0  0  0
   -3.2425   -2.5286   -0.0379 H   0  0  0  0  0  0  0  0  0  0  0  0
   -1.2903   -2.1588    0.7879 C   0  0  0  0  0  0  0  0  0  0  0  0
   -0.4322   -2.9908    1.0170 O   0  0  0  0  0  0  0  0  0  0  0  0
   -0.9918   -0.8843    0.3352 N   0  0  0  0  0  0  0  0  0  0  0  0
   -1.8056   -0.2891    0.2181 H   0  0  0  0  0  0  0  0  0  0  0  0
    0.3255   -0.2008    0.3355 C   0  0  1  0  0  0  0  0  0  0  0  0
    0.1210    0.8412    0.5982 H   0  0  0  0  0  0  0  0  0  0  0  0
    1.3075   -0.6978    1.4132 C   0  0  0  0  0  0  0  0  0  0  0  0
    1.7245   -1.6732    1.1432 H   0  0  0  0  0  0  0  0  0  0  0  0
    2.1404    0.0046    1.5155 H   0  0  0  0  0  0  0  0  0  0  0  0
    0.8074   -0.7826    2.3824 H   0  0  0  0  0  0  0  0  0  0  0  0
    0.9623   -0.1432   -1.0756 C   0  0  0  0  0  0  0  0  0  0  0  0
    2.1715   -0.2406   -1.2396 O   0  0  0  0  0  0  0  0  0  0  0  0
    0.1816    0.2135   -2.1616 N   0  0  0  0  0  0  0  0  0  0  0  0
   -0.8229    0.2001   -2.0259 H   0  0  0  0  0  0  0  0  0  0  0  0
    0.7049    0.3135   -3.5193 C   0  0  0  0  0  0  0  0  0  0  0  0
    1.0980   -0.6534   -3.8508 H   0  0  0  0  0  0  0  0  0  0  0  0
   -0.0868    0.6212   -4.2088 H   0  0  0  0  0  0  0  0  0  0  0  0
    1.5092    1.0553   -3.5665 H   0  0  0  0  0  0  0  0  0  0  0  0
  1  2  1  0  0  0  0
  2  3  1  0  0  0  0
  2  4  1  0  0  0  0
  2  5  1  0  0  0  0
  5  6  2  0  0  0  0
  5  7  1  0  0  0  0
  7  8  1  0  0  0  0
  7  9  1  0  0  0  0
  9 10  1  0  0  0  0
  9 11  1  0  0  0  0
  9 15  1  0  0  0  0
 11 12  1  0  0  0  0
 11 13  1  0  0  0  0
 11 14  1  0  0  0  0
 15 16  2  0  0  0  0
 15 17  1  0  0  0  0
 17 18  1  0  0  0  0
 17 19  1  0  0  0  0
 19 20  1  0  0  0  0
 19 21  1  0  0  0  0
 19 22  1  0  0  0  0
M  END
$$$$

  -OEChem-11182114133D

 22 21  0     1  0  0  0  0  0999 V2000
   -2.8459   -3.5660    1.2835 H   0  0  0  0  0  0  0  0  0  0  0  0
   -2.7474   -2.5640    0.8558 C   0  0  0  0  0  0  0  0  0  0  0  0
   -3.3340   -1.8674    1.4592 H   0  0  0  0  0  0  0  0  0  0  0  0
   -3.1418   -2.5777   -0.1630 H   0  0  0  0  0  0  0  0  0  0  0  0
   -1.2893   -2.1426    0.8422 C   0  0  0  0  0  0  0  0  0  0  0  0
   -0.4507   -2.9438    1.2105 O   0  0  0  0  0  0  0  0  0  0  0  0
   -0.9733   -0.8744    0.3813 N   0  0  0  0  0  0  0  0  0  0  0  0
   -1.7779   -0.3159    0.1172 H   0  0  0  0  0  0  0  0  0  0  0  0
    0.3471   -0.1971    0.3584 C   0  0  1  0  0  0  0  0  0  0  0  0
    0.1550    0.8466    0.6237 H   0  0  0  0  0  0  0  0  0  0  0  0
    1.3503   -0.6937    1.4160 C   0  0  0  0  0  0  0  0  0  0  0  0
    1.7390   -1.6831    1.1545 H   0  0  0  0  0  0  0  0  0  0  0  0
    2.1997   -0.0066    1.4797 H   0  0  0  0  0  0  0  0  0  0  0  0
    0.8763   -0.7496    2.4005 H   0  0  0  0  0  0  0  0  0  0  0  0
    0.9553   -0.1550   -1.0663 C   0  0  0  0  0  0  0  0  0  0  0  0
    2.0849   -0.5604   -1.3061 O   0  0  0  0  0  0  0  0  0  0  0  0
    0.2651    0.4871   -2.0807 N   0  0  0  0  0  0  0  0  0  0  0  0
   -0.6675    0.8262   -1.8742 H   0  0  0  0  0  0  0  0  0  0  0  0
    0.7825    0.6259   -3.4374 C   0  0  0  0  0  0  0  0  0  0  0  0
    0.9508   -0.3592   -3.8855 H   0  0  0  0  0  0  0  0  0  0  0  0
    0.0686    1.1723   -4.0610 H   0  0  0  0  0  0  0  0  0  0  0  0
    1.7288    1.1772   -3.4327 H   0  0  0  0  0  0  0  0  0  0  0  0
  1  2  1  0  0  0  0
  2  3  1  0  0  0  0
  2  4  1  0  0  0  0
  2  5  1  0  0  0  0
  5  6  2  0  0  0  0
  5  7  1  0  0  0  0
  7  8  1  0  0  0  0
  7  9  1  0  0  0  0
  9 10  1  0  0  0  0
  9 11  1  0  0  0  0
  9 15  1  0  0  0  0
 11 12  1  0  0  0  0
 11 13  1  0  0  0  0
 11 14  1  0  0  0  0
 15 16  2  0  0  0  0
 15 17  1  0  0  0  0
 17 18  1  0  0  0  0
 17 19  1  0  0  0  0
 19 20  1  0  0  0  0
 19 21  1  0  0  0  0
 19 22  1  0  0  0  0
M  END
$$$$

  -OEChem-11182114133D

 22 21  0     1  0  0  0  0  0999 V2000
   -2.8501   -3.5732    1.1770 H   0  0  0  0  0  0  0  0  0  0  0  0
   -2.7351   -2.5657    0.7667 C   0  0  0  0  0  0  0  0  0  0  0  0
   -3.3995   -1.8888    1.3089 H   0  0  0  0  0  0  0  0  0  0  0  0
   -3.0209   -2.5825   -0.2876 H   0  0  0  0  0  0  0  0  0  0  0  0
   -1.2959   -2.1048    0.9075 C   0  0  0  0  0  0  0  0  0  0  0  0
   -0.4961   -2.8589    1.4302 O   0  0  0  0  0  0  0  0  0  0  0  0
   -0.9637   -0.8432    0.4391 N   0  0  0  0  0  0  0  0  0  0  0  0
   -1.7321   -0.3522   -0.0059 H   0  0  0  0  0  0  0  0  0  0  0  0
    0.3637   -0.1828    0.3918 C   0  0  1  0  0  0  0  0  0  0  0  0
    0.1936    0.8620    0.6670 H   0  0  0  0  0  0  0  0  0  0  0  0
    1.3959   -0.6950    1.4127 C   0  0  0  0  0  0  0  0  0  0  0  0
    1.7401   -1.7017    1.1545 H   0  0  0  0  0  0  0  0  0  0  0  0
    2.2691   -0.0357    1.4278 H   0  0  0  0  0  0  0  0  0  0  0  0
    0.9631   -0.7186    2.4172 H   0  0  0  0  0  0  0  0  0  0  0  0
    0.9323   -0.1592   -1.0483 C   0  0  0  0  0  0  0  0  0  0  0  0
    1.8716   -0.8622   -1.3948 O   0  0  0  0  0  0  0  0  0  0  0  0
    0.4054    0.7320   -1.9681 N   0  0  0  0  0  0  0  0  0  0  0  0
   -0.3200    1.3654   -1.6495 H   0  0  0  0  0  0  0  0  0  0  0  0
    0.9227    0.8793   -3.3242 C   0  0  0  0  0  0  0  0  0  0  0  0
    0.8812   -0.0770   -3.8569 H   0  0  0  0  0  0  0  0  0  0  0  0
    0.3262    1.6088   -3.8804 H   0  0  0  0  0  0  0  0  0  0  0  0
    1.9615    1.2255   -3.3025 H   0  0  0  0  0  0  0  0  0  0  0  0
  1  2  1  0  0  0  0
  2  3  1  0  0  0  0
  2  4  1  0  0  0  0
  2  5  1  0  0  0  0
  5  6  2  0  0  0  0
  5  7  1  0  0  0  0
  7  8  1  0  0  0  0
  7  9  1  0  0  0  0
  9 10  1  0  0  0  0
  9 11  1  0  0  0  0
  9 15  1  0  0  0  0
 11 12  1  0  0  0  0
 11 13  1  0  0  0  0
 11 14  1  0  0  0  0
 15 16  2  0  0  0  0
 15 17  1  0  0  0  0
 17 18  1  0  0  0  0
 17 19  1  0  0  0  0
 19 20  1  0  0  0  0
 19 21  1  0  0  0  0
 19 22  1  0  0  0  0
M  END
$$$$

  -OEChem-11182114133D

 22 21  0     1  0  0  0  0  0999 V2000
   -2.8262   -3.5790    1.0865 H   0  0  0  0  0  0  0  0  0  0  0  0
   -2.7054   -2.5691    0.6839 C   0  0  0  0  0  0  0  0  0  0  0  0
   -3.4365   -1.9115    1.1601 H   0  0  0  0  0  0  0  0  0  0  0  0
   -2.8933   -2.5975   -0.3921 H   0  0  0  0  0  0  0  0  0  0  0  0
   -1.2995   -2.0632    0.9518 C   0  0  0  0  0  0  0  0  0  0  0  0
   -0.5418   -2.7725    1.5886 O   0  0  0  0  0  0  0  0  0  0  0  0
   -0.9603   -0.8020    0.4870 N   0  0  0  0  0  0  0  0  0  0  0  0
   -1.6911   -0.3619   -0.0630 H   0  0  0  0  0  0  0  0  0  0  0  0
    0.3737   -0.1573    0.4332 C   0  0  1  0  0  0  0  0  0  0  0  0
    0.2208    0.8849    0.7272 H   0  0  0  0  0  0  0  0  0  0  0  0
    1.4256   -0.6990    1.4162 C   0  0  0  0  0  0  0  0  0  0  0  0
    1.7325   -1.7140    1.1435 H   0  0  0  0  0  0  0  0  0  0  0  0
    2.3160   -0.0635    1.4038 H   0  0  0  0  0  0  0  0  0  0  0  0
    1.0263   -0.7141    2.4348 H   0  0  0  0  0  0  0  0  0  0  0  0
    0.9222   -0.1354   -1.0131 C   0  0  0  0  0  0  0  0  0  0  0  0
    1.5766   -1.0600   -1.4743 O   0  0  0  0  0  0  0  0  0  0  0  0
    0.6382    0.9453   -1.8305 N   0  0  0  0  0  0  0  0  0  0  0  0
    0.1344    1.7266   -1.4233 H   0  0  0  0  0  0  0  0  0  0  0  0
    1.1245    1.0591   -3.2010 C   0  0  0  0  0  0  0  0  0  0  0  0
    0.7834    0.2089   -3.8010 H   0  0  0  0  0  0  0  0  0  0  0  0
    0.7489    1.9779   -3.6616 H   0  0  0  0  0  0  0  0  0  0  0  0
    2.2191    1.0853   -3.2179 H   0  0  0  0  0  0  0  0  0  0  0  0
  1  2  1  0  0  0  0
  2  3  1  0  0  0  0
  2  4  1  0  0  0  0
  2  5  1  0  0  0  0
  5  6  2  0  0  0  0
  5  7  1  0  0  0  0
  7  8  1  0  0  0  0
  7  9  1  0  0  0  0
  9 10  1  0  0  0  0
  9 11  1  0  0  0  0
  9 15  1  0  0  0  0
 11 12  1  0  0  0  0
 11 13  1  0  0  0  0
 11 14  1  0  0  0  0
 15 16  2  0  0  0  0
 15 17  1  0  0  0  0
 17 18  1  0  0  0  0
 17 19  1  0  0  0  0
 19 20  1  0  0  0  0
 19 21  1  0  0  0  0
 19 22  1  0  0  0  0
M  END
$$$$

  -OEChem-11182114133D

 22 21  0     1  0  0  0  0  0999 V2000
   -2.8014   -3.5874    1.0374 H   0  0  0  0  0  0  0  0  0  0  0  0
   -2.6843   -2.5739    0.6428 C   0  0  0  0  0  0  0  0  0  0  0  0
   -3.4527   -1.9340    1.0831 H   0  0  0  0  0  0  0  0  0  0  0  0
   -2.8183   -2.6037   -0.4413 H   0  0  0  0  0  0  0  0  0  0  0  0
   -1.3051   -2.0368    0.9793 C   0  0  0  0  0  0  0  0  0  0  0  0
   -0.5734   -2.7175    1.6762 O   0  0  0  0  0  0  0  0  0  0  0  0
   -0.9661   -0.7748    0.5167 N   0  0  0  0  0  0  0  0  0  0  0  0
   -1.6706   -0.3684   -0.0909 H   0  0  0  0  0  0  0  0  0  0  0  0
    0.3727   -0.1407    0.4617 C   0  0  1  0  0  0  0  0  0  0  0  0
    0.2282    0.8990    0.7685 H   0  0  0  0  0  0  0  0  0  0  0  0
    1.4364   -0.7043    1.4171 C   0  0  0  0  0  0  0  0  0  0  0  0
    1.7254   -1.7192    1.1248 H   0  0  0  0  0  0  0  0  0  0  0  0
    2.3333   -0.0783    1.3960 H   0  0  0  0  0  0  0  0  0  0  0  0
    1.0567   -0.7273    2.4431 H   0  0  0  0  0  0  0  0  0  0  0  0
    0.9176   -0.1163   -0.9848 C   0  0  0  0  0  0  0  0  0  0  0  0
    1.2549   -1.1432   -1.5572 O   0  0  0  0  0  0  0  0  0  0  0  0
    0.9228    1.0705   -1.6972 N   0  0  0  0  0  0  0  0  0  0  0  0
    0.6655    1.9193   -1.2033 H   0  0  0  0  0  0  0  0  0  0  0  0
    1.3974    1.1736   -3.0726 C   0  0  0  0  0  0  0  0  0  0  0  0
    0.8336    0.4986   -3.7253 H   0  0  0  0  0  0  0  0  0  0  0  0
    1.2690    2.1956   -3.4421 H   0  0  0  0  0  0  0  0  0  0  0  0
    2.4598    0.9142   -3.1312 H   0  0  0  0  0  0  0  0  0  0  0  0
  1  2  1  0  0  0  0
  2  3  1  0  0  0  0
  2  4  1  0  0  0  0
  2  5  1  0  0  0  0
  5  6  2  0  0  0  0
  5  7  1  0  0  0  0
  7  8  1  0  0  0  0
  7  9  1  0  0  0  0
  9 10  1  0  0  0  0
  9 11  1  0  0  0  0
  9 15  1  0  0  0  0
 11 12  1  0  0  0  0
 11 13  1  0  0  0  0
 11 14  1  0  0  0  0
 15 16  2  0  0  0  0
 15 17  1  0  0  0  0
 17 18  1  0  0  0  0
 17 19  1  0  0  0  0
 19 20  1  0  0  0  0
 19 21  1  0  0  0  0
 19 22  1  0  0  0  0
M  END
$$$$

  -OEChem-11182114133D

 22 21  0     1  0  0  0  0  0999 V2000
   -2.7957   -3.5769    1.0479 H   0  0  0  0  0  0  0  0  0  0  0  0
   -2.6633   -2.5822    0.6126 C   0  0  0  0  0  0  0  0  0  0  0  0
   -3.4587   -1.9291    0.9792 H   0  0  0  0  0  0  0  0  0  0  0  0
   -2.7367   -2.6637   -0.4747 H   0  0  0  0  0  0  0  0  0  0  0  0
   -1.3082   -2.0185    0.9985 C   0  0  0  0  0  0  0  0  0  0  0  0
   -0.5962   -2.6773    1.7368 O   0  0  0  0  0  0  0  0  0  0  0  0
   -0.9692   -0.7570    0.5355 N   0  0  0  0  0  0  0  0  0  0  0  0
   -1.6463   -0.3825   -0.1221 H   0  0  0  0  0  0  0  0  0  0  0  0
    0.3734   -0.1324    0.4828 C   0  0  1  0  0  0  0  0  0  0  0  0
    0.2312    0.9070    0.7914 H   0  0  0  0  0  0  0  0  0  0  0  0
    1.4388   -0.7055    1.4289 C   0  0  0  0  0  0  0  0  0  0  0  0
    1.7133   -1.7235    1.1334 H   0  0  0  0  0  0  0  0  0  0  0  0
    2.3422   -0.0892    1.4013 H   0  0  0  0  0  0  0  0  0  0  0  0
    1.0672   -0.7242    2.4581 H   0  0  0  0  0  0  0  0  0  0  0  0
    0.9229   -0.1086   -0.9612 C   0  0  0  0  0  0  0  0  0  0  0  0
    0.9457   -1.1236   -1.6441 O   0  0  0  0  0  0  0  0  0  0  0  0
    1.2322    1.0997   -1.5610 N   0  0  0  0  0  0  0  0  0  0  0  0
    1.2139    1.9333   -0.9816 H   0  0  0  0  0  0  0  0  0  0  0  0
    1.6919    1.2123   -2.9406 C   0  0  0  0  0  0  0  0  0  0  0  0
    0.9348    0.8240   -3.6302 H   0  0  0  0  0  0  0  0  0  0  0  0
    1.8815    2.2604   -3.1915 H   0  0  0  0  0  0  0  0  0  0  0  0
    2.6201    0.6487   -3.0830 H   0  0  0  0  0  0  0  0  0  0  0  0
  1  2  1  0  0  0  0
  2  3  1  0  0  0  0
  2  4  1  0  0  0  0
  2  5  1  0  0  0  0
  5  6  2  0  0  0  0
  5  7  1  0  0  0  0
  7  8  1  0  0  0  0
  7  9  1  0  0  0  0
  9 10  1  0  0  0  0
  9 11  1  0  0  0  0
  9 15  1  0  0  0  0
 11 12  1  0  0  0  0
 11 13  1  0  0  0  0
 11 14  1  0  0  0  0
 15 16  2  0  0  0  0
 15 17  1  0  0  0  0
 17 18  1  0  0  0  0
 17 19  1  0  0  0  0
 19 20  1  0  0  0  0
 19 21  1  0  0  0  0
 19 22  1  0  0  0  0
M  END
$$$$

  -OEChem-11182114133D

 22 21  0     1  0  0  0  0  0999 V2000
   -2.7871   -3.5825    1.0298 H   0  0  0  0  0  0  0  0  0  0  0  0
   -2.6555   -2.5854    0.5999 C   0  0  0  0  0  0  0  0  0  0  0  0
   -3.4659   -1.9415    0.9498 H   0  0  0  0  0  0  0  0  0  0  0  0
   -2.7038   -2.6647   -0.4891 H   0  0  0  0  0  0  0  0  0  0  0  0
   -1.3152   -2.0076    1.0160 C   0  0  0  0  0  0  0  0  0  0  0  0
   -0.6149   -2.6545    1.7763 O   0  0  0  0  0  0  0  0  0  0  0  0
   -0.9734   -0.7487    0.5490 N   0  0  0  0  0  0  0  0  0  0  0  0
   -1.6297   -0.3993   -0.1432 H   0  0  0  0  0  0  0  0  0  0  0  0
    0.3727   -0.1305    0.4945 C   0  0  1  0  0  0  0  0  0  0  0  0
    0.2324    0.9109    0.7979 H   0  0  0  0  0  0  0  0  0  0  0  0
    1.4366   -0.7057    1.4414 C   0  0  0  0  0  0  0  0  0  0  0  0
    1.7030   -1.7271    1.1502 H   0  0  0  0  0  0  0  0  0  0  0  0
    2.3442   -0.0958    1.4091 H   0  0  0  0  0  0  0  0  0  0  0  0
    1.0674   -0.7161    2.4717 H   0  0  0  0  0  0  0  0  0  0  0  0
    0.9285   -0.1100   -0.9480 C   0  0  0  0  0  0  0  0  0  0  0  0
    0.6858   -1.0223   -1.7278 O   0  0  0  0  0  0  0  0  0  0  0  0
    1.5326    1.0348   -1.4379 N   0  0  0  0  0  0  0  0  0  0  0  0
    1.7202    1.7872   -0.7821 H   0  0  0  0  0  0  0  0  0  0  0  0
    2.0036    1.1648   -2.8122 C   0  0  0  0  0  0  0  0  0  0  0  0
    1.1721    1.0477   -3.5152 H   0  0  0  0  0  0  0  0  0  0  0  0
    2.4500    2.1516   -2.9679 H   0  0  0  0  0  0  0  0  0  0  0  0
    2.7603    0.4042   -3.0320 H   0  0  0  0  0  0  0  0  0  0  0  0
  1  2  1  0  0  0  0
  2  3  1  0  0  0  0
  2  4  1  0  0  0  0
  2  5  1  0  0  0  0
  5  6  2  0  0  0  0
  5  7  1  0  0  0  0
  7  8  1  0  0  0  0
  7  9  1  0  0  0  0
  9 10  1  0  0  0  0
  9 11  1  0  0  0  0
  9 15  1  0  0  0  0
 11 12  1  0  0  0  0
 11 13  1  0  0  0  0
 11 14  1  0  0  0  0
 15 16  2  0  0  0  0
 15 17  1  0  0  0  0
 17 18  1  0  0  0  0
 17 19  1  0  0  0  0
 19 20  1  0  0  0  0
 19 21  1  0  0  0  0
 19 22  1  0  0  0  0
M  END
$$$$

  -OEChem-11182114133D

 22 21  0     1  0  0  0  0  0999 V2000
   -2.7973   -3.5801    1.0514 H   0  0  0  0  0  0  0  0  0  0  0  0
   -2.6630   -2.5868    0.6139 C   0  0  0  0  0  0  0  0  0  0  0  0
   -3.4663   -1.9354    0.9660 H   0  0  0  0  0  0  0  0  0  0  0  0
   -2.7206   -2.6722   -0.4741 H   0  0  0  0  0  0  0  0  0  0  0  0
   -1.3164   -2.0141    1.0158 C   0  0  0  0  0  0  0  0  0  0  0  0
   -0.6055   -2.6676    1.7606 O   0  0  0  0  0  0  0  0  0  0  0  0
   -0.9752   -0.7567    0.5457 N   0  0  0  0  0  0  0  0  0  0  0  0
   -1.6239   -0.4170   -0.1592 H   0  0  0  0  0  0  0  0  0  0  0  0
    0.3689   -0.1348    0.4910 C   0  0  1  0  0  0  0  0  0  0  0  0
    0.2223    0.9089    0.7837 H   0  0  0  0  0  0  0  0  0  0  0  0
    1.4284   -0.6981    1.4505 C   0  0  0  0  0  0  0  0  0  0  0  0
    1.7127   -1.7148    1.1602 H   0  0  0  0  0  0  0  0  0  0  0  0
    2.3283   -0.0763    1.4344 H   0  0  0  0  0  0  0  0  0  0  0  0
    1.0451   -0.7166    2.4755 H   0  0  0  0  0  0  0  0  0  0  0  0
    0.9322   -0.1151   -0.9493 C   0  0  0  0  0  0  0  0  0  0  0  0
    0.4811   -0.8596   -1.8116 O   0  0  0  0  0  0  0  0  0  0  0  0
    1.7969    0.8944   -1.3338 N   0  0  0  0  0  0  0  0  0  0  0  0
    2.1589    1.5046   -0.6073 H   0  0  0  0  0  0  0  0  0  0  0  0
    2.3122    1.0347   -2.6909 C   0  0  0  0  0  0  0  0  0  0  0  0
    1.4913    1.1868   -3.3997 H   0  0  0  0  0  0  0  0  0  0  0  0
    2.9844    1.8960   -2.7522 H   0  0  0  0  0  0  0  0  0  0  0  0
    2.8698    0.1390   -2.9843 H   0  0  0  0  0  0  0  0  0  0  0  0
  1  2  1  0  0  0  0
  2  3  1  0  0  0  0
  2  4  1  0  0  0  0
  2  5  1  0  0  0  0
  5  6  2  0  0  0  0
  5  7  1  0  0  0  0
  7  8  1  0  0  0  0
  7  9  1  0  0  0  0
  9 10  1  0  0  0  0
  9 11  1  0  0  0  0
  9 15  1  0  0  0  0
 11 12  1  0  0  0  0
 11 13  1  0  0  0  0
 11 14  1  0  0  0  0
 15 16  2  0  0  0  0
 15 17  1  0  0  0  0
 17 18  1  0  0  0  0
 17 19  1  0  0  0  0
 19 20  1  0  0  0  0
 19 21  1  0  0  0  0
 19 22  1  0  0  0  0
M  END
$$$$

  -OEChem-11182114133D

 22 21  0     1  0  0  0  0  0999 V2000
   -2.7978   -3.5825    1.0390 H   0  0  0  0  0  0  0  0  0  0  0  0
   -2.6633   -2.5850    0.6112 C   0  0  0  0  0  0  0  0  0  0  0  0
   -3.4634   -1.9354    0.9740 H   0  0  0  0  0  0  0  0  0  0  0  0
   -2.7267   -2.6589   -0.4773 H   0  0  0  0  0  0  0  0  0  0  0  0
   -1.3135   -2.0191    1.0120 C   0  0  0  0  0  0  0  0  0  0  0  0
   -0.5939   -2.6865    1.7360 O   0  0  0  0  0  0  0  0  0  0  0  0
   -0.9698   -0.7609    0.5467 N   0  0  0  0  0  0  0  0  0  0  0  0
   -1.6135   -0.4192   -0.1627 H   0  0  0  0  0  0  0  0  0  0  0  0
    0.3716   -0.1331    0.4999 C   0  0  1  0  0  0  0  0  0  0  0  0
    0.2210    0.9118    0.7861 H   0  0  0  0  0  0  0  0  0  0  0  0
    1.4203   -0.6905    1.4761 C   0  0  0  0  0  0  0  0  0  0  0  0
    1.7229   -1.7013    1.1838 H   0  0  0  0  0  0  0  0  0  0  0  0
    2.3120   -0.0573    1.4856 H   0  0  0  0  0  0  0  0  0  0  0  0
    1.0165   -0.7221    2.4929 H   0  0  0  0  0  0  0  0  0  0  0  0
    0.9375   -0.1128   -0.9403 C   0  0  0  0  0  0  0  0  0  0  0  0
    0.3330   -0.6579   -1.8571 O   0  0  0  0  0  0  0  0  0  0  0  0
    2.0200    0.6915   -1.2502 N   0  0  0  0  0  0  0  0  0  0  0  0
    2.5110    1.1350   -0.4798 H   0  0  0  0  0  0  0  0  0  0  0  0
    2.5656    0.8143   -2.5969 C   0  0  0  0  0  0  0  0  0  0  0  0
    1.8115    1.2164   -3.2817 H   0  0  0  0  0  0  0  0  0  0  0  0
    3.4260    1.4903   -2.5965 H   0  0  0  0  0  0  0  0  0  0  0  0
    2.8930   -0.1628   -2.9676 H   0  0  0  0  0  0  0  0  0  0  0  0
  1  2  1  0  0  0  0
  2  3  1  0  0  0  0
  2  4  1  0  0  0  0
  2  5  1  0  0  0  0
  5  6  2  0  0  0  0
  5  7  1  0  0  0  0
  7  8  1  0  0  0  0
  7  9  1  0  0  0  0
  9 10  1  0  0  0  0
  9 11  1  0  0  0  0
  9 15  1  0  0  0  0
 11 12  1  0  0  0  0
 11 13  1  0  0  0  0
 11 14  1  0  0  0  0
 15 16  2  0  0  0  0
 15 17  1  0  0  0  0
 17 18  1  0  0  0  0
 17 19  1  0  0  0  0
 19 20  1  0  0  0  0
 19 21  1  0  0  0  0
 19 22  1  0  0  0  0
M  END
$$$$

  -OEChem-11182114133D

 22 21  0     1  0  0  0  0  0999 V2000
   -2.8126   -3.5709    0.9705 H   0  0  0  0  0  0  0  0  0  0  0  0
   -2.6713   -2.5567    0.5863 C   0  0  0  0  0  0  0  0  0  0  0  0
   -3.4658   -1.9175    0.9786 H   0  0  0  0  0  0  0  0  0  0  0  0
   -2.7375   -2.5824   -0.5042 H   0  0  0  0  0  0  0  0  0  0  0  0
   -1.3169   -2.0185    1.0090 C   0  0  0  0  0  0  0  0  0  0  0  0
   -0.6242   -2.6990    1.7467 O   0  0  0  0  0  0  0  0  0  0  0  0
   -0.9432   -0.7653    0.5547 N   0  0  0  0  0  0  0  0  0  0  0  0
   -1.5753   -0.4010   -0.1570 H   0  0  0  0  0  0  0  0  0  0  0  0
    0.3962   -0.1312    0.5251 C   0  0  1  0  0  0  0  0  0  0  0  0
    0.3153    0.8155    1.0675 H   0  0  0  0  0  0  0  0  0  0  0  0
    1.5343   -0.9280    1.1889 C   0  0  0  0  0  0  0  0  0  0  0  0
    1.6773   -1.8895    0.6849 H   0  0  0  0  0  0  0  0  0  0  0  0
    2.4761   -0.3740    1.1476 H   0  0  0  0  0  0  0  0  0  0  0  0
    1.3068   -1.1112    2.2436 H   0  0  0  0  0  0  0  0  0  0  0  0
    0.7814    0.2157   -0.9353 C   0  0  0  0  0  0  0  0  0  0  0  0
   -0.0367    0.0711   -1.8383 O   0  0  0  0  0  0  0  0  0  0  0  0
    1.9916    0.8185   -1.2305 N   0  0  0  0  0  0  0  0  0  0  0  0
    2.6585    0.9289   -0.4726 H   0  0  0  0  0  0  0  0  0  0  0  0
    2.3907    1.1968   -2.5811 C   0  0  0  0  0  0  0  0  0  0  0  0
    1.6747    1.9067   -3.0088 H   0  0  0  0  0  0  0  0  0  0  0  0
    3.3771    1.6702   -2.5657 H   0  0  0  0  0  0  0  0  0  0  0  0
    2.4402    0.3136   -3.2267 H   0  0  0  0  0  0  0  0  0  0  0  0
  1  2  1  0  0  0  0
  2  3  1  0  0  0  0
  2  4  1  0  0  0  0
  2  5  1  0  0  0  0
  5  6  2  0  0  0  0
  5  7  1  0  0  0  0
  7  8  1  0  0  0  0
  7  9  1  0  0  0  0
  9 10  1  0  0  0  0
  9 11  1  0  0  0  0
  9 15  1  0  0  0  0
 11 12  1  0  0  0  0
 11 13  1  0  0  0  0
 11 14  1  0  0  0  0
 15 16  2  0  0  0  0
 15 17  1  0  0  0  0
 17 18  1  0  0  0  0
 17 19  1  0  0  0  0
 19 20  1  0  0  0  0
 19 21  1  0  0  0  0
 19 22  1  0  0  0  0
M  END
$$$$

  -OEChem-11182114133D

 22 21  0     1  0  0  0  0  0999 V2000
   -2.8311   -3.5673    0.9663 H   0  0  0  0  0  0  0  0  0  0  0  0
   -2.6865   -2.5486    0.5953 C   0  0  0  0  0  0  0  0  0  0  0  0
   -3.4530   -1.9030    1.0307 H   0  0  0  0  0  0  0  0  0  0  0  0
   -2.7970   -2.5524   -0.4920 H   0  0  0  0  0  0  0  0  0  0  0  0
   -1.3070   -2.0419    0.9748 C   0  0  0  0  0  0  0  0  0  0  0  0
   -0.5945   -2.7536    1.6623 O   0  0  0  0  0  0  0  0  0  0  0  0
   -0.9285   -0.7866    0.5302 N   0  0  0  0  0  0  0  0  0  0  0  0
   -1.5763   -0.3887   -0.1487 H   0  0  0  0  0  0  0  0  0  0  0  0
    0.4045   -0.1397    0.5218 C   0  0  1  0  0  0  0  0  0  0  0  0
    0.3006    0.8109    1.0537 H   0  0  0  0  0  0  0  0  0  0  0  0
    1.5322   -0.9122    1.2306 C   0  0  0  0  0  0  0  0  0  0  0  0
    1.7254   -1.8639    0.7249 H   0  0  0  0  0  0  0  0  0  0  0  0
    2.4575   -0.3297    1.2412 H   0  0  0  0  0  0  0  0  0  0  0  0
    1.2604   -1.1130    2.2715 H   0  0  0  0  0  0  0  0  0  0  0  0
    0.8013    0.2083   -0.9359 C   0  0  0  0  0  0  0  0  0  0  0  0
   -0.0675    0.2779   -1.7997 O   0  0  0  0  0  0  0  0  0  0  0  0
    2.1018    0.5353   -1.2794 N   0  0  0  0  0  0  0  0  0  0  0  0
    2.8136    0.4417   -0.5611 H   0  0  0  0  0  0  0  0  0  0  0  0
    2.5123    0.8676   -2.6387 C   0  0  0  0  0  0  0  0  0  0  0  0
    1.9459    1.7276   -3.0119 H   0  0  0  0  0  0  0  0  0  0  0  0
    3.5766    1.1211   -2.6611 H   0  0  0  0  0  0  0  0  0  0  0  0
    2.3440    0.0172   -3.3079 H   0  0  0  0  0  0  0  0  0  0  0  0
  1  2  1  0  0  0  0
  2  3  1  0  0  0  0
  2  4  1  0  0  0  0
  2  5  1  0  0  0  0
  5  6  2  0  0  0  0
  5  7  1  0  0  0  0
  7  8  1  0  0  0  0
  7  9  1  0  0  0  0
  9 10  1  0  0  0  0
  9 11  1  0  0  0  0
  9 15  1  0  0  0  0
 11 12  1  0  0  0  0
 11 13  1  0  0  0  0
 11 14  1  0  0  0  0
 15 16  2  0  0  0  0
 15 17  1  0  0  0  0
 17 18  1  0  0  0  0
 17 19  1  0  0  0  0
 19 20  1  0  0  0  0
 19 21  1  0  0  0  0
 19 22  1  0  0  0  0
M  END
$$$$

  -OEChem-11182114133D

 22 21  0     1  0  0  0  0  0999 V2000
   -2.8418   -3.5621    0.9726 H   0  0  0  0  0  0  0  0  0  0  0  0
   -2.6933   -2.5440    0.6013 C   0  0  0  0  0  0  0  0  0  0  0  0
   -3.4413   -1.8907    1.0569 H   0  0  0  0  0  0  0  0  0  0  0  0
   -2.8297   -2.5425   -0.4829 H   0  0  0  0  0  0  0  0  0  0  0  0
   -1.2987   -2.0563    0.9485 C   0  0  0  0  0  0  0  0  0  0  0  0
   -0.5696   -2.7888    1.5955 O   0  0  0  0  0  0  0  0  0  0  0  0
   -0.9184   -0.8004    0.5080 N   0  0  0  0  0  0  0  0  0  0  0  0
   -1.5847   -0.3712   -0.1328 H   0  0  0  0  0  0  0  0  0  0  0  0
    0.4100   -0.1459    0.5155 C   0  0  1  0  0  0  0  0  0  0  0  0
    0.2890    0.8090    1.0356 H   0  0  0  0  0  0  0  0  0  0  0  0
    1.5298   -0.8957    1.2607 C   0  0  0  0  0  0  0  0  0  0  0  0
    1.7522   -1.8490    0.7703 H   0  0  0  0  0  0  0  0  0  0  0  0
    2.4439   -0.2959    1.2898 H   0  0  0  0  0  0  0  0  0  0  0  0
    1.2325   -1.0922    2.2956 H   0  0  0  0  0  0  0  0  0  0  0  0
    0.8179    0.1989   -0.9389 C   0  0  0  0  0  0  0  0  0  0  0  0
   -0.0560    0.4820   -1.7518 O   0  0  0  0  0  0  0  0  0  0  0  0
    2.1401    0.2365   -1.3466 N   0  0  0  0  0  0  0  0  0  0  0  0
    2.8428   -0.0655   -0.6784 H   0  0  0  0  0  0  0  0  0  0  0  0
    2.5477    0.5210   -2.7173 C   0  0  0  0  0  0  0  0  0  0  0  0
    2.1770    1.5023   -3.0321 H   0  0  0  0  0  0  0  0  0  0  0  0
    3.6392    0.5246   -2.7944 H   0  0  0  0  0  0  0  0  0  0  0  0
    2.1541   -0.2399   -3.3995 H   0  0  0  0  0  0  0  0  0  0  0  0
  1  2  1  0  0  0  0
  2  3  1  0  0  0  0
  2  4  1  0  0  0  0
  2  5  1  0  0  0  0
  5  6  2  0  0  0  0
  5  7  1  0  0  0  0
  7  8  1  0  0  0  0
  7  9  1  0  0  0  0
  9 10  1  0  0  0  0
  9 11  1  0  0  0  0
  9 15  1  0  0  0  0
 11 12  1  0  0  0  0
 11 13  1  0  0  0  0
 11 14  1  0  0  0  0
 15 16  2  0  0  0  0
 15 17  1  0  0  0  0
 17 18  1  0  0  0  0
 17 19  1  0  0  0  0
 19 20  1  0  0  0  0
 19 21  1  0  0  0  0
 19 22  1  0  0  0  0
M  END
$$$$

  -OEChem-11182114133D

 22 21  0     1  0  0  0  0  0999 V2000
   -2.8544   -3.5567    0.9985 H   0  0  0  0  0  0  0  0  0  0  0  0
   -2.7055   -2.5395    0.6252 C   0  0  0  0  0  0  0  0  0  0  0  0
   -3.4266   -1.8779    1.1112 H   0  0  0  0  0  0  0  0  0  0  0  0
   -2.8825   -2.5318   -0.4531 H   0  0  0  0  0  0  0  0  0  0  0  0
   -1.2925   -2.0723    0.9220 C   0  0  0  0  0  0  0  0  0  0  0  0
   -0.5459   -2.8207    1.5294 O   0  0  0  0  0  0  0  0  0  0  0  0
   -0.9127   -0.8173    0.4787 N   0  0  0  0  0  0  0  0  0  0  0  0
   -1.6017   -0.3591   -0.1158 H   0  0  0  0  0  0  0  0  0  0  0  0
    0.4106   -0.1541    0.4974 C   0  0  1  0  0  0  0  0  0  0  0  0
    0.2751    0.8054    1.0060 H   0  0  0  0  0  0  0  0  0  0  0  0
    1.5253   -0.8832    1.2701 C   0  0  0  0  0  0  0  0  0  0  0  0
    1.7634   -1.8431    0.8008 H   0  0  0  0  0  0  0  0  0  0  0  0
    2.4337   -0.2739    1.2991 H   0  0  0  0  0  0  0  0  0  0  0  0
    1.2135   -1.0651    2.3033 H   0  0  0  0  0  0  0  0  0  0  0  0
    0.8315    0.1827   -0.9535 C   0  0  0  0  0  0  0  0  0  0  0  0
   -0.0017    0.6662   -1.7117 O   0  0  0  0  0  0  0  0  0  0  0  0
    2.1069   -0.0618   -1.4324 N   0  0  0  0  0  0  0  0  0  0  0  0
    2.7498   -0.5483   -0.8143 H   0  0  0  0  0  0  0  0  0  0  0  0
    2.5089    0.1903   -2.8110 C   0  0  0  0  0  0  0  0  0  0  0  0
    2.3565    1.2437   -3.0688 H   0  0  0  0  0  0  0  0  0  0  0  0
    3.5690   -0.0459   -2.9448 H   0  0  0  0  0  0  0  0  0  0  0  0
    1.9254   -0.4297   -3.4997 H   0  0  0  0  0  0  0  0  0  0  0  0
  1  2  1  0  0  0  0
  2  3  1  0  0  0  0
  2  4  1  0  0  0  0
  2  5  1  0  0  0  0
  5  6  2  0  0  0  0
  5  7  1  0  0  0  0
  7  8  1  0  0  0  0
  7  9  1  0  0  0  0
  9 10  1  0  0  0  0
  9 11  1  0  0  0  0
  9 15  1  0  0  0  0
 11 12  1  0  0  0  0
 11 13  1  0  0  0  0
 11 14  1  0  0  0  0
 15 16  2  0  0  0  0
 15 17  1  0  0  0  0
 17 18  1  0  0  0  0
 17 19  1  0  0  0  0
 19 20  1  0  0  0  0
 19 21  1  0  0  0  0
 19 22  1  0  0  0  0
M  END
$$$$

  -OEChem-11182114133D

 22 21  0     1  0  0  0  0  0999 V2000
   -2.8580   -3.5518    1.0224 H   0  0  0  0  0  0  0  0  0  0  0  0
   -2.7107   -2.5372    0.6415 C   0  0  0  0  0  0  0  0  0  0  0  0
   -3.4093   -1.8670    1.1480 H   0  0  0  0  0  0  0  0  0  0  0  0
   -2.9215   -2.5308   -0.4307 H   0  0  0  0  0  0  0  0  0  0  0  0
   -1.2842   -2.0843    0.8927 C   0  0  0  0  0  0  0  0  0  0  0  0
   -0.5192   -2.8500    1.4536 O   0  0  0  0  0  0  0  0  0  0  0  0
   -0.9080   -0.8273    0.4515 N   0  0  0  0  0  0  0  0  0  0  0  0
   -1.6201   -0.3391   -0.0887 H   0  0  0  0  0  0  0  0  0  0  0  0
    0.4108   -0.1567    0.4828 C   0  0  1  0  0  0  0  0  0  0  0  0
    0.2636    0.8034    0.9873 H   0  0  0  0  0  0  0  0  0  0  0  0
    1.5229   -0.8724    1.2712 C   0  0  0  0  0  0  0  0  0  0  0  0
    1.7680   -1.8387    0.8194 H   0  0  0  0  0  0  0  0  0  0  0  0
    2.4291   -0.2591    1.2924 H   0  0  0  0  0  0  0  0  0  0  0  0
    1.2056   -1.0403    2.3053 H   0  0  0  0  0  0  0  0  0  0  0  0
    0.8441    0.1801   -0.9624 C   0  0  0  0  0  0  0  0  0  0  0  0
    0.0953    0.8574   -1.6563 O   0  0  0  0  0  0  0  0  0  0  0  0
    2.0058   -0.3223   -1.5218 N   0  0  0  0  0  0  0  0  0  0  0  0
    2.5431   -0.9770   -0.9605 H   0  0  0  0  0  0  0  0  0  0  0  0
    2.3771   -0.1204   -2.9169 C   0  0  0  0  0  0  0  0  0  0  0  0
    2.4716    0.9480   -3.1378 H   0  0  0  0  0  0  0  0  0  0  0  0
    3.3377   -0.6014   -3.1256 H   0  0  0  0  0  0  0  0  0  0  0  0
    1.6216   -0.5528   -3.5813 H   0  0  0  0  0  0  0  0  0  0  0  0
  1  2  1  0  0  0  0
  2  3  1  0  0  0  0
  2  4  1  0  0  0  0
  2  5  1  0  0  0  0
  5  6  2  0  0  0  0
  5  7  1  0  0  0  0
  7  8  1  0  0  0  0
  7  9  1  0  0  0  0
  9 10  1  0  0  0  0
  9 11  1  0  0  0  0
  9 15  1  0  0  0  0
 11 12  1  0  0  0  0
 11 13  1  0  0  0  0
 11 14  1  0  0  0  0
 15 16  2  0  0  0  0
 15 17  1  0  0  0  0
 17 18  1  0  0  0  0
 17 19  1  0  0  0  0
 19 20  1  0  0  0  0
 19 21  1  0  0  0  0
 19 22  1  0  0  0  0
M  END
$$$$

  -OEChem-11182114133D

 22 21  0     1  0  0  0  0  0999 V2000
   -2.8678   -3.5438    1.0687 H   0  0  0  0  0  0  0  0  0  0  0  0
   -2.7235   -2.5327    0.6773 C   0  0  0  0  0  0  0  0  0  0  0  0
   -3.3929   -1.8518    1.2084 H   0  0  0  0  0  0  0  0  0  0  0  0
   -2.9771   -2.5278   -0.3855 H   0  0  0  0  0  0  0  0  0  0  0  0
   -1.2826   -2.0969    0.8689 C   0  0  0  0  0  0  0  0  0  0  0  0
   -0.4995   -2.8781    1.3810 O   0  0  0  0  0  0  0  0  0  0  0  0
   -0.9107   -0.8408    0.4219 N   0  0  0  0  0  0  0  0  0  0  0  0
   -1.6459   -0.3263   -0.0585 H   0  0  0  0  0  0  0  0  0  0  0  0
    0.4050   -0.1650    0.4575 C   0  0  1  0  0  0  0  0  0  0  0  0
    0.2495    0.7969    0.9566 H   0  0  0  0  0  0  0  0  0  0  0  0
    1.5187   -0.8679    1.2547 C   0  0  0  0  0  0  0  0  0  0  0  0
    1.7718   -1.8373    0.8148 H   0  0  0  0  0  0  0  0  0  0  0  0
    2.4214   -0.2492    1.2680 H   0  0  0  0  0  0  0  0  0  0  0  0
    1.2007   -1.0272    2.2899 H   0  0  0  0  0  0  0  0  0  0  0  0
    0.8503    0.1659   -0.9831 C   0  0  0  0  0  0  0  0  0  0  0  0
    0.2421    1.0281   -1.6044 O   0  0  0  0  0  0  0  0  0  0  0  0
    1.8361   -0.5600   -1.6273 N   0  0  0  0  0  0  0  0  0  0  0  0
    2.2240   -1.3551   -1.1266 H   0  0  0  0  0  0  0  0  0  0  0  0
    2.1879   -0.3672   -3.0285 C   0  0  0  0  0  0  0  0  0  0  0  0
    2.5101    0.6646   -3.2042 H   0  0  0  0  0  0  0  0  0  0  0  0
    3.0075   -1.0360   -3.3084 H   0  0  0  0  0  0  0  0  0  0  0  0
    1.3288   -0.5830   -3.6724 H   0  0  0  0  0  0  0  0  0  0  0  0
  1  2  1  0  0  0  0
  2  3  1  0  0  0  0
  2  4  1  0  0  0  0
  2  5  1  0  0  0  0
  5  6  2  0  0  0  0
  5  7  1  0  0  0  0
  7  8  1  0  0  0  0
  7  9  1  0  0  0  0
  9 10  1  0  0  0  0
  9 11  1  0  0  0  0
  9 15  1  0  0  0  0
 11 12  1  0  0  0  0
 11 13  1  0  0  0  0
 11 14  1  0  0  0  0
 15 16  2  0  0  0  0
 15 17  1  0  0  0  0
 17 18  1  0  0  0  0
 17 19  1  0  0  0  0
 19 20  1  0  0  0  0
 19 21  1  0  0  0  0
 19 22  1  0  0  0  0
M  END
$$$$

  -OEChem-11182114133D

 22 21  0     1  0  0  0  0  0999 V2000
   -2.8794   -3.5329    1.1606 H   0  0  0  0  0  0  0  0  0  0  0  0
   -2.7429   -2.5308    0.7438 C   0  0  0  0  0  0  0  0  0  0  0  0
   -3.3660   -1.8303    1.3053 H   0  0  0  0  0  0  0  0  0  0  0  0
   -3.0636   -2.5377   -0.3009 H   0  0  0  0  0  0  0  0  0  0  0  0
   -1.2852   -2.1183    0.8367 C   0  0  0  0  0  0  0  0  0  0  0  0
   -0.4750   -2.9213    1.2663 O   0  0  0  0  0  0  0  0  0  0  0  0
   -0.9258   -0.8611    0.3831 N   0  0  0  0  0  0  0  0  0  0  0  0
   -1.6895   -0.3185   -0.0139 H   0  0  0  0  0  0  0  0  0  0  0  0
    0.3859   -0.1769    0.4202 C   0  0  1  0  0  0  0  0  0  0  0  0
    0.2204    0.7839    0.9182 H   0  0  0  0  0  0  0  0  0  0  0  0
    1.5060   -0.8649    1.2200 C   0  0  0  0  0  0  0  0  0  0  0  0
    1.7835   -1.8251    0.7751 H   0  0  0  0  0  0  0  0  0  0  0  0
    2.3958   -0.2281    1.2431 H   0  0  0  0  0  0  0  0  0  0  0  0
    1.1839   -1.0382    2.2515 H   0  0  0  0  0  0  0  0  0  0  0  0
    0.8426    0.1531   -1.0150 C   0  0  0  0  0  0  0  0  0  0  0  0
    0.4433    1.1789   -1.5497 O   0  0  0  0  0  0  0  0  0  0  0  0
    1.6021   -0.7425   -1.7451 N   0  0  0  0  0  0  0  0  0  0  0  0
    1.8092   -1.6355   -1.3047 H   0  0  0  0  0  0  0  0  0  0  0  0
    1.9645   -0.5384   -3.1416 C   0  0  0  0  0  0  0  0  0  0  0  0
    2.5368    0.3881   -3.2565 H   0  0  0  0  0  0  0  0  0  0  0  0
    2.5800   -1.3701   -3.4976 H   0  0  0  0  0  0  0  0  0  0  0  0
    1.0669   -0.4786   -3.7659 H   0  0  0  0  0  0  0  0  0  0  0  0
  1  2  1  0  0  0  0
  2  3  1  0  0  0  0
  2  4  1  0  0  0  0
  2  5  1  0  0  0  0
  5  6  2  0  0  0  0
  5  7  1  0  0  0  0
  7  8  1  0  0  0  0
  7  9  1  0  0  0  0
  9 10  1  0  0  0  0
  9 11  1  0  0  0  0
  9 15  1  0  0  0  0
 11 12  1  0  0  0  0
 11 13  1  0  0  0  0
 11 14  1  0  0  0  0
 15 16  2  0  0  0  0
 15 17  1  0  0  0  0
 17 18  1  0  0  0  0
 17 19  1  0  0  0  0
 19 20  1  0  0  0  0
 19 21  1  0  0  0  0
 19 22  1  0  0  0  0
M  END
$$$$

  -OEChem-11182114133D

 22 21  0     1  0  0  0  0  0999 V2000
   -2.8797   -3.5296    1.2066 H   0  0  0  0  0  0  0  0  0  0  0  0
   -2.7504   -2.5309    0.7797 C   0  0  0  0  0  0  0  0  0  0  0  0
   -3.3543   -1.8239    1.3536 H   0  0  0  0  0  0  0  0  0  0  0  0
   -3.0998   -2.5431   -0.2556 H   0  0  0  0  0  0  0  0  0  0  0  0
   -1.2893   -2.1240    0.8288 C   0  0  0  0  0  0  0  0  0  0  0  0
   -0.4666   -2.9370    1.2126 O   0  0  0  0  0  0  0  0  0  0  0  0
   -0.9391   -0.8662    0.3696 N   0  0  0  0  0  0  0  0  0  0  0  0
   -1.7176   -0.3113    0.0224 H   0  0  0  0  0  0  0  0  0  0  0  0
    0.3707   -0.1763    0.4022 C   0  0  1  0  0  0  0  0  0  0  0  0
    0.2059    0.7818    0.9063 H   0  0  0  0  0  0  0  0  0  0  0  0
    1.5019   -0.8665    1.1827 C   0  0  0  0  0  0  0  0  0  0  0  0
    1.7852   -1.8156    0.7178 H   0  0  0  0  0  0  0  0  0  0  0  0
    2.3867   -0.2229    1.2090 H   0  0  0  0  0  0  0  0  0  0  0  0
    1.1897   -1.0598    2.2137 H   0  0  0  0  0  0  0  0  0  0  0  0
    0.8260    0.1516   -1.0322 C   0  0  0  0  0  0  0  0  0  0  0  0
    0.6724    1.2807   -1.4774 O   0  0  0  0  0  0  0  0  0  0  0  0
    1.3116   -0.8481   -1.8539 N   0  0  0  0  0  0  0  0  0  0  0  0
    1.3379   -1.7886   -1.4671 H   0  0  0  0  0  0  0  0  0  0  0  0
    1.6774   -0.6396   -3.2486 C   0  0  0  0  0  0  0  0  0  0  0  0
    2.4635    0.1185   -3.3288 H   0  0  0  0  0  0  0  0  0  0  0  0
    2.0508   -1.5713   -3.6841 H   0  0  0  0  0  0  0  0  0  0  0  0
    0.8087   -0.3097   -3.8277 H   0  0  0  0  0  0  0  0  0  0  0  0
  1  2  1  0  0  0  0
  2  3  1  0  0  0  0
  2  4  1  0  0  0  0
  2  5  1  0  0  0  0
  5  6  2  0  0  0  0
  5  7  1  0  0  0  0
  7  8  1  0  0  0  0
  7  9  1  0  0  0  0
  9 10  1  0  0  0  0
  9 11  1  0  0  0  0
  9 15  1  0  0  0  0
 11 12  1  0  0  0  0
 11 13  1  0  0  0  0
 11 14  1  0  0  0  0
 15 16  2  0  0  0  0
 15 17  1  0  0  0  0
 17 18  1  0  0  0  0
 17 19  1  0  0  0  0
 19 20  1  0  0  0  0
 19 21  1  0  0  0  0
 19 22  1  0  0  0  0
M  END
$$$$

  -OEChem-11182114133D

 22 21  0     1  0  0  0  0  0999 V2000
   -2.8737   -3.5402    1.2635 H   0  0  0  0  0  0  0  0  0  0  0  0
   -2.7652   -2.5329    0.8511 C   0  0  0  0  0  0  0  0  0  0  0  0
   -3.3248   -1.8356    1.4794 H   0  0  0  0  0  0  0  0  0  0  0  0
   -3.1827   -2.5195   -0.1586 H   0  0  0  0  0  0  0  0  0  0  0  0
   -1.3004   -2.1373    0.8136 C   0  0  0  0  0  0  0  0  0  0  0  0
   -0.4610   -2.9648    1.1219 O   0  0  0  0  0  0  0  0  0  0  0  0
   -0.9666   -0.8769    0.3492 N   0  0  0  0  0  0  0  0  0  0  0  0
   -1.7624   -0.3083    0.0709 H   0  0  0  0  0  0  0  0  0  0  0  0
    0.3402   -0.1780    0.3738 C   0  0  1  0  0  0  0  0  0  0  0  0
    0.1740    0.7767    0.8837 H   0  0  0  0  0  0  0  0  0  0  0  0
    1.4819   -0.8688    1.1365 C   0  0  0  0  0  0  0  0  0  0  0  0
    1.7769   -1.8017    0.6465 H   0  0  0  0  0  0  0  0  0  0  0  0
    2.3579   -0.2138    1.1746 H   0  0  0  0  0  0  0  0  0  0  0  0
    1.1766   -1.0908    2.1636 H   0  0  0  0  0  0  0  0  0  0  0  0
    0.7954    0.1556   -1.0587 C   0  0  0  0  0  0  0  0  0  0  0  0
    0.9304    1.3200   -1.4079 O   0  0  0  0  0  0  0  0  0  0  0  0
    0.9898   -0.8636   -1.9715 N   0  0  0  0  0  0  0  0  0  0  0  0
    0.8544   -1.8138   -1.6336 H   0  0  0  0  0  0  0  0  0  0  0  0
    1.4014   -0.6452   -3.3518 C   0  0  0  0  0  0  0  0  0  0  0  0
    2.3620   -0.1207   -3.3871 H   0  0  0  0  0  0  0  0  0  0  0  0
    1.5118   -1.6031   -3.8691 H   0  0  0  0  0  0  0  0  0  0  0  0
    0.6538   -0.0481   -3.8842 H   0  0  0  0  0  0  0  0  0  0  0  0
  1  2  1  0  0  0  0
  2  3  1  0  0  0  0
  2  4  1  0  0  0  0
  2  5  1  0  0  0  0
  5  6  2  0  0  0  0
  5  7  1  0  0  0  0
  7  8  1  0  0  0  0
  7  9  1  0  0  0  0
  9 10  1  0  0  0  0
  9 11  1  0  0  0  0
  9 15  1  0  0  0  0
 11 12  1  0  0  0  0
 11 13  1  0  0  0  0
 11 14  1  0  0  0  0
 15 16  2  0  0  0  0
 15 17  1  0  0  0  0
 17 18  1  0  0  0  0
 17 19  1  0  0  0  0
 19 20  1  0  0  0  0
 19 21  1  0  0  0  0
 19 22  1  0  0  0  0
M  END
$$$$

  -OEChem-11182114133D

 22 21  0     1  0  0  0  0  0999 V2000
   -2.8699   -3.5517    1.3148 H   0  0  0  0  0  0  0  0  0  0  0  0
   -2.7741   -2.5410    0.9075 C   0  0  0  0  0  0  0  0  0  0  0  0
   -3.3082   -1.8482    1.5625 H   0  0  0  0  0  0  0  0  0  0  0  0
   -3.2282   -2.5176   -0.0860 H   0  0  0  0  0  0  0  0  0  0  0  0
   -1.3109   -2.1484    0.8187 C   0  0  0  0  0  0  0  0  0  0  0  0
   -0.4632   -2.9817    1.0837 O   0  0  0  0  0  0  0  0  0  0  0  0
   -0.9924   -0.8852    0.3508 N   0  0  0  0  0  0  0  0  0  0  0  0
   -1.7994   -0.3136    0.1153 H   0  0  0  0  0  0  0  0  0  0  0  0
    0.3111   -0.1763    0.3563 C   0  0  1  0  0  0  0  0  0  0  0  0
    0.1478    0.7741    0.8751 H   0  0  0  0  0  0  0  0  0  0  0  0
    1.4672   -0.8700    1.0927 C   0  0  0  0  0  0  0  0  0  0  0  0
    1.7621   -1.7911    0.5805 H   0  0  0  0  0  0  0  0  0  0  0  0
    2.3385   -0.2085    1.1299 H   0  0  0  0  0  0  0  0  0  0  0  0
    1.1788   -1.1124    2.1200 H   0  0  0  0  0  0  0  0  0  0  0  0
    0.7575    0.1698   -1.0766 C   0  0  0  0  0  0  0  0  0  0  0  0
    1.1670    1.2915   -1.3412 O   0  0  0  0  0  0  0  0  0  0  0  0
    0.6585   -0.7796   -2.0760 N   0  0  0  0  0  0  0  0  0  0  0  0
    0.3877   -1.7165   -1.7861 H   0  0  0  0  0  0  0  0  0  0  0  0
    1.1180   -0.5592   -3.4410 C   0  0  0  0  0  0  0  0  0  0  0  0
    2.1918   -0.3449   -3.4533 H   0  0  0  0  0  0  0  0  0  0  0  0
    0.9350   -1.4496   -4.0503 H   0  0  0  0  0  0  0  0  0  0  0  0
    0.5851    0.2838   -3.8931 H   0  0  0  0  0  0  0  0  0  0  0  0
  1  2  1  0  0  0  0
  2  3  1  0  0  0  0
  2  4  1  0  0  0  0
  2  5  1  0  0  0  0
  5  6  2  0  0  0  0
  5  7  1  0  0  0  0
  7  8  1  0  0  0  0
  7  9  1  0  0  0  0
  9 10  1  0  0  0  0
  9 11  1  0  0  0  0
  9 15  1  0  0  0  0
 11 12  1  0  0  0  0
 11 13  1  0  0  0  0
 11 14  1  0  0  0  0
 15 16  2  0  0  0  0
 15 17  1  0  0  0  0
 17 18  1  0  0  0  0
 17 19  1  0  0  0  0
 19 20  1  0  0  0  0
 19 21  1  0  0  0  0
 19 22  1  0  0  0  0
M  END
$$$$

  -OEChem-11182114133D

 22 21  0     1  0  0  0  0  0999 V2000
   -2.8632   -3.5500    1.3667 H   0  0  0  0  0  0  0  0  0  0  0  0
   -2.7749   -2.5480    0.9369 C   0  0  0  0  0  0  0  0  0  0  0  0
   -3.3006   -1.8424    1.5847 H   0  0  0  0  0  0  0  0  0  0  0  0
   -3.2435   -2.5461   -0.0501 H   0  0  0  0  0  0  0  0  0  0  0  0
   -1.3137   -2.1562    0.8192 C   0  0  0  0  0  0  0  0  0  0  0  0
   -0.4627   -2.9929    1.0599 O   0  0  0  0  0  0  0  0  0  0  0  0
   -1.0043   -0.8890    0.3548 N   0  0  0  0  0  0  0  0  0  0  0  0
   -1.8172   -0.3124    0.1543 H   0  0  0  0  0  0  0  0  0  0  0  0
    0.2987   -0.1759    0.3507 C   0  0  1  0  0  0  0  0  0  0  0  0
    0.1376    0.7703    0.8771 H   0  0  0  0  0  0  0  0  0  0  0  0
    1.4588   -0.8754    1.0755 C   0  0  0  0  0  0  0  0  0  0  0  0
    1.7524   -1.7906    0.5517 H   0  0  0  0  0  0  0  0  0  0  0  0
    2.3298   -0.2137    1.1160 H   0  0  0  0  0  0  0  0  0  0  0  0
    1.1751   -1.1287    2.1015 H   0  0  0  0  0  0  0  0  0  0  0  0
    0.7430    0.1869   -1.0808 C   0  0  0  0  0  0  0  0  0  0  0  0
    1.3946    1.2019   -1.2839 O   0  0  0  0  0  0  0  0  0  0  0  0
    0.3712   -0.6120   -2.1461 N   0  0  0  0  0  0  0  0  0  0  0  0
   -0.0595   -1.5019   -1.9081 H   0  0  0  0  0  0  0  0  0  0  0  0
    0.8289   -0.3882   -3.5114 C   0  0  0  0  0  0  0  0  0  0  0  0
    1.9211   -0.4466   -3.5631 H   0  0  0  0  0  0  0  0  0  0  0  0
    0.4088   -1.1457   -4.1800 H   0  0  0  0  0  0  0  0  0  0  0  0
    0.5114    0.5981   -3.8655 H   0  0  0  0  0  0  0  0  0  0  0  0
  1  2  1  0  0  0  0
  2  3  1  0  0  0  0
  2  4  1  0  0  0  0
  2  5  1  0  0  0  0
  5  6  2  0  0  0  0
  5  7  1  0  0  0  0
  7  8  1  0  0  0  0
  7  9  1  0  0  0  0
  9 10  1  0  0  0  0
  9 11  1  0  0  0  0
  9 15  1  0  0  0  0
 11 12  1  0  0  0  0
 11 13  1  0  0  0  0
 11 14  1  0  0  0  0
 15 16  2  0  0  0  0
 15 17  1  0  0  0  0
 17 18  1  0  0  0  0
 17 19  1  0  0  0  0
 19 20  1  0  0  0  0
 19 21  1  0  0  0  0
 19 22  1  0  0  0  0
M  END
$$$$

  -OEChem-11182114133D

 22 21  0     1  0  0  0  0  0999 V2000
   -2.8559   -3.5634    1.3656 H   0  0  0  0  0  0  0  0  0  0  0  0
   -2.7720   -2.5553    0.9492 C   0  0  0  0  0  0  0  0  0  0  0  0
   -3.2908   -1.8591    1.6127 H   0  0  0  0  0  0  0  0  0  0  0  0
   -3.2518   -2.5398   -0.0324 H   0  0  0  0  0  0  0  0  0  0  0  0
   -1.3116   -2.1618    0.8218 C   0  0  0  0  0  0  0  0  0  0  0  0
   -0.4599   -2.9977    1.0619 O   0  0  0  0  0  0  0  0  0  0  0  0
   -1.0079   -0.8920    0.3588 N   0  0  0  0  0  0  0  0  0  0  0  0
   -1.8241   -0.3120    0.1832 H   0  0  0  0  0  0  0  0  0  0  0  0
    0.2954   -0.1763    0.3475 C   0  0  1  0  0  0  0  0  0  0  0  0
    0.1341    0.7687    0.8757 H   0  0  0  0  0  0  0  0  0  0  0  0
    1.4548   -0.8772    1.0736 C   0  0  0  0  0  0  0  0  0  0  0  0
    1.7534   -1.7868    0.5430 H   0  0  0  0  0  0  0  0  0  0  0  0
    2.3241   -0.2141    1.1250 H   0  0  0  0  0  0  0  0  0  0  0  0
    1.1669   -1.1396    2.0960 H   0  0  0  0  0  0  0  0  0  0  0  0
    0.7407    0.1982   -1.0831 C   0  0  0  0  0  0  0  0  0  0  0  0
    1.5882    1.0631   -1.2568 O   0  0  0  0  0  0  0  0  0  0  0  0
    0.1370   -0.3882   -2.1803 N   0  0  0  0  0  0  0  0  0  0  0  0
   -0.4462   -1.1970   -1.9851 H   0  0  0  0  0  0  0  0  0  0  0  0
    0.5695   -0.1444   -3.5507 C   0  0  0  0  0  0  0  0  0  0  0  0
    1.6091   -0.4608   -3.6859 H   0  0  0  0  0  0  0  0  0  0  0  0
   -0.0580   -0.7041   -4.2509 H   0  0  0  0  0  0  0  0  0  0  0  0
    0.4910    0.9204   -3.7938 H   0  0  0  0  0  0  0  0  0  0  0  0
  1  2  1  0  0  0  0
  2  3  1  0  0  0  0
  2  4  1  0  0  0  0
  2  5  1  0  0  0  0
  5  6  2  0  0  0  0
  5  7  1  0  0  0  0
  7  8  1  0  0  0  0
  7  9  1  0  0  0  0
  9 10  1  0  0  0  0
  9 11  1  0  0  0  0
  9 15  1  0  0  0  0
 11 12  1  0  0  0  0
 11 13  1  0  0  0  0
 11 14  1  0  0  0  0
 15 16  2  0  0  0  0
 15 17  1  0  0  0  0
 17 18  1  0  0  0  0
 17 19  1  0  0  0  0
 19 20  1  0  0  0  0
 19 21  1  0  0  0  0
 19 22  1  0  0  0  0
M  END
$$$$

  -OEChem-11182114133D

 22 21  0     1  0  0  0  0  0999 V2000
   -2.8460   -3.5809    1.3350 H   0  0  0  0  0  0  0  0  0  0  0  0
   -2.7648   -2.5575    0.9571 C   0  0  0  0  0  0  0  0  0  0  0  0
   -3.2608   -1.8849    1.6611 H   0  0  0  0  0  0  0  0  0  0  0  0
   -3.2690   -2.5002   -0.0106 H   0  0  0  0  0  0  0  0  0  0  0  0
   -1.3051   -2.1689    0.8081 C   0  0  0  0  0  0  0  0  0  0  0  0
   -0.4534   -3.0095    1.0303 O   0  0  0  0  0  0  0  0  0  0  0  0
   -1.0054   -0.8962    0.3492 N   0  0  0  0  0  0  0  0  0  0  0  0
   -1.8237   -0.3099    0.2096 H   0  0  0  0  0  0  0  0  0  0  0  0
    0.2975   -0.1783    0.3423 C   0  0  1  0  0  0  0  0  0  0  0  0
    0.1303    0.7668    0.8680 H   0  0  0  0  0  0  0  0  0  0  0  0
    1.4481   -0.8765    1.0875 C   0  0  0  0  0  0  0  0  0  0  0  0
    1.7624   -1.7805    0.5564 H   0  0  0  0  0  0  0  0  0  0  0  0
    2.3128   -0.2094    1.1618 H   0  0  0  0  0  0  0  0  0  0  0  0
    1.1424   -1.1478    2.1024 H   0  0  0  0  0  0  0  0  0  0  0  0
    0.7489    0.2043   -1.0868 C   0  0  0  0  0  0  0  0  0  0  0  0
    1.7456    0.8932   -1.2580 O   0  0  0  0  0  0  0  0  0  0  0  0
   -0.0321   -0.1263   -2.1799 N   0  0  0  0  0  0  0  0  0  0  0  0
   -0.7516   -0.8230   -2.0124 H   0  0  0  0  0  0  0  0  0  0  0  0
    0.3660    0.1540   -3.5543 C   0  0  0  0  0  0  0  0  0  0  0  0
    1.2904   -0.3786   -3.8017 H   0  0  0  0  0  0  0  0  0  0  0  0
   -0.4168   -0.1677   -4.2479 H   0  0  0  0  0  0  0  0  0  0  0  0
    0.5295    1.2277   -3.6955 H   0  0  0  0  0  0  0  0  0  0  0  0
  1  2  1  0  0  0  0
  2  3  1  0  0  0  0
  2  4  1  0  0  0  0
  2  5  1  0  0  0  0
  5  6  2  0  0  0  0
  5  7  1  0  0  0  0
  7  8  1  0  0  0  0
  7  9  1  0  0  0  0
  9 10  1  0  0  0  0
  9 11  1  0  0  0  0
  9 15  1  0  0  0  0
 11 12  1  0  0  0  0
 11 13  1  0  0  0  0
 11 14  1  0  0  0  0
 15 16  2  0  0  0  0
 15 17  1  0  0  0  0
 17 18  1  0  0  0  0
 17 19  1  0  0  0  0
 19 20  1  0  0  0  0
 19 21  1  0  0  0  0
 19 22  1  0  0  0  0
M  END
$$$$

  -OEChem-11182114133D

 22 21  0     1  0  0  0  0  0999 V2000
   -2.8391   -3.5665    1.3700 H   0  0  0  0  0  0  0  0  0  0  0  0
   -2.7580   -2.5586    0.9522 C   0  0  0  0  0  0  0  0  0  0  0  0
   -3.2580   -1.8597    1.6271 H   0  0  0  0  0  0  0  0  0  0  0  0
   -3.2583   -2.5399   -0.0189 H   0  0  0  0  0  0  0  0  0  0  0  0
   -1.2981   -2.1747    0.7918 C   0  0  0  0  0  0  0  0  0  0  0  0
   -0.4484   -3.0194    1.0065 O   0  0  0  0  0  0  0  0  0  0  0  0
   -0.9988   -0.8989    0.3400 N   0  0  0  0  0  0  0  0  0  0  0  0
   -1.8168   -0.3057    0.2352 H   0  0  0  0  0  0  0  0  0  0  0  0
    0.3068   -0.1856    0.3377 C   0  0  1  0  0  0  0  0  0  0  0  0
    0.1374    0.7590    0.8631 H   0  0  0  0  0  0  0  0  0  0  0  0
    1.4477   -0.8847    1.0993 C   0  0  0  0  0  0  0  0  0  0  0  0
    1.7745   -1.7838    0.5674 H   0  0  0  0  0  0  0  0  0  0  0  0
    2.3086   -0.2154    1.1935 H   0  0  0  0  0  0  0  0  0  0  0  0
    1.1261   -1.1643    2.1071 H   0  0  0  0  0  0  0  0  0  0  0  0
    0.7606    0.2055   -1.0904 C   0  0  0  0  0  0  0  0  0  0  0  0
    1.8724    0.6776   -1.2881 O   0  0  0  0  0  0  0  0  0  0  0  0
   -0.1393    0.1703   -2.1412 N   0  0  0  0  0  0  0  0  0  0  0  0
   -0.9830   -0.3705   -1.9824 H   0  0  0  0  0  0  0  0  0  0  0  0
    0.2317    0.4979   -3.5131 C   0  0  0  0  0  0  0  0  0  0  0  0
    1.0060   -0.1870   -3.8745 H   0  0  0  0  0  0  0  0  0  0  0  0
   -0.6394    0.4162   -4.1704 H   0  0  0  0  0  0  0  0  0  0  0  0
    0.6125    1.5230   -3.5741 H   0  0  0  0  0  0  0  0  0  0  0  0
  1  2  1  0  0  0  0
  2  3  1  0  0  0  0
  2  4  1  0  0  0  0
  2  5  1  0  0  0  0
  5  6  2  0  0  0  0
  5  7  1  0  0  0  0
  7  8  1  0  0  0  0
  7  9  1  0  0  0  0
  9 10  1  0  0  0  0
  9 11  1  0  0  0  0
  9 15  1  0  0  0  0
 11 12  1  0  0  0  0
 11 13  1  0  0  0  0
 11 14  1  0  0  0  0
 15 16  2  0  0  0  0
 15 17  1  0  0  0  0
 17 18  1  0  0  0  0
 17 19  1  0  0  0  0
 19 20  1  0  0  0  0
 19 21  1  0  0  0  0
 19 22  1  0  0  0  0
M  END
$$$$

  -OEChem-11182114133D

 22 21  0     1  0  0  0  0  0999 V2000
   -2.8397   -3.5608    1.3558 H   0  0  0  0  0  0  0  0  0  0  0  0
   -2.7520   -2.5602    0.9223 C   0  0  0  0  0  0  0  0  0  0  0  0
   -3.2689   -1.8514    1.5737 H   0  0  0  0  0  0  0  0  0  0  0  0
   -3.2298   -2.5605   -0.0603 H   0  0  0  0  0  0  0  0  0  0  0  0
   -1.2900   -2.1748    0.7878 C   0  0  0  0  0  0  0  0  0  0  0  0
   -0.4448   -3.0167    1.0286 O   0  0  0  0  0  0  0  0  0  0  0  0
   -0.9863   -0.8980    0.3407 N   0  0  0  0  0  0  0  0  0  0  0  0
   -1.8045   -0.3070    0.2317 H   0  0  0  0  0  0  0  0  0  0  0  0
    0.3217   -0.1891    0.3397 C   0  0  1  0  0  0  0  0  0  0  0  0
    0.1544    0.7563    0.8642 H   0  0  0  0  0  0  0  0  0  0  0  0
    1.4565   -0.8886    1.1116 C   0  0  0  0  0  0  0  0  0  0  0  0
    1.7805   -1.7940    0.5887 H   0  0  0  0  0  0  0  0  0  0  0  0
    2.3207   -0.2233    1.2036 H   0  0  0  0  0  0  0  0  0  0  0  0
    1.1294   -1.1577    2.1204 H   0  0  0  0  0  0  0  0  0  0  0  0
    0.7712    0.2043   -1.0911 C   0  0  0  0  0  0  0  0  0  0  0  0
    1.9463    0.4284   -1.3505 O   0  0  0  0  0  0  0  0  0  0  0  0
   -0.1759    0.4752   -2.0641 N   0  0  0  0  0  0  0  0  0  0  0  0
   -1.1180    0.1516   -1.8770 H   0  0  0  0  0  0  0  0  0  0  0  0
    0.1750    0.8451   -3.4306 C   0  0  0  0  0  0  0  0  0  0  0  0
    0.7483    0.0441   -3.9091 H   0  0  0  0  0  0  0  0  0  0  0  0
   -0.7303    1.0235   -4.0186 H   0  0  0  0  0  0  0  0  0  0  0  0
    0.7754    1.7611   -3.4383 H   0  0  0  0  0  0  0  0  0  0  0  0
  1  2  1  0  0  0  0
  2  3  1  0  0  0  0
  2  4  1  0  0  0  0
  2  5  1  0  0  0  0
  5  6  2  0  0  0  0
  5  7  1  0  0  0  0
  7  8  1  0  0  0  0
  7  9  1  0  0  0  0
  9 10  1  0  0  0  0
  9 11  1  0  0  0  0
  9 15  1  0  0  0  0
 11 12  1  0  0  0  0
 11 13  1  0  0  0  0
 11 14  1  0  0  0  0
 15 16  2  0  0  0  0
 15 17  1  0  0  0  0
 17 18  1  0  0  0  0
 17 19  1  0  0  0  0
 19 20  1  0  0  0  0
 19 21  1  0  0  0  0
 19 22  1  0  0  0  0
M  END
$$$$

  -OEChem-11182114133D

 22 21  0     1  0  0  0  0  0999 V2000
   -2.8595   -3.5659    1.2536 H   0  0  0  0  0  0  0  0  0  0  0  0
   -2.7474   -2.5611    0.8358 C   0  0  0  0  0  0  0  0  0  0  0  0
   -3.3328   -1.8643    1.4404 H   0  0  0  0  0  0  0  0  0  0  0  0
   -3.1329   -2.5622   -0.1865 H   0  0  0  0  0  0  0  0  0  0  0  0
   -1.2855   -2.1529    0.8380 C   0  0  0  0  0  0  0  0  0  0  0  0
   -0.4611   -2.9649    1.2153 O   0  0  0  0  0  0  0  0  0  0  0  0
   -0.9626   -0.8835    0.3827 N   0  0  0  0  0  0  0  0  0  0  0  0
   -1.7721   -0.3225    0.1414 H   0  0  0  0  0  0  0  0  0  0  0  0
    0.3512   -0.1870    0.3615 C   0  0  1  0  0  0  0  0  0  0  0  0
    0.2027    0.7626    0.8838 H   0  0  0  0  0  0  0  0  0  0  0  0
    1.4913   -0.8924    1.1202 C   0  0  0  0  0  0  0  0  0  0  0  0
    1.7768   -1.8212    0.6159 H   0  0  0  0  0  0  0  0  0  0  0  0
    2.3737   -0.2466    1.1663 H   0  0  0  0  0  0  0  0  0  0  0  0
    1.1880   -1.1235    2.1456 H   0  0  0  0  0  0  0  0  0  0  0  0
    0.7749    0.1894   -1.0830 C   0  0  0  0  0  0  0  0  0  0  0  0
    1.9344    0.0975   -1.4643 O   0  0  0  0  0  0  0  0  0  0  0  0
   -0.1473    0.7570   -1.9470 N   0  0  0  0  0  0  0  0  0  0  0  0
   -1.1084    0.8197   -1.6339 H   0  0  0  0  0  0  0  0  0  0  0  0
    0.1762    1.1593   -3.3114 C   0  0  0  0  0  0  0  0  0  0  0  0
    0.5326    0.3003   -3.8897 H   0  0  0  0  0  0  0  0  0  0  0  0
   -0.7106    1.5656   -3.8070 H   0  0  0  0  0  0  0  0  0  0  0  0
    0.9541    1.9301   -3.3097 H   0  0  0  0  0  0  0  0  0  0  0  0
  1  2  1  0  0  0  0
  2  3  1  0  0  0  0
  2  4  1  0  0  0  0
  2  5  1  0  0  0  0
  5  6  2  0  0  0  0
  5  7  1  0  0  0  0
  7  8  1  0  0  0  0
  7  9  1  0  0  0  0
  9 10  1  0  0  0  0
  9 11  1  0  0  0  0
  9 15  1  0  0  0  0
 11 12  1  0  0  0  0
 11 13  1  0  0  0  0
 11 14  1  0  0  0  0
 15 16  2  0  0  0  0
 15 17  1  0  0  0  0
 17 18  1  0  0  0  0
 17 19  1  0  0  0  0
 19 20  1  0  0  0  0
 19 21  1  0  0  0  0
 19 22  1  0  0  0  0
M  END
$$$$

  -OEChem-11182114133D

 22 21  0     1  0  0  0  0  0999 V2000
   -2.8488   -3.5652    1.1109 H   0  0  0  0  0  0  0  0  0  0  0  0
   -2.7185   -2.5576    0.7053 C   0  0  0  0  0  0  0  0  0  0  0  0
   -3.4283   -1.8877    1.1963 H   0  0  0  0  0  0  0  0  0  0  0  0
   -2.9294   -2.5824   -0.3665 H   0  0  0  0  0  0  0  0  0  0  0  0
   -1.2990   -2.0759    0.9443 C   0  0  0  0  0  0  0  0  0  0  0  0
   -0.5440   -2.7972    1.5704 O   0  0  0  0  0  0  0  0  0  0  0  0
   -0.9476   -0.8237    0.4631 N   0  0  0  0  0  0  0  0  0  0  0  0
   -1.6858   -0.3784   -0.0717 H   0  0  0  0  0  0  0  0  0  0  0  0
    0.3848   -0.1687    0.4037 C   0  0  1  0  0  0  0  0  0  0  0  0
    0.2897    0.7897    0.9222 H   0  0  0  0  0  0  0  0  0  0  0  0
    1.5341   -0.9085    1.1131 C   0  0  0  0  0  0  0  0  0  0  0  0
    1.7190   -1.8807    0.6444 H   0  0  0  0  0  0  0  0  0  0  0  0
    2.4561   -0.3216    1.0549 H   0  0  0  0  0  0  0  0  0  0  0  0
    1.2981   -1.0632    2.1703 H   0  0  0  0  0  0  0  0  0  0  0  0
    0.7528    0.1612   -1.0647 C   0  0  0  0  0  0  0  0  0  0  0  0
    1.7511   -0.2865   -1.6129 O   0  0  0  0  0  0  0  0  0  0  0  0
   -0.0714    1.0066   -1.7892 N   0  0  0  0  0  0  0  0  0  0  0  0
   -0.8211    1.4710   -1.2880 H   0  0  0  0  0  0  0  0  0  0  0  0
    0.2248    1.4291   -3.1537 C   0  0  0  0  0  0  0  0  0  0  0  0
    0.3266    0.5592   -3.8114 H   0  0  0  0  0  0  0  0  0  0  0  0
   -0.5834    2.0581   -3.5390 H   0  0  0  0  0  0  0  0  0  0  0  0
    1.1567    2.0036   -3.1833 H   0  0  0  0  0  0  0  0  0  0  0  0
  1  2  1  0  0  0  0
  2  3  1  0  0  0  0
  2  4  1  0  0  0  0
  2  5  1  0  0  0  0
  5  6  2  0  0  0  0
  5  7  1  0  0  0  0
  7  8  1  0  0  0  0
  7  9  1  0  0  0  0
  9 10  1  0  0  0  0
  9 11  1  0  0  0  0
  9 15  1  0  0  0  0
 11 12  1  0  0  0  0
 11 13  1  0  0  0  0
 11 14  1  0  0  0  0
 15 16  2  0  0  0  0
 15 17  1  0  0  0  0
 17 18  1  0  0  0  0
 17 19  1  0  0  0  0
 19 20  1  0  0  0  0
 19 21  1  0  0  0  0
 19 22  1  0  0  0  0
M  END
$$$$

  -OEChem-11182114133D

 22 21  0     1  0  0  0  0  0999 V2000
   -2.8330   -3.5630    1.0670 H   0  0  0  0  0  0  0  0  0  0  0  0
   -2.7021   -2.5546    0.6640 C   0  0  0  0  0  0  0  0  0  0  0  0
   -3.4455   -1.8957    1.1189 H   0  0  0  0  0  0  0  0  0  0  0  0
   -2.8629   -2.5867   -0.4163 H   0  0  0  0  0  0  0  0  0  0  0  0
   -1.3039   -2.0473    0.9661 C   0  0  0  0  0  0  0  0  0  0  0  0
   -0.5742   -2.7411    1.6511 O   0  0  0  0  0  0  0  0  0  0  0  0
   -0.9482   -0.7949    0.4897 N   0  0  0  0  0  0  0  0  0  0  0  0
   -1.6640   -0.3721   -0.0932 H   0  0  0  0  0  0  0  0  0  0  0  0
    0.3891   -0.1536    0.4296 C   0  0  1  0  0  0  0  0  0  0  0  0
    0.3130    0.7986    0.9624 H   0  0  0  0  0  0  0  0  0  0  0  0
    1.5429   -0.9183    1.1042 C   0  0  0  0  0  0  0  0  0  0  0  0
    1.6895   -1.8973    0.6361 H   0  0  0  0  0  0  0  0  0  0  0  0
    2.4761   -0.3542    1.0116 H   0  0  0  0  0  0  0  0  0  0  0  0
    1.3381   -1.0627    2.1692 H   0  0  0  0  0  0  0  0  0  0  0  0
    0.7449    0.1774   -1.0397 C   0  0  0  0  0  0  0  0  0  0  0  0
    1.5314   -0.4934   -1.6942 O   0  0  0  0  0  0  0  0  0  0  0  0
    0.1251    1.2532   -1.6523 N   0  0  0  0  0  0  0  0  0  0  0  0
   -0.4614    1.8484   -1.0759 H   0  0  0  0  0  0  0  0  0  0  0  0
    0.4133    1.6654   -3.0216 C   0  0  0  0  0  0  0  0  0  0  0  0
    0.2303    0.8395   -3.7173 H   0  0  0  0  0  0  0  0  0  0  0  0
   -0.2284    2.5043   -3.3079 H   0  0  0  0  0  0  0  0  0  0  0  0
    1.4582    1.9797   -3.1155 H   0  0  0  0  0  0  0  0  0  0  0  0
  1  2  1  0  0  0  0
  2  3  1  0  0  0  0
  2  4  1  0  0  0  0
  2  5  1  0  0  0  0
  5  6  2  0  0  0  0
  5  7  1  0  0  0  0
  7  8  1  0  0  0  0
  7  9  1  0  0  0  0
  9 10  1  0  0  0  0
  9 11  1  0  0  0  0
  9 15  1  0  0  0  0
 11 12  1  0  0  0  0
 11 13  1  0  0  0  0
 11 14  1  0  0  0  0
 15 16  2  0  0  0  0
 15 17  1  0  0  0  0
 17 18  1  0  0  0  0
 17 19  1  0  0  0  0
 19 20  1  0  0  0  0
 19 21  1  0  0  0  0
 19 22  1  0  0  0  0
M  END
$$$$

  -OEChem-11182114133D

 22 21  0     1  0  0  0  0  0999 V2000
   -2.8174   -3.5674    1.0383 H   0  0  0  0  0  0  0  0  0  0  0  0
   -2.6876   -2.5582    0.6367 C   0  0  0  0  0  0  0  0  0  0  0  0
   -3.4550   -1.9084    1.0641 H   0  0  0  0  0  0  0  0  0  0  0  0
   -2.8115   -2.5957   -0.4483 H   0  0  0  0  0  0  0  0  0  0  0  0
   -1.3076   -2.0292    0.9837 C   0  0  0  0  0  0  0  0  0  0  0  0
   -0.5950   -2.7031    1.7064 O   0  0  0  0  0  0  0  0  0  0  0  0
   -0.9528   -0.7742    0.5140 N   0  0  0  0  0  0  0  0  0  0  0  0
   -1.6521   -0.3686   -0.1008 H   0  0  0  0  0  0  0  0  0  0  0  0
    0.3875   -0.1409    0.4557 C   0  0  1  0  0  0  0  0  0  0  0  0
    0.3224    0.8025    1.0051 H   0  0  0  0  0  0  0  0  0  0  0  0
    1.5459   -0.9255    1.0971 C   0  0  0  0  0  0  0  0  0  0  0  0
    1.6669   -1.9034    0.6193 H   0  0  0  0  0  0  0  0  0  0  0  0
    2.4844   -0.3740    0.9864 H   0  0  0  0  0  0  0  0  0  0  0  0
    1.3644   -1.0744    2.1658 H   0  0  0  0  0  0  0  0  0  0  0  0
    0.7421    0.1992   -1.0106 C   0  0  0  0  0  0  0  0  0  0  0  0
    1.2494   -0.6237   -1.7603 O   0  0  0  0  0  0  0  0  0  0  0  0
    0.3908    1.4353   -1.5252 N   0  0  0  0  0  0  0  0  0  0  0  0
    0.0034    2.1205   -0.8838 H   0  0  0  0  0  0  0  0  0  0  0  0
    0.6732    1.8383   -2.8985 C   0  0  0  0  0  0  0  0  0  0  0  0
    0.2191    1.1366   -3.6063 H   0  0  0  0  0  0  0  0  0  0  0  0
    0.2643    2.8345   -3.0926 H   0  0  0  0  0  0  0  0  0  0  0  0
    1.7537    1.8663   -3.0749 H   0  0  0  0  0  0  0  0  0  0  0  0
  1  2  1  0  0  0  0
  2  3  1  0  0  0  0
  2  4  1  0  0  0  0
  2  5  1  0  0  0  0
  5  6  2  0  0  0  0
  5  7  1  0  0  0  0
  7  8  1  0  0  0  0
  7  9  1  0  0  0  0
  9 10  1  0  0  0  0
  9 11  1  0  0  0  0
  9 15  1  0  0  0  0
 11 12  1  0  0  0  0
 11 13  1  0  0  0  0
 11 14  1  0  0  0  0
 15 16  2  0  0  0  0
 15 17  1  0  0  0  0
 17 18  1  0  0  0  0
 17 19  1  0  0  0  0
 19 20  1  0  0  0  0
 19 21  1  0  0  0  0
 19 22  1  0  0  0  0
M  END
$$$$

  -OEChem-11182114133D

 22 21  0     1  0  0  0  0  0999 V2000
   -2.7990   -3.5671    1.0315 H   0  0  0  0  0  0  0  0  0  0  0  0
   -2.6648   -2.5674    0.6082 C   0  0  0  0  0  0  0  0  0  0  0  0
   -3.4651   -1.9201    0.9743 H   0  0  0  0  0  0  0  0  0  0  0  0
   -2.7284   -2.6375   -0.4805 H   0  0  0  0  0  0  0  0  0  0  0  0
   -1.3144   -2.0044    1.0119 C   0  0  0  0  0  0  0  0  0  0  0  0
   -0.6235   -2.6502    1.7808 O   0  0  0  0  0  0  0  0  0  0  0  0
   -0.9619   -0.7492    0.5428 N   0  0  0  0  0  0  0  0  0  0  0  0
   -1.6367   -0.3735   -0.1172 H   0  0  0  0  0  0  0  0  0  0  0  0
    0.3835   -0.1289    0.4818 C   0  0  1  0  0  0  0  0  0  0  0  0
    0.3311    0.8078    1.0435 H   0  0  0  0  0  0  0  0  0  0  0  0
    1.5437   -0.9342    1.0902 C   0  0  0  0  0  0  0  0  0  0  0  0
    1.6394   -1.9090    0.6004 H   0  0  0  0  0  0  0  0  0  0  0  0
    2.4876   -0.3951    0.9651 H   0  0  0  0  0  0  0  0  0  0  0  0
    1.3831   -1.0903    2.1612 H   0  0  0  0  0  0  0  0  0  0  0  0
    0.7387    0.2149   -0.9821 C   0  0  0  0  0  0  0  0  0  0  0  0
    0.9265   -0.6648   -1.8116 O   0  0  0  0  0  0  0  0  0  0  0  0
    0.6950    1.5303   -1.4092 N   0  0  0  0  0  0  0  0  0  0  0  0
    0.5391    2.2491   -0.7091 H   0  0  0  0  0  0  0  0  0  0  0  0
    0.9746    1.9345   -2.7825 C   0  0  0  0  0  0  0  0  0  0  0  0
    0.2709    1.4587   -3.4737 H   0  0  0  0  0  0  0  0  0  0  0  0
    0.8776    3.0197   -2.8847 H   0  0  0  0  0  0  0  0  0  0  0  0
    1.9936    1.6501   -3.0660 H   0  0  0  0  0  0  0  0  0  0  0  0
  1  2  1  0  0  0  0
  2  3  1  0  0  0  0
  2  4  1  0  0  0  0
  2  5  1  0  0  0  0
  5  6  2  0  0  0  0
  5  7  1  0  0  0  0
  7  8  1  0  0  0  0
  7  9  1  0  0  0  0
  9 10  1  0  0  0  0
  9 11  1  0  0  0  0
  9 15  1  0  0  0  0
 11 12  1  0  0  0  0
 11 13  1  0  0  0  0
 11 14  1  0  0  0  0
 15 16  2  0  0  0  0
 15 17  1  0  0  0  0
 17 18  1  0  0  0  0
 17 19  1  0  0  0  0
 19 20  1  0  0  0  0
 19 21  1  0  0  0  0
 19 22  1  0  0  0  0
M  END
$$$$

  -OEChem-11182114133D

 22 21  0     1  0  0  0  0  0999 V2000
   -2.7930   -3.5607    1.0176 H   0  0  0  0  0  0  0  0  0  0  0  0
   -2.6499   -2.5672    0.5831 C   0  0  0  0  0  0  0  0  0  0  0  0
   -3.4674   -1.9195    0.9083 H   0  0  0  0  0  0  0  0  0  0  0  0
   -2.6724   -2.6547   -0.5059 H   0  0  0  0  0  0  0  0  0  0  0  0
   -1.3195   -1.9881    1.0272 C   0  0  0  0  0  0  0  0  0  0  0  0
   -0.6486   -2.6179    1.8270 O   0  0  0  0  0  0  0  0  0  0  0  0
   -0.9627   -0.7341    0.5596 N   0  0  0  0  0  0  0  0  0  0  0  0
   -1.6096   -0.3851   -0.1425 H   0  0  0  0  0  0  0  0  0  0  0  0
    0.3869   -0.1233    0.5043 C   0  0  1  0  0  0  0  0  0  0  0  0
    0.3379    0.8118    1.0696 H   0  0  0  0  0  0  0  0  0  0  0  0
    1.5428   -0.9425    1.1013 C   0  0  0  0  0  0  0  0  0  0  0  0
    1.6262   -1.9142    0.6032 H   0  0  0  0  0  0  0  0  0  0  0  0
    2.4915   -0.4116    0.9769 H   0  0  0  0  0  0  0  0  0  0  0  0
    1.3861   -1.1046    2.1721 H   0  0  0  0  0  0  0  0  0  0  0  0
    0.7505    0.2200   -0.9575 C   0  0  0  0  0  0  0  0  0  0  0  0
    0.6365   -0.6179   -1.8427 O   0  0  0  0  0  0  0  0  0  0  0  0
    1.0238    1.5286   -1.3136 N   0  0  0  0  0  0  0  0  0  0  0  0
    1.0929    2.2166   -0.5698 H   0  0  0  0  0  0  0  0  0  0  0  0
    1.2879    1.9455   -2.6859 C   0  0  0  0  0  0  0  0  0  0  0  0
    0.4235    1.7343   -3.3241 H   0  0  0  0  0  0  0  0  0  0  0  0
    1.4894    3.0204   -2.7227 H   0  0  0  0  0  0  0  0  0  0  0  0
    2.1591    1.4165   -3.0865 H   0  0  0  0  0  0  0  0  0  0  0  0
  1  2  1  0  0  0  0
  2  3  1  0  0  0  0
  2  4  1  0  0  0  0
  2  5  1  0  0  0  0
  5  6  2  0  0  0  0
  5  7  1  0  0  0  0
  7  8  1  0  0  0  0
  7  9  1  0  0  0  0
  9 10  1  0  0  0  0
  9 11  1  0  0  0  0
  9 15  1  0  0  0  0
 11 12  1  0  0  0  0
 11 13  1  0  0  0  0
 11 14  1  0  0  0  0
 15 16  2  0  0  0  0
 15 17  1  0  0  0  0
 17 18  1  0  0  0  0
 17 19  1  0  0  0  0
 19 20  1  0  0  0  0
 19 21  1  0  0  0  0
 19 22  1  0  0  0  0
M  END
$$$$

  -OEChem-11182114133D

 22 21  0     1  0  0  0  0  0999 V2000
   -2.7860   -3.5646    1.0109 H   0  0  0  0  0  0  0  0  0  0  0  0
   -2.6431   -2.5711    0.5765 C   0  0  0  0  0  0  0  0  0  0  0  0
   -3.4707   -1.9285    0.8860 H   0  0  0  0  0  0  0  0  0  0  0  0
   -2.6462   -2.6614   -0.5127 H   0  0  0  0  0  0  0  0  0  0  0  0
   -1.3256   -1.9796    1.0420 C   0  0  0  0  0  0  0  0  0  0  0  0
   -0.6639   -2.5986    1.8581 O   0  0  0  0  0  0  0  0  0  0  0  0
   -0.9671   -0.7281    0.5708 N   0  0  0  0  0  0  0  0  0  0  0  0
   -1.5934   -0.4024   -0.1615 H   0  0  0  0  0  0  0  0  0  0  0  0
    0.3844   -0.1223    0.5136 C   0  0  1  0  0  0  0  0  0  0  0  0
    0.3359    0.8151    1.0752 H   0  0  0  0  0  0  0  0  0  0  0  0
    1.5374   -0.9453    1.1096 C   0  0  0  0  0  0  0  0  0  0  0  0
    1.6127   -1.9194    0.6149 H   0  0  0  0  0  0  0  0  0  0  0  0
    2.4889   -0.4207    0.9809 H   0  0  0  0  0  0  0  0  0  0  0  0
    1.3831   -1.1023    2.1814 H   0  0  0  0  0  0  0  0  0  0  0  0
    0.7542    0.2186   -0.9476 C   0  0  0  0  0  0  0  0  0  0  0  0
    0.3787   -0.4970   -1.8683 O   0  0  0  0  0  0  0  0  0  0  0  0
    1.3298    1.4401   -1.2486 N   0  0  0  0  0  0  0  0  0  0  0  0
    1.6144    2.0317   -0.4737 H   0  0  0  0  0  0  0  0  0  0  0  0
    1.6175    1.8761   -2.6101 C   0  0  0  0  0  0  0  0  0  0  0  0
    0.6942    1.9406   -3.1955 H   0  0  0  0  0  0  0  0  0  0  0  0
    2.0887    2.8637   -2.5996 H   0  0  0  0  0  0  0  0  0  0  0  0
    2.2982    1.1732   -3.1019 H   0  0  0  0  0  0  0  0  0  0  0  0
  1  2  1  0  0  0  0
  2  3  1  0  0  0  0
  2  4  1  0  0  0  0
  2  5  1  0  0  0  0
  5  6  2  0  0  0  0
  5  7  1  0  0  0  0
  7  8  1  0  0  0  0
  7  9  1  0  0  0  0
  9 10  1  0  0  0  0
  9 11  1  0  0  0  0
  9 15  1  0  0  0  0
 11 12  1  0  0  0  0
 11 13  1  0  0  0  0
 11 14  1  0  0  0  0
 15 16  2  0  0  0  0
 15 17  1  0  0  0  0
 17 18  1  0  0  0  0
 17 19  1  0  0  0  0
 19 20  1  0  0  0  0
 19 21  1  0  0  0  0
 19 22  1  0  0  0  0
M  END
$$$$

  -OEChem-11182114133D

 22 21  0     1  0  0  0  0  0999 V2000
   -2.7901   -3.5688    1.0048 H   0  0  0  0  0  0  0  0  0  0  0  0
   -2.6495   -2.5703    0.5814 C   0  0  0  0  0  0  0  0  0  0  0  0
   -3.4727   -1.9301    0.9073 H   0  0  0  0  0  0  0  0  0  0  0  0
   -2.6645   -2.6466   -0.5087 H   0  0  0  0  0  0  0  0  0  0  0  0
   -1.3258   -1.9872    1.0400 C   0  0  0  0  0  0  0  0  0  0  0  0
   -0.6558   -2.6188    1.8397 O   0  0  0  0  0  0  0  0  0  0  0  0
   -0.9648   -0.7359    0.5703 N   0  0  0  0  0  0  0  0  0  0  0  0
   -1.5859   -0.4099   -0.1674 H   0  0  0  0  0  0  0  0  0  0  0  0
    0.3839   -0.1238    0.5170 C   0  0  1  0  0  0  0  0  0  0  0  0
    0.3278    0.8170    1.0723 H   0  0  0  0  0  0  0  0  0  0  0  0
    1.5349   -0.9407    1.1265 C   0  0  0  0  0  0  0  0  0  0  0  0
    1.6234   -1.9126    0.6302 H   0  0  0  0  0  0  0  0  0  0  0  0
    2.4850   -0.4104    1.0137 H   0  0  0  0  0  0  0  0  0  0  0  0
    1.3668   -1.1023    2.1957 H   0  0  0  0  0  0  0  0  0  0  0  0
    0.7591    0.2179   -0.9439 C   0  0  0  0  0  0  0  0  0  0  0  0
    0.1839   -0.3279   -1.8790 O   0  0  0  0  0  0  0  0  0  0  0  0
    1.5983    1.2842   -1.2130 N   0  0  0  0  0  0  0  0  0  0  0  0
    2.0498    1.7392   -0.4251 H   0  0  0  0  0  0  0  0  0  0  0  0
    1.9303    1.7199   -2.5645 C   0  0  0  0  0  0  0  0  0  0  0  0
    1.0280    2.0372   -3.0978 H   0  0  0  0  0  0  0  0  0  0  0  0
    2.6255    2.5640   -2.5301 H   0  0  0  0  0  0  0  0  0  0  0  0
    2.4025    0.9059   -3.1246 H   0  0  0  0  0  0  0  0  0  0  0  0
  1  2  1  0  0  0  0
  2  3  1  0  0  0  0
  2  4  1  0  0  0  0
  2  5  1  0  0  0  0
  5  6  2  0  0  0  0
  5  7  1  0  0  0  0
  7  8  1  0  0  0  0
  7  9  1  0  0  0  0
  9 10  1  0  0  0  0
  9 11  1  0  0  0  0
  9 15  1  0  0  0  0
 11 12  1  0  0  0  0
 11 13  1  0  0  0  0
 11 14  1  0  0  0  0
 15 16  2  0  0  0  0
 15 17  1  0  0  0  0
 17 18  1  0  0  0  0
 17 19  1  0  0  0  0
 19 20  1  0  0  0  0
 19 21  1  0  0  0  0
 19 22  1  0  0  0  0
M  END
$$$$

  -OEChem-11182114133D

 22 21  0     1  0  0  0  0  0999 V2000
   -2.8016   -3.5682    0.9951 H   0  0  0  0  0  0  0  0  0  0  0  0
   -2.6568   -2.5659    0.5822 C   0  0  0  0  0  0  0  0  0  0  0  0
   -3.4707   -1.9225    0.9248 H   0  0  0  0  0  0  0  0  0  0  0  0
   -2.6846   -2.6284   -0.5086 H   0  0  0  0  0  0  0  0  0  0  0  0
   -1.3229   -1.9996    1.0324 C   0  0  0  0  0  0  0  0  0  0  0  0
   -0.6439   -2.6516    1.8077 O   0  0  0  0  0  0  0  0  0  0  0  0
   -0.9567   -0.7478    0.5688 N   0  0  0  0  0  0  0  0  0  0  0  0
   -1.5799   -0.4098   -0.1627 H   0  0  0  0  0  0  0  0  0  0  0  0
    0.3878   -0.1262    0.5224 C   0  0  1  0  0  0  0  0  0  0  0  0
    0.3221    0.8167    1.0729 H   0  0  0  0  0  0  0  0  0  0  0  0
    1.5343   -0.9361    1.1514 C   0  0  0  0  0  0  0  0  0  0  0  0
    1.6425   -1.9041    0.6513 H   0  0  0  0  0  0  0  0  0  0  0  0
    2.4822   -0.3974    1.0660 H   0  0  0  0  0  0  0  0  0  0  0  0
    1.3439   -1.1060    2.2156 H   0  0  0  0  0  0  0  0  0  0  0  0
    0.7659    0.2190   -0.9384 C   0  0  0  0  0  0  0  0  0  0  0  0
    0.0428   -0.1296   -1.8659 O   0  0  0  0  0  0  0  0  0  0  0  0
    1.8206    1.0737   -1.2064 N   0  0  0  0  0  0  0  0  0  0  0  0
    2.4031    1.3619   -0.4259 H   0  0  0  0  0  0  0  0  0  0  0  0
    2.1925    1.4883   -2.5542 C   0  0  0  0  0  0  0  0  0  0  0  0
    1.3680    2.0287   -3.0309 H   0  0  0  0  0  0  0  0  0  0  0  0
    3.0639    2.1492   -2.5204 H   0  0  0  0  0  0  0  0  0  0  0  0
    2.4434    0.6166   -3.1678 H   0  0  0  0  0  0  0  0  0  0  0  0
  1  2  1  0  0  0  0
  2  3  1  0  0  0  0
  2  4  1  0  0  0  0
  2  5  1  0  0  0  0
  5  6  2  0  0  0  0
  5  7  1  0  0  0  0
  7  8  1  0  0  0  0
  7  9  1  0  0  0  0
  9 10  1  0  0  0  0
  9 11  1  0  0  0  0
  9 15  1  0  0  0  0
 11 12  1  0  0  0  0
 11 13  1  0  0  0  0
 11 14  1  0  0  0  0
 15 16  2  0  0  0  0
 15 17  1  0  0  0  0
 17 18  1  0  0  0  0
 17 19  1  0  0  0  0
 19 20  1  0  0  0  0
 19 21  1  0  0  0  0
 19 22  1  0  0  0  0
M  END
$$$$

  -OEChem-11182114133D

 22 21  0     1  0  0  0  0  0999 V2000
   -2.8280   -3.5438    1.0088 H   0  0  0  0  0  0  0  0  0  0  0  0
   -2.6733   -2.5430    0.5959 C   0  0  0  0  0  0  0  0  0  0  0  0
   -3.4636   -1.8843    0.9637 H   0  0  0  0  0  0  0  0  0  0  0  0
   -2.7335   -2.5998   -0.4936 H   0  0  0  0  0  0  0  0  0  0  0  0
   -1.3158   -2.0070    1.0125 C   0  0  0  0  0  0  0  0  0  0  0  0
   -0.6299   -2.6712    1.7711 O   0  0  0  0  0  0  0  0  0  0  0  0
   -0.9329   -0.7596    0.5534 N   0  0  0  0  0  0  0  0  0  0  0  0
   -1.5685   -0.3722   -0.1447 H   0  0  0  0  0  0  0  0  0  0  0  0
    0.4094   -0.1345    0.5272 C   0  0  1  0  0  0  0  0  0  0  0  0
    0.4366    0.6501    1.2892 H   0  0  0  0  0  0  0  0  0  0  0  0
    1.5801   -1.1011    0.7945 C   0  0  0  0  0  0  0  0  0  0  0  0
    1.5336   -1.9580    0.1146 H   0  0  0  0  0  0  0  0  0  0  0  0
    2.5435   -0.6026    0.6579 H   0  0  0  0  0  0  0  0  0  0  0  0
    1.5498   -1.4652    1.8256 H   0  0  0  0  0  0  0  0  0  0  0  0
    0.6287    0.5350   -0.8543 C   0  0  0  0  0  0  0  0  0  0  0  0
   -0.2824    0.5599   -1.6766 O   0  0  0  0  0  0  0  0  0  0  0  0
    1.8067    1.1972   -1.1529 N   0  0  0  0  0  0  0  0  0  0  0  0
    2.5486    1.1735   -0.4596 H   0  0  0  0  0  0  0  0  0  0  0  0
    2.0510    1.8667   -2.4251 C   0  0  0  0  0  0  0  0  0  0  0  0
    1.3216    2.6681   -2.5833 H   0  0  0  0  0  0  0  0  0  0  0  0
    3.0534    2.3054   -2.4354 H   0  0  0  0  0  0  0  0  0  0  0  0
    1.9772    1.1543   -3.2535 H   0  0  0  0  0  0  0  0  0  0  0  0
  1  2  1  0  0  0  0
  2  3  1  0  0  0  0
  2  4  1  0  0  0  0
  2  5  1  0  0  0  0
  5  6  2  0  0  0  0
  5  7  1  0  0  0  0
  7  8  1  0  0  0  0
  7  9  1  0  0  0  0
  9 10  1  0  0  0  0
  9 11  1  0  0  0  0
  9 15  1  0  0  0  0
 11 12  1  0  0  0  0
 11 13  1  0  0  0  0
 11 14  1  0  0  0  0
 15 16  2  0  0  0  0
 15 17  1  0  0  0  0
 17 18  1  0  0  0  0
 17 19  1  0  0  0  0
 19 20  1  0  0  0  0
 19 21  1  0  0  0  0
 19 22  1  0  0  0  0
M  END
$$$$

  -OEChem-11182114133D

 22 21  0     1  0  0  0  0  0999 V2000
   -2.8461   -3.5417    0.9677 H   0  0  0  0  0  0  0  0  0  0  0  0
   -2.6935   -2.5237    0.5986 C   0  0  0  0  0  0  0  0  0  0  0  0
   -3.4542   -1.8725    1.0356 H   0  0  0  0  0  0  0  0  0  0  0  0
   -2.8044   -2.5241   -0.4885 H   0  0  0  0  0  0  0  0  0  0  0  0
   -1.3101   -2.0293    0.9787 C   0  0  0  0  0  0  0  0  0  0  0  0
   -0.6141   -2.7309    1.6928 O   0  0  0  0  0  0  0  0  0  0  0  0
   -0.9142   -0.7818    0.5303 N   0  0  0  0  0  0  0  0  0  0  0  0
   -1.5678   -0.3531   -0.1259 H   0  0  0  0  0  0  0  0  0  0  0  0
    0.4234   -0.1458    0.5248 C   0  0  1  0  0  0  0  0  0  0  0  0
    0.4268    0.6468    1.2789 H   0  0  0  0  0  0  0  0  0  0  0  0
    1.5955   -1.0960    0.8424 C   0  0  0  0  0  0  0  0  0  0  0  0
    1.5990   -1.9467    0.1532 H   0  0  0  0  0  0  0  0  0  0  0  0
    2.5558   -0.5796    0.7649 H   0  0  0  0  0  0  0  0  0  0  0  0
    1.5178   -1.4707    1.8671 H   0  0  0  0  0  0  0  0  0  0  0  0
    0.6502    0.5227   -0.8574 C   0  0  0  0  0  0  0  0  0  0  0  0
   -0.3108    0.7393   -1.5898 O   0  0  0  0  0  0  0  0  0  0  0  0
    1.9036    0.9313   -1.2799 N   0  0  0  0  0  0  0  0  0  0  0  0
    2.6927    0.7300   -0.6732 H   0  0  0  0  0  0  0  0  0  0  0  0
    2.1508    1.5565   -2.5739 C   0  0  0  0  0  0  0  0  0  0  0  0
    1.5481    2.4643   -2.6832 H   0  0  0  0  0  0  0  0  0  0  0  0
    3.2059    1.8309   -2.6665 H   0  0  0  0  0  0  0  0  0  0  0  0
    1.8992    0.8668   -3.3862 H   0  0  0  0  0  0  0  0  0  0  0  0
  1  2  1  0  0  0  0
  2  3  1  0  0  0  0
  2  4  1  0  0  0  0
  2  5  1  0  0  0  0
  5  6  2  0  0  0  0
  5  7  1  0  0  0  0
  7  8  1  0  0  0  0
  7  9  1  0  0  0  0
  9 10  1  0  0  0  0
  9 11  1  0  0  0  0
  9 15  1  0  0  0  0
 11 12  1  0  0  0  0
 11 13  1  0  0  0  0
 11 14  1  0  0  0  0
 15 16  2  0  0  0  0
 15 17  1  0  0  0  0
 17 18  1  0  0  0  0
 17 19  1  0  0  0  0
 19 20  1  0  0  0  0
 19 21  1  0  0  0  0
 19 22  1  0  0  0  0
M  END
$$$$

  -OEChem-11182114133D

 22 21  0     1  0  0  0  0  0999 V2000
   -2.8670   -3.5318    0.9713 H   0  0  0  0  0  0  0  0  0  0  0  0
   -2.7065   -2.5141    0.6044 C   0  0  0  0  0  0  0  0  0  0  0  0
   -3.4422   -1.8525    1.0680 H   0  0  0  0  0  0  0  0  0  0  0  0
   -2.8497   -2.5052   -0.4788 H   0  0  0  0  0  0  0  0  0  0  0  0
   -1.3035   -2.0474    0.9464 C   0  0  0  0  0  0  0  0  0  0  0  0
   -0.5925   -2.7768    1.6163 O   0  0  0  0  0  0  0  0  0  0  0  0
   -0.9019   -0.7999    0.5026 N   0  0  0  0  0  0  0  0  0  0  0  0
   -1.5745   -0.3361   -0.1086 H   0  0  0  0  0  0  0  0  0  0  0  0
    0.4310   -0.1552    0.5155 C   0  0  1  0  0  0  0  0  0  0  0  0
    0.4095    0.6474    1.2588 H   0  0  0  0  0  0  0  0  0  0  0  0
    1.6072   -1.0822    0.8822 C   0  0  0  0  0  0  0  0  0  0  0  0
    1.6531   -1.9362    0.1986 H   0  0  0  0  0  0  0  0  0  0  0  0
    2.5587   -0.5449    0.8400 H   0  0  0  0  0  0  0  0  0  0  0  0
    1.4975   -1.4535    1.9054 H   0  0  0  0  0  0  0  0  0  0  0  0
    0.6658    0.5070   -0.8680 C   0  0  0  0  0  0  0  0  0  0  0  0
   -0.3002    0.9217   -1.5009 O   0  0  0  0  0  0  0  0  0  0  0  0
    1.9268    0.6528   -1.4207 N   0  0  0  0  0  0  0  0  0  0  0  0
    2.7094    0.2527   -0.9120 H   0  0  0  0  0  0  0  0  0  0  0  0
    2.1670    1.2396   -2.7338 C   0  0  0  0  0  0  0  0  0  0  0  0
    1.7620    2.2561   -2.7805 H   0  0  0  0  0  0  0  0  0  0  0  0
    3.2415    1.2882   -2.9350 H   0  0  0  0  0  0  0  0  0  0  0  0
    1.6946    0.6355   -3.5155 H   0  0  0  0  0  0  0  0  0  0  0  0
  1  2  1  0  0  0  0
  2  3  1  0  0  0  0
  2  4  1  0  0  0  0
  2  5  1  0  0  0  0
  5  6  2  0  0  0  0
  5  7  1  0  0  0  0
  7  8  1  0  0  0  0
  7  9  1  0  0  0  0
  9 10  1  0  0  0  0
  9 11  1  0  0  0  0
  9 15  1  0  0  0  0
 11 12  1  0  0  0  0
 11 13  1  0  0  0  0
 11 14  1  0  0  0  0
 15 16  2  0  0  0  0
 15 17  1  0  0  0  0
 17 18  1  0  0  0  0
 17 19  1  0  0  0  0
 19 20  1  0  0  0  0
 19 21  1  0  0  0  0
 19 22  1  0  0  0  0
M  END
$$$$

  -OEChem-11182114133D

 22 21  0     1  0  0  0  0  0999 V2000
   -2.8813   -3.5237    0.9971 H   0  0  0  0  0  0  0  0  0  0  0  0
   -2.7169   -2.5094    0.6226 C   0  0  0  0  0  0  0  0  0  0  0  0
   -3.4248   -1.8353    1.1107 H   0  0  0  0  0  0  0  0  0  0  0  0
   -2.8975   -2.4992   -0.4550 H   0  0  0  0  0  0  0  0  0  0  0  0
   -1.2955   -2.0653    0.9139 C   0  0  0  0  0  0  0  0  0  0  0  0
   -0.5644   -2.8172    1.5355 O   0  0  0  0  0  0  0  0  0  0  0  0
   -0.8959   -0.8171    0.4698 N   0  0  0  0  0  0  0  0  0  0  0  0
   -1.5920   -0.3231   -0.0878 H   0  0  0  0  0  0  0  0  0  0  0  0
    0.4307   -0.1616    0.4977 C   0  0  1  0  0  0  0  0  0  0  0  0
    0.3872    0.6494    1.2312 H   0  0  0  0  0  0  0  0  0  0  0  0
    1.6118   -1.0655    0.9008 C   0  0  0  0  0  0  0  0  0  0  0  0
    1.6826   -1.9306    0.2337 H   0  0  0  0  0  0  0  0  0  0  0  0
    2.5544   -0.5115    0.8631 H   0  0  0  0  0  0  0  0  0  0  0  0
    1.4875   -1.4213    1.9280 H   0  0  0  0  0  0  0  0  0  0  0  0
    0.6760    0.4930   -0.8854 C   0  0  0  0  0  0  0  0  0  0  0  0
   -0.2470    1.0952   -1.4227 O   0  0  0  0  0  0  0  0  0  0  0  0
    1.8785    0.3836   -1.5629 N   0  0  0  0  0  0  0  0  0  0  0  0
    2.6009   -0.1909   -1.1389 H   0  0  0  0  0  0  0  0  0  0  0  0
    2.1049    0.9327   -2.8943 C   0  0  0  0  0  0  0  0  0  0  0  0
    1.9318    2.0140   -2.8977 H   0  0  0  0  0  0  0  0  0  0  0  0
    3.1368    0.7484   -3.2083 H   0  0  0  0  0  0  0  0  0  0  0  0
    1.4327    0.4655   -3.6215 H   0  0  0  0  0  0  0  0  0  0  0  0
  1  2  1  0  0  0  0
  2  3  1  0  0  0  0
  2  4  1  0  0  0  0
  2  5  1  0  0  0  0
  5  6  2  0  0  0  0
  5  7  1  0  0  0  0
  7  8  1  0  0  0  0
  7  9  1  0  0  0  0
  9 10  1  0  0  0  0
  9 11  1  0  0  0  0
  9 15  1  0  0  0  0
 11 12  1  0  0  0  0
 11 13  1  0  0  0  0
 11 14  1  0  0  0  0
 15 16  2  0  0  0  0
 15 17  1  0  0  0  0
 17 18  1  0  0  0  0
 17 19  1  0  0  0  0
 19 20  1  0  0  0  0
 19 21  1  0  0  0  0
 19 22  1  0  0  0  0
M  END
$$$$

  -OEChem-11182114133D

 22 21  0     1  0  0  0  0  0999 V2000
   -2.8865   -3.5173    1.0172 H   0  0  0  0  0  0  0  0  0  0  0  0
   -2.7222   -2.5061    0.6344 C   0  0  0  0  0  0  0  0  0  0  0  0
   -3.4085   -1.8231    1.1407 H   0  0  0  0  0  0  0  0  0  0  0  0
   -2.9344   -2.4978   -0.4376 H   0  0  0  0  0  0  0  0  0  0  0  0
   -1.2877   -2.0770    0.8835 C   0  0  0  0  0  0  0  0  0  0  0  0
   -0.5410   -2.8448    1.4658 O   0  0  0  0  0  0  0  0  0  0  0  0
   -0.8917   -0.8267    0.4418 N   0  0  0  0  0  0  0  0  0  0  0  0
   -1.6080   -0.3074   -0.0641 H   0  0  0  0  0  0  0  0  0  0  0  0
    0.4303   -0.1635    0.4835 C   0  0  1  0  0  0  0  0  0  0  0  0
    0.3726    0.6500    1.2135 H   0  0  0  0  0  0  0  0  0  0  0  0
    1.6156   -1.0527    0.9053 C   0  0  0  0  0  0  0  0  0  0  0  0
    1.6951   -1.9309    0.2566 H   0  0  0  0  0  0  0  0  0  0  0  0
    2.5537   -0.4916    0.8555 H   0  0  0  0  0  0  0  0  0  0  0  0
    1.4893   -1.3900    1.9387 H   0  0  0  0  0  0  0  0  0  0  0  0
    0.6850    0.4885   -0.8964 C   0  0  0  0  0  0  0  0  0  0  0  0
   -0.1559    1.2604   -1.3418 O   0  0  0  0  0  0  0  0  0  0  0  0
    1.7625    0.1463   -1.6952 N   0  0  0  0  0  0  0  0  0  0  0  0
    2.3888   -0.5737   -1.3466 H   0  0  0  0  0  0  0  0  0  0  0  0
    1.9525    0.6525   -3.0491 C   0  0  0  0  0  0  0  0  0  0  0  0
    2.0329    1.7447   -3.0423 H   0  0  0  0  0  0  0  0  0  0  0  0
    2.8703    0.2419   -3.4811 H   0  0  0  0  0  0  0  0  0  0  0  0
    1.1108    0.3647   -3.6878 H   0  0  0  0  0  0  0  0  0  0  0  0
  1  2  1  0  0  0  0
  2  3  1  0  0  0  0
  2  4  1  0  0  0  0
  2  5  1  0  0  0  0
  5  6  2  0  0  0  0
  5  7  1  0  0  0  0
  7  8  1  0  0  0  0
  7  9  1  0  0  0  0
  9 10  1  0  0  0  0
  9 11  1  0  0  0  0
  9 15  1  0  0  0  0
 11 12  1  0  0  0  0
 11 13  1  0  0  0  0
 11 14  1  0  0  0  0
 15 16  2  0  0  0  0
 15 17  1  0  0  0  0
 17 18  1  0  0  0  0
 17 19  1  0  0  0  0
 19 20  1  0  0  0  0
 19 21  1  0  0  0  0
 19 22  1  0  0  0  0
M  END
$$$$

  -OEChem-11182114133D

 22 21  0     1  0  0  0  0  0999 V2000
   -2.8863   -3.5164    1.0563 H   0  0  0  0  0  0  0  0  0  0  0  0
   -2.7288   -2.5079    0.6633 C   0  0  0  0  0  0  0  0  0  0  0  0
   -3.3972   -1.8194    1.1858 H   0  0  0  0  0  0  0  0  0  0  0  0
   -2.9718   -2.5039   -0.4020 H   0  0  0  0  0  0  0  0  0  0  0  0
   -1.2860   -2.0848    0.8679 C   0  0  0  0  0  0  0  0  0  0  0  0
   -0.5231   -2.8607    1.4171 O   0  0  0  0  0  0  0  0  0  0  0  0
   -0.8981   -0.8347    0.4178 N   0  0  0  0  0  0  0  0  0  0  0  0
   -1.6339   -0.2994   -0.0397 H   0  0  0  0  0  0  0  0  0  0  0  0
    0.4212   -0.1661    0.4603 C   0  0  1  0  0  0  0  0  0  0  0  0
    0.3573    0.6497    1.1874 H   0  0  0  0  0  0  0  0  0  0  0  0
    1.6129   -1.0434    0.8868 C   0  0  0  0  0  0  0  0  0  0  0  0
    1.6931   -1.9327    0.2538 H   0  0  0  0  0  0  0  0  0  0  0  0
    2.5474   -0.4781    0.8174 H   0  0  0  0  0  0  0  0  0  0  0  0
    1.4952   -1.3642    1.9265 H   0  0  0  0  0  0  0  0  0  0  0  0
    0.6845    0.4792   -0.9188 C   0  0  0  0  0  0  0  0  0  0  0  0
   -0.0110    1.4250   -1.2661 O   0  0  0  0  0  0  0  0  0  0  0  0
    1.5737   -0.0662   -1.8284 N   0  0  0  0  0  0  0  0  0  0  0  0
    2.0504   -0.9209   -1.5546 H   0  0  0  0  0  0  0  0  0  0  0  0
    1.7437    0.4345   -3.1870 C   0  0  0  0  0  0  0  0  0  0  0  0
    2.0600    1.4829   -3.1722 H   0  0  0  0  0  0  0  0  0  0  0  0
    2.5068   -0.1483   -3.7120 H   0  0  0  0  0  0  0  0  0  0  0  0
    0.8043    0.3574   -3.7447 H   0  0  0  0  0  0  0  0  0  0  0  0
  1  2  1  0  0  0  0
  2  3  1  0  0  0  0
  2  4  1  0  0  0  0
  2  5  1  0  0  0  0
  5  6  2  0  0  0  0
  5  7  1  0  0  0  0
  7  8  1  0  0  0  0
  7  9  1  0  0  0  0
  9 10  1  0  0  0  0
  9 11  1  0  0  0  0
  9 15  1  0  0  0  0
 11 12  1  0  0  0  0
 11 13  1  0  0  0  0
 11 14  1  0  0  0  0
 15 16  2  0  0  0  0
 15 17  1  0  0  0  0
 17 18  1  0  0  0  0
 17 19  1  0  0  0  0
 19 20  1  0  0  0  0
 19 21  1  0  0  0  0
 19 22  1  0  0  0  0
M  END
$$$$

  -OEChem-11182114133D

 22 21  0     1  0  0  0  0  0999 V2000
   -2.8872   -3.5231    1.1113 H   0  0  0  0  0  0  0  0  0  0  0  0
   -2.7404   -2.5161    0.7100 C   0  0  0  0  0  0  0  0  0  0  0  0
   -3.3871   -1.8239    1.2548 H   0  0  0  0  0  0  0  0  0  0  0  0
   -3.0226   -2.5147   -0.3456 H   0  0  0  0  0  0  0  0  0  0  0  0
   -1.2891   -2.0975    0.8601 C   0  0  0  0  0  0  0  0  0  0  0  0
   -0.5058   -2.8799    1.3691 O   0  0  0  0  0  0  0  0  0  0  0  0
   -0.9145   -0.8473    0.3977 N   0  0  0  0  0  0  0  0  0  0  0  0
   -1.6720   -0.3010   -0.0067 H   0  0  0  0  0  0  0  0  0  0  0  0
    0.4009   -0.1686    0.4317 C   0  0  1  0  0  0  0  0  0  0  0  0
    0.3342    0.6480    1.1581 H   0  0  0  0  0  0  0  0  0  0  0  0
    1.6050   -1.0325    0.8486 C   0  0  0  0  0  0  0  0  0  0  0  0
    1.6866   -1.9254    0.2212 H   0  0  0  0  0  0  0  0  0  0  0  0
    2.5330   -0.4590    0.7602 H   0  0  0  0  0  0  0  0  0  0  0  0
    1.5040   -1.3466    1.8921 H   0  0  0  0  0  0  0  0  0  0  0  0
    0.6680    0.4709   -0.9474 C   0  0  0  0  0  0  0  0  0  0  0  0
    0.1808    1.5642   -1.2008 O   0  0  0  0  0  0  0  0  0  0  0  0
    1.3161   -0.2259   -1.9515 N   0  0  0  0  0  0  0  0  0  0  0  0
    1.6202   -1.1715   -1.7366 H   0  0  0  0  0  0  0  0  0  0  0  0
    1.4964    0.2884   -3.3033 C   0  0  0  0  0  0  0  0  0  0  0  0
    2.0515    1.2321   -3.2831 H   0  0  0  0  0  0  0  0  0  0  0  0
    2.0586   -0.4291   -3.9085 H   0  0  0  0  0  0  0  0  0  0  0  0
    0.5263    0.4598   -3.7812 H   0  0  0  0  0  0  0  0  0  0  0  0
  1  2  1  0  0  0  0
  2  3  1  0  0  0  0
  2  4  1  0  0  0  0
  2  5  1  0  0  0  0
  5  6  2  0  0  0  0
  5  7  1  0  0  0  0
  7  8  1  0  0  0  0
  7  9  1  0  0  0  0
  9 10  1  0  0  0  0
  9 11  1  0  0  0  0
  9 15  1  0  0  0  0
 11 12  1  0  0  0  0
 11 13  1  0  0  0  0
 11 14  1  0  0  0  0
 15 16  2  0  0  0  0
 15 17  1  0  0  0  0
 17 18  1  0  0  0  0
 17 19  1  0  0  0  0
 19 20  1  0  0  0  0
 19 21  1  0  0  0  0
 19 22  1  0  0  0  0
M  END
$$$$

  -OEChem-11182114133D

 22 21  0     1  0  0  0  0  0999 V2000
   -2.8863   -3.5258    1.1782 H   0  0  0  0  0  0  0  0  0  0  0  0
   -2.7500   -2.5247    0.7587 C   0  0  0  0  0  0  0  0  0  0  0  0
   -3.3706   -1.8222    1.3205 H   0  0  0  0  0  0  0  0  0  0  0  0
   -3.0744   -2.5342   -0.2847 H   0  0  0  0  0  0  0  0  0  0  0  0
   -1.2917   -2.1132    0.8462 C   0  0  0  0  0  0  0  0  0  0  0  0
   -0.4886   -2.9058    1.3058 O   0  0  0  0  0  0  0  0  0  0  0  0
   -0.9332   -0.8603    0.3782 N   0  0  0  0  0  0  0  0  0  0  0  0
   -1.7088   -0.3074    0.0207 H   0  0  0  0  0  0  0  0  0  0  0  0
    0.3766   -0.1688    0.4084 C   0  0  1  0  0  0  0  0  0  0  0  0
    0.3063    0.6439    1.1390 H   0  0  0  0  0  0  0  0  0  0  0  0
    1.5933   -1.0210    0.8088 C   0  0  0  0  0  0  0  0  0  0  0  0
    1.6875   -1.9016    0.1659 H   0  0  0  0  0  0  0  0  0  0  0  0
    2.5124   -0.4324    0.7262 H   0  0  0  0  0  0  0  0  0  0  0  0
    1.5003   -1.3530    1.8473 H   0  0  0  0  0  0  0  0  0  0  0  0
    0.6447    0.4715   -0.9682 C   0  0  0  0  0  0  0  0  0  0  0  0
    0.4175    1.6613   -1.1377 O   0  0  0  0  0  0  0  0  0  0  0  0
    1.0152   -0.3087   -2.0482 N   0  0  0  0  0  0  0  0  0  0  0  0
    1.1337   -1.3044   -1.8805 H   0  0  0  0  0  0  0  0  0  0  0  0
    1.2102    0.2166   -3.3934 C   0  0  0  0  0  0  0  0  0  0  0  0
    1.9933    0.9820   -3.3955 H   0  0  0  0  0  0  0  0  0  0  0  0
    1.5106   -0.5865   -4.0733 H   0  0  0  0  0  0  0  0  0  0  0  0
    0.2826    0.6601   -3.7699 H   0  0  0  0  0  0  0  0  0  0  0  0
  1  2  1  0  0  0  0
  2  3  1  0  0  0  0
  2  4  1  0  0  0  0
  2  5  1  0  0  0  0
  5  6  2  0  0  0  0
  5  7  1  0  0  0  0
  7  8  1  0  0  0  0
  7  9  1  0  0  0  0
  9 10  1  0  0  0  0
  9 11  1  0  0  0  0
  9 15  1  0  0  0  0
 11 12  1  0  0  0  0
 11 13  1  0  0  0  0
 11 14  1  0  0  0  0
 15 16  2  0  0  0  0
 15 17  1  0  0  0  0
 17 18  1  0  0  0  0
 17 19  1  0  0  0  0
 19 20  1  0  0  0  0
 19 21  1  0  0  0  0
 19 22  1  0  0  0  0
M  END
$$$$

  -OEChem-11182114133D

 22 21  0     1  0  0  0  0  0999 V2000
   -2.8812   -3.5345    1.2083 H   0  0  0  0  0  0  0  0  0  0  0  0
   -2.7534   -2.5341    0.7849 C   0  0  0  0  0  0  0  0  0  0  0  0
   -3.3690   -1.8324    1.3528 H   0  0  0  0  0  0  0  0  0  0  0  0
   -3.0902   -2.5467   -0.2544 H   0  0  0  0  0  0  0  0  0  0  0  0
   -1.2956   -2.1179    0.8530 C   0  0  0  0  0  0  0  0  0  0  0  0
   -0.4825   -2.9108    1.2930 O   0  0  0  0  0  0  0  0  0  0  0  0
   -0.9489   -0.8630    0.3810 N   0  0  0  0  0  0  0  0  0  0  0  0
   -1.7350   -0.3096    0.0490 H   0  0  0  0  0  0  0  0  0  0  0  0
    0.3585   -0.1635    0.3997 C   0  0  1  0  0  0  0  0  0  0  0  0
    0.2947    0.6438    1.1370 H   0  0  0  0  0  0  0  0  0  0  0  0
    1.5851   -1.0142    0.7684 C   0  0  0  0  0  0  0  0  0  0  0  0
    1.6746   -1.8819    0.1074 H   0  0  0  0  0  0  0  0  0  0  0  0
    2.4993   -0.4182    0.6821 H   0  0  0  0  0  0  0  0  0  0  0  0
    1.5102   -1.3645    1.8024 H   0  0  0  0  0  0  0  0  0  0  0  0
    0.6185    0.4802   -0.9760 C   0  0  0  0  0  0  0  0  0  0  0  0
    0.6894    1.6963   -1.0818 O   0  0  0  0  0  0  0  0  0  0  0  0
    0.6802   -0.3084   -2.1099 N   0  0  0  0  0  0  0  0  0  0  0  0
    0.6101   -1.3138   -1.9762 H   0  0  0  0  0  0  0  0  0  0  0  0
    0.8916    0.2219   -3.4505 C   0  0  0  0  0  0  0  0  0  0  0  0
    1.8395    0.7680   -3.5013 H   0  0  0  0  0  0  0  0  0  0  0  0
    0.9231   -0.5938   -4.1792 H   0  0  0  0  0  0  0  0  0  0  0  0
    0.0781    0.9010   -3.7264 H   0  0  0  0  0  0  0  0  0  0  0  0
  1  2  1  0  0  0  0
  2  3  1  0  0  0  0
  2  4  1  0  0  0  0
  2  5  1  0  0  0  0
  5  6  2  0  0  0  0
  5  7  1  0  0  0  0
  7  8  1  0  0  0  0
  7  9  1  0  0  0  0
  9 10  1  0  0  0  0
  9 11  1  0  0  0  0
  9 15  1  0  0  0  0
 11 12  1  0  0  0  0
 11 13  1  0  0  0  0
 11 14  1  0  0  0  0
 15 16  2  0  0  0  0
 15 17  1  0  0  0  0
 17 18  1  0  0  0  0
 17 19  1  0  0  0  0
 19 20  1  0  0  0  0
 19 21  1  0  0  0  0
 19 22  1  0  0  0  0
M  END
$$$$

  -OEChem-11182114133D

 22 21  0     1  0  0  0  0  0999 V2000
   -2.8702   -3.5550    1.2490 H   0  0  0  0  0  0  0  0  0  0  0  0
   -2.7590   -2.5500    0.8316 C   0  0  0  0  0  0  0  0  0  0  0  0
   -3.3557   -1.8555    1.4281 H   0  0  0  0  0  0  0  0  0  0  0  0
   -3.1327   -2.5533   -0.1951 H   0  0  0  0  0  0  0  0  0  0  0  0
   -1.3001   -2.1317    0.8538 C   0  0  0  0  0  0  0  0  0  0  0  0
   -0.4724   -2.9277    1.2588 O   0  0  0  0  0  0  0  0  0  0  0  0
   -0.9718   -0.8715    0.3818 N   0  0  0  0  0  0  0  0  0  0  0  0
   -1.7716   -0.3175    0.0859 H   0  0  0  0  0  0  0  0  0  0  0  0
    0.3301   -0.1581    0.3881 C   0  0  1  0  0  0  0  0  0  0  0  0
    0.2692    0.6416    1.1338 H   0  0  0  0  0  0  0  0  0  0  0  0
    1.5674   -1.0041    0.7282 C   0  0  0  0  0  0  0  0  0  0  0  0
    1.6581   -1.8549    0.0456 H   0  0  0  0  0  0  0  0  0  0  0  0
    2.4752   -0.3977    0.6460 H   0  0  0  0  0  0  0  0  0  0  0  0
    1.5072   -1.3777    1.7549 H   0  0  0  0  0  0  0  0  0  0  0  0
    0.5819    0.4984   -0.9837 C   0  0  0  0  0  0  0  0  0  0  0  0
    0.9418    1.6648   -1.0524 O   0  0  0  0  0  0  0  0  0  0  0  0
    0.3425   -0.2130   -2.1450 N   0  0  0  0  0  0  0  0  0  0  0  0
    0.1139   -1.1976   -2.0365 H   0  0  0  0  0  0  0  0  0  0  0  0
    0.5989    0.3163   -3.4785 C   0  0  0  0  0  0  0  0  0  0  0  0
    1.6583    0.5687   -3.5938 H   0  0  0  0  0  0  0  0  0  0  0  0
    0.3355   -0.4270   -4.2371 H   0  0  0  0  0  0  0  0  0  0  0  0
    0.0008    1.2165   -3.6551 H   0  0  0  0  0  0  0  0  0  0  0  0
  1  2  1  0  0  0  0
  2  3  1  0  0  0  0
  2  4  1  0  0  0  0
  2  5  1  0  0  0  0
  5  6  2  0  0  0  0
  5  7  1  0  0  0  0
  7  8  1  0  0  0  0
  7  9  1  0  0  0  0
  9 10  1  0  0  0  0
  9 11  1  0  0  0  0
  9 15  1  0  0  0  0
 11 12  1  0  0  0  0
 11 13  1  0  0  0  0
 11 14  1  0  0  0  0
 15 16  2  0  0  0  0
 15 17  1  0  0  0  0
 17 18  1  0  0  0  0
 17 19  1  0  0  0  0
 19 20  1  0  0  0  0
 19 21  1  0  0  0  0
 19 22  1  0  0  0  0
M  END
$$$$

  -OEChem-11182114133D

 22 21  0     1  0  0  0  0  0999 V2000
   -2.8650   -3.5617    1.2896 H   0  0  0  0  0  0  0  0  0  0  0  0
   -2.7606   -2.5607    0.8606 C   0  0  0  0  0  0  0  0  0  0  0  0
   -3.3467   -1.8608    1.4612 H   0  0  0  0  0  0  0  0  0  0  0  0
   -3.1516   -2.5734   -0.1596 H   0  0  0  0  0  0  0  0  0  0  0  0
   -1.3014   -2.1433    0.8530 C   0  0  0  0  0  0  0  0  0  0  0  0
   -0.4672   -2.9440    1.2337 O   0  0  0  0  0  0  0  0  0  0  0  0
   -0.9839   -0.8789    0.3831 N   0  0  0  0  0  0  0  0  0  0  0  0
   -1.7927   -0.3202    0.1229 H   0  0  0  0  0  0  0  0  0  0  0  0
    0.3154   -0.1573    0.3813 C   0  0  1  0  0  0  0  0  0  0  0  0
    0.2550    0.6383    1.1310 H   0  0  0  0  0  0  0  0  0  0  0  0
    1.5562   -1.0020    0.7126 C   0  0  0  0  0  0  0  0  0  0  0  0
    1.6495   -1.8456    0.0214 H   0  0  0  0  0  0  0  0  0  0  0  0
    2.4622   -0.3921    0.6355 H   0  0  0  0  0  0  0  0  0  0  0  0
    1.4987   -1.3854    1.7358 H   0  0  0  0  0  0  0  0  0  0  0  0
    0.5675    0.5130   -0.9856 C   0  0  0  0  0  0  0  0  0  0  0  0
    1.1815    1.5686   -1.0491 O   0  0  0  0  0  0  0  0  0  0  0  0
    0.0537   -0.0460   -2.1416 N   0  0  0  0  0  0  0  0  0  0  0  0
   -0.3405   -0.9785   -2.0536 H   0  0  0  0  0  0  0  0  0  0  0  0
    0.3095    0.4930   -3.4715 C   0  0  0  0  0  0  0  0  0  0  0  0
    1.3830    0.4871   -3.6876 H   0  0  0  0  0  0  0  0  0  0  0  0
   -0.2003   -0.1107   -4.2284 H   0  0  0  0  0  0  0  0  0  0  0  0
   -0.0592    1.5215   -3.5460 H   0  0  0  0  0  0  0  0  0  0  0  0
  1  2  1  0  0  0  0
  2  3  1  0  0  0  0
  2  4  1  0  0  0  0
  2  5  1  0  0  0  0
  5  6  2  0  0  0  0
  5  7  1  0  0  0  0
  7  8  1  0  0  0  0
  7  9  1  0  0  0  0
  9 10  1  0  0  0  0
  9 11  1  0  0  0  0
  9 15  1  0  0  0  0
 11 12  1  0  0  0  0
 11 13  1  0  0  0  0
 11 14  1  0  0  0  0
 15 16  2  0  0  0  0
 15 17  1  0  0  0  0
 17 18  1  0  0  0  0
 17 19  1  0  0  0  0
 19 20  1  0  0  0  0
 19 21  1  0  0  0  0
 19 22  1  0  0  0  0
M  END
$$$$

  -OEChem-11182114133D

 22 21  0     1  0  0  0  0  0999 V2000
   -2.8593   -3.5636    1.3129 H   0  0  0  0  0  0  0  0  0  0  0  0
   -2.7594   -2.5654    0.8768 C   0  0  0  0  0  0  0  0  0  0  0  0
   -3.3360   -1.8610    1.4813 H   0  0  0  0  0  0  0  0  0  0  0  0
   -3.1646   -2.5837   -0.1377 H   0  0  0  0  0  0  0  0  0  0  0  0
   -1.2995   -2.1515    0.8471 C   0  0  0  0  0  0  0  0  0  0  0  0
   -0.4627   -2.9573    1.2100 O   0  0  0  0  0  0  0  0  0  0  0  0
   -0.9872   -0.8841    0.3808 N   0  0  0  0  0  0  0  0  0  0  0  0
   -1.8012   -0.3174    0.1577 H   0  0  0  0  0  0  0  0  0  0  0  0
    0.3114   -0.1584    0.3766 C   0  0  1  0  0  0  0  0  0  0  0  0
    0.2495    0.6352    1.1282 H   0  0  0  0  0  0  0  0  0  0  0  0
    1.5505   -1.0057    0.7123 C   0  0  0  0  0  0  0  0  0  0  0  0
    1.6479   -1.8444    0.0155 H   0  0  0  0  0  0  0  0  0  0  0  0
    2.4586   -0.3976    0.6470 H   0  0  0  0  0  0  0  0  0  0  0  0
    1.4857   -1.3953    1.7326 H   0  0  0  0  0  0  0  0  0  0  0  0
    0.5667    0.5228   -0.9871 C   0  0  0  0  0  0  0  0  0  0  0  0
    1.3762    1.4353   -1.0778 O   0  0  0  0  0  0  0  0  0  0  0  0
   -0.1781    0.1705   -2.0987 N   0  0  0  0  0  0  0  0  0  0  0  0
   -0.7196   -0.6851   -2.0191 H   0  0  0  0  0  0  0  0  0  0  0  0
    0.0533    0.7363   -3.4223 C   0  0  0  0  0  0  0  0  0  0  0  0
    1.0692    0.5112   -3.7633 H   0  0  0  0  0  0  0  0  0  0  0  0
   -0.6556    0.3164   -4.1422 H   0  0  0  0  0  0  0  0  0  0  0  0
   -0.0789    1.8233   -3.4029 H   0  0  0  0  0  0  0  0  0  0  0  0
  1  2  1  0  0  0  0
  2  3  1  0  0  0  0
  2  4  1  0  0  0  0
  2  5  1  0  0  0  0
  5  6  2  0  0  0  0
  5  7  1  0  0  0  0
  7  8  1  0  0  0  0
  7  9  1  0  0  0  0
  9 10  1  0  0  0  0
  9 11  1  0  0  0  0
  9 15  1  0  0  0  0
 11 12  1  0  0  0  0
 11 13  1  0  0  0  0
 11 14  1  0  0  0  0
 15 16  2  0  0  0  0
 15 17  1  0  0  0  0
 17 18  1  0  0  0  0
 17 19  1  0  0  0  0
 19 20  1  0  0  0  0
 19 21  1  0  0  0  0
 19 22  1  0  0  0  0
M  END
$$$$

  -OEChem-11182114133D

 22 21  0     1  0  0  0  0  0999 V2000
   -2.8563   -3.5641    1.3231 H   0  0  0  0  0  0  0  0  0  0  0  0
   -2.7566   -2.5653    0.8881 C   0  0  0  0  0  0  0  0  0  0  0  0
   -3.3161   -1.8586    1.5057 H   0  0  0  0  0  0  0  0  0  0  0  0
   -3.1814   -2.5775   -0.1184 H   0  0  0  0  0  0  0  0  0  0  0  0
   -1.2944   -2.1623    0.8312 C   0  0  0  0  0  0  0  0  0  0  0  0
   -0.4572   -2.9788    1.1681 O   0  0  0  0  0  0  0  0  0  0  0  0
   -0.9853   -0.8913    0.3710 N   0  0  0  0  0  0  0  0  0  0  0  0
   -1.8036   -0.3150    0.1954 H   0  0  0  0  0  0  0  0  0  0  0  0
    0.3127   -0.1623    0.3692 C   0  0  1  0  0  0  0  0  0  0  0  0
    0.2440    0.6307    1.1203 H   0  0  0  0  0  0  0  0  0  0  0  0
    1.5492   -1.0088    0.7226 C   0  0  0  0  0  0  0  0  0  0  0  0
    1.6636   -1.8401    0.0196 H   0  0  0  0  0  0  0  0  0  0  0  0
    2.4576   -0.3991    0.6833 H   0  0  0  0  0  0  0  0  0  0  0  0
    1.4654   -1.4089    1.7374 H   0  0  0  0  0  0  0  0  0  0  0  0
    0.5712    0.5298   -0.9917 C   0  0  0  0  0  0  0  0  0  0  0  0
    1.5303    1.2758   -1.1363 O   0  0  0  0  0  0  0  0  0  0  0  0
   -0.3485    0.4239   -2.0209 N   0  0  0  0  0  0  0  0  0  0  0  0
   -1.0256   -0.3272   -1.9336 H   0  0  0  0  0  0  0  0  0  0  0  0
   -0.1410    1.0270   -3.3324 C   0  0  0  0  0  0  0  0  0  0  0  0
    0.7586    0.6180   -3.8042 H   0  0  0  0  0  0  0  0  0  0  0  0
   -0.9976    0.8235   -3.9821 H   0  0  0  0  0  0  0  0  0  0  0  0
   -0.0287    2.1127   -3.2423 H   0  0  0  0  0  0  0  0  0  0  0  0
  1  2  1  0  0  0  0
  2  3  1  0  0  0  0
  2  4  1  0  0  0  0
  2  5  1  0  0  0  0
  5  6  2  0  0  0  0
  5  7  1  0  0  0  0
  7  8  1  0  0  0  0
  7  9  1  0  0  0  0
  9 10  1  0  0  0  0
  9 11  1  0  0  0  0
  9 15  1  0  0  0  0
 11 12  1  0  0  0  0
 11 13  1  0  0  0  0
 11 14  1  0  0  0  0
 15 16  2  0  0  0  0
 15 17  1  0  0  0  0
 17 18  1  0  0  0  0
 17 19  1  0  0  0  0
 19 20  1  0  0  0  0
 19 21  1  0  0  0  0
 19 22  1  0  0  0  0
M  END
$$$$

  -OEChem-11182114133D

 22 21  0     1  0  0  0  0  0999 V2000
   -2.8525   -3.5616    1.3289 H   0  0  0  0  0  0  0  0  0  0  0  0
   -2.7521   -2.5643    0.8902 C   0  0  0  0  0  0  0  0  0  0  0  0
   -3.3016   -1.8533    1.5117 H   0  0  0  0  0  0  0  0  0  0  0  0
   -3.1871   -2.5770   -0.1120 H   0  0  0  0  0  0  0  0  0  0  0  0
   -1.2881   -2.1694    0.8162 C   0  0  0  0  0  0  0  0  0  0  0  0
   -0.4528   -2.9943    1.1372 O   0  0  0  0  0  0  0  0  0  0  0  0
   -0.9792   -0.8965    0.3593 N   0  0  0  0  0  0  0  0  0  0  0  0
   -1.7995   -0.3140    0.2221 H   0  0  0  0  0  0  0  0  0  0  0  0
    0.3204   -0.1689    0.3588 C   0  0  1  0  0  0  0  0  0  0  0  0
    0.2449    0.6273    1.1056 H   0  0  0  0  0  0  0  0  0  0  0  0
    1.5507   -1.0150    0.7398 C   0  0  0  0  0  0  0  0  0  0  0  0
    1.6842   -1.8416    0.0347 H   0  0  0  0  0  0  0  0  0  0  0  0
    2.4594   -0.4049    0.7288 H   0  0  0  0  0  0  0  0  0  0  0  0
    1.4423   -1.4206    1.7500 H   0  0  0  0  0  0  0  0  0  0  0  0
    0.5816    0.5289   -1.0018 C   0  0  0  0  0  0  0  0  0  0  0  0
    1.6514    1.0771   -1.2319 O   0  0  0  0  0  0  0  0  0  0  0  0
   -0.4466    0.6953   -1.9147 N   0  0  0  0  0  0  0  0  0  0  0  0
   -1.2547    0.0957   -1.7903 H   0  0  0  0  0  0  0  0  0  0  0  0
   -0.2600    1.3496   -3.2052 C   0  0  0  0  0  0  0  0  0  0  0  0
    0.4708    0.8029   -3.8105 H   0  0  0  0  0  0  0  0  0  0  0  0
   -1.2073    1.3854   -3.7515 H   0  0  0  0  0  0  0  0  0  0  0  0
    0.0953    2.3766   -3.0673 H   0  0  0  0  0  0  0  0  0  0  0  0
  1  2  1  0  0  0  0
  2  3  1  0  0  0  0
  2  4  1  0  0  0  0
  2  5  1  0  0  0  0
  5  6  2  0  0  0  0
  5  7  1  0  0  0  0
  7  8  1  0  0  0  0
  7  9  1  0  0  0  0
  9 10  1  0  0  0  0
  9 11  1  0  0  0  0
  9 15  1  0  0  0  0
 11 12  1  0  0  0  0
 11 13  1  0  0  0  0
 11 14  1  0  0  0  0
 15 16  2  0  0  0  0
 15 17  1  0  0  0  0
 17 18  1  0  0  0  0
 17 19  1  0  0  0  0
 19 20  1  0  0  0  0
 19 21  1  0  0  0  0
 19 22  1  0  0  0  0
M  END
$$$$

  -OEChem-11182114133D

 22 21  0     1  0  0  0  0  0999 V2000
   -2.8514   -3.5671    1.2834 H   0  0  0  0  0  0  0  0  0  0  0  0
   -2.7446   -2.5661    0.8550 C   0  0  0  0  0  0  0  0  0  0  0  0
   -3.3142   -1.8623    1.4666 H   0  0  0  0  0  0  0  0  0  0  0  0
   -3.1524   -2.5740   -0.1587 H   0  0  0  0  0  0  0  0  0  0  0  0
   -1.2812   -2.1637    0.8230 C   0  0  0  0  0  0  0  0  0  0  0  0
   -0.4540   -2.9793    1.1858 O   0  0  0  0  0  0  0  0  0  0  0  0
   -0.9667   -0.8914    0.3684 N   0  0  0  0  0  0  0  0  0  0  0  0
   -1.7861   -0.3183    0.1999 H   0  0  0  0  0  0  0  0  0  0  0  0
    0.3368   -0.1714    0.3608 C   0  0  1  0  0  0  0  0  0  0  0  0
    0.2671    0.6262    1.1064 H   0  0  0  0  0  0  0  0  0  0  0  0
    1.5615   -1.0221    0.7534 C   0  0  0  0  0  0  0  0  0  0  0  0
    1.6935   -1.8535    0.0538 H   0  0  0  0  0  0  0  0  0  0  0  0
    2.4735   -0.4170    0.7442 H   0  0  0  0  0  0  0  0  0  0  0  0
    1.4467   -1.4213    1.7653 H   0  0  0  0  0  0  0  0  0  0  0  0
    0.5891    0.5290   -1.0031 C   0  0  0  0  0  0  0  0  0  0  0  0
    1.7188    0.8156   -1.3776 O   0  0  0  0  0  0  0  0  0  0  0  0
   -0.4743    0.9815   -1.7678 N   0  0  0  0  0  0  0  0  0  0  0  0
   -1.3980    0.6518   -1.5168 H   0  0  0  0  0  0  0  0  0  0  0  0
   -0.3016    1.6625   -3.0465 C   0  0  0  0  0  0  0  0  0  0  0  0
    0.2037    1.0080   -3.7645 H   0  0  0  0  0  0  0  0  0  0  0  0
   -1.2743    1.9458   -3.4596 H   0  0  0  0  0  0  0  0  0  0  0  0
    0.2950    2.5720   -2.9188 H   0  0  0  0  0  0  0  0  0  0  0  0
  1  2  1  0  0  0  0
  2  3  1  0  0  0  0
  2  4  1  0  0  0  0
  2  5  1  0  0  0  0
  5  6  2  0  0  0  0
  5  7  1  0  0  0  0
  7  8  1  0  0  0  0
  7  9  1  0  0  0  0
  9 10  1  0  0  0  0
  9 11  1  0  0  0  0
  9 15  1  0  0  0  0
 11 12  1  0  0  0  0
 11 13  1  0  0  0  0
 11 14  1  0  0  0  0
 15 16  2  0  0  0  0
 15 17  1  0  0  0  0
 17 18  1  0  0  0  0
 17 19  1  0  0  0  0
 19 20  1  0  0  0  0
 19 21  1  0  0  0  0
 19 22  1  0  0  0  0
M  END
$$$$

  -OEChem-11182114133D

 22 21  0     1  0  0  0  0  0999 V2000
   -2.7940   -3.5685    1.0754 H   0  0  0  0  0  0  0  0  0  0  0  0
   -2.6756   -2.5649    0.6566 C   0  0  0  0  0  0  0  0  0  0  0  0
   -3.4558   -1.9189    1.0660 H   0  0  0  0  0  0  0  0  0  0  0  0
   -2.7904   -2.6239   -0.4285 H   0  0  0  0  0  0  0  0  0  0  0  0
   -1.3065   -2.0107    1.0060 C   0  0  0  0  0  0  0  0  0  0  0  0
   -0.5995   -2.6470    1.7661 O   0  0  0  0  0  0  0  0  0  0  0  0
   -0.9517   -0.7712    0.4977 N   0  0  0  0  0  0  0  0  0  0  0  0
   -1.6406   -0.4029   -0.1506 H   0  0  0  0  0  0  0  0  0  0  0  0
    0.3945   -0.1456    0.4159 C   0  0  1  0  0  0  0  0  0  0  0  0
    0.4306    0.6703    1.1439 H   0  0  0  0  0  0  0  0  0  0  0  0
    1.5779   -1.0826    0.7368 C   0  0  0  0  0  0  0  0  0  0  0  0
    1.5499   -1.9735    0.1012 H   0  0  0  0  0  0  0  0  0  0  0  0
    2.5312   -0.5704    0.5718 H   0  0  0  0  0  0  0  0  0  0  0  0
    1.5543   -1.3916    1.7856 H   0  0  0  0  0  0  0  0  0  0  0  0
    0.5773    0.4879   -0.9893 C   0  0  0  0  0  0  0  0  0  0  0  0
    1.5801    0.3178   -1.6700 O   0  0  0  0  0  0  0  0  0  0  0  0
   -0.4557    1.2409   -1.5253 N   0  0  0  0  0  0  0  0  0  0  0  0
   -1.1886    1.5333   -0.8870 H   0  0  0  0  0  0  0  0  0  0  0  0
   -0.3584    1.9092   -2.8190 C   0  0  0  0  0  0  0  0  0  0  0  0
   -0.1339    1.1852   -3.6098 H   0  0  0  0  0  0  0  0  0  0  0  0
   -1.3051    2.4006   -3.0635 H   0  0  0  0  0  0  0  0  0  0  0  0
    0.4324    2.6666   -2.8009 H   0  0  0  0  0  0  0  0  0  0  0  0
  1  2  1  0  0  0  0
  2  3  1  0  0  0  0
  2  4  1  0  0  0  0
  2  5  1  0  0  0  0
  5  6  2  0  0  0  0
  5  7  1  0  0  0  0
  7  8  1  0  0  0  0
  7  9  1  0  0  0  0
  9 10  1  0  0  0  0
  9 11  1  0  0  0  0
  9 15  1  0  0  0  0
 11 12  1  0  0  0  0
 11 13  1  0  0  0  0
 11 14  1  0  0  0  0
 15 16  2  0  0  0  0
 15 17  1  0  0  0  0
 17 18  1  0  0  0  0
 17 19  1  0  0  0  0
 19 20  1  0  0  0  0
 19 21  1  0  0  0  0
 19 22  1  0  0  0  0
M  END
$$$$

  -OEChem-11182114133D

 22 21  0     1  0  0  0  0  0999 V2000
   -2.8000   -3.5517    1.0680 H   0  0  0  0  0  0  0  0  0  0  0  0
   -2.6715   -2.5536    0.6394 C   0  0  0  0  0  0  0  0  0  0  0  0
   -3.4555   -1.9000    1.0291 H   0  0  0  0  0  0  0  0  0  0  0  0
   -2.7692   -2.6244   -0.4466 H   0  0  0  0  0  0  0  0  0  0  0  0
   -1.3062   -1.9996    1.0030 C   0  0  0  0  0  0  0  0  0  0  0  0
   -0.6063   -2.6335    1.7722 O   0  0  0  0  0  0  0  0  0  0  0  0
   -0.9476   -0.7585    0.5027 N   0  0  0  0  0  0  0  0  0  0  0  0
   -1.6316   -0.3820   -0.1473 H   0  0  0  0  0  0  0  0  0  0  0  0
    0.3996   -0.1391    0.4304 C   0  0  1  0  0  0  0  0  0  0  0  0
    0.4429    0.6697    1.1655 H   0  0  0  0  0  0  0  0  0  0  0  0
    1.5805   -1.0842    0.7333 C   0  0  0  0  0  0  0  0  0  0  0  0
    1.5336   -1.9775    0.1022 H   0  0  0  0  0  0  0  0  0  0  0  0
    2.5332   -0.5790    0.5451 H   0  0  0  0  0  0  0  0  0  0  0  0
    1.5735   -1.3901    1.7834 H   0  0  0  0  0  0  0  0  0  0  0  0
    0.5760    0.4958   -0.9720 C   0  0  0  0  0  0  0  0  0  0  0  0
    1.4206    0.1189   -1.7735 O   0  0  0  0  0  0  0  0  0  0  0  0
   -0.3052    1.4899   -1.3633 N   0  0  0  0  0  0  0  0  0  0  0  0
   -0.9190    1.8728   -0.6505 H   0  0  0  0  0  0  0  0  0  0  0  0
   -0.2153    2.1727   -2.6493 C   0  0  0  0  0  0  0  0  0  0  0  0
   -0.2797    1.4526   -3.4721 H   0  0  0  0  0  0  0  0  0  0  0  0
   -1.0355    2.8891   -2.7558 H   0  0  0  0  0  0  0  0  0  0  0  0
    0.7324    2.7153   -2.7299 H   0  0  0  0  0  0  0  0  0  0  0  0
  1  2  1  0  0  0  0
  2  3  1  0  0  0  0
  2  4  1  0  0  0  0
  2  5  1  0  0  0  0
  5  6  2  0  0  0  0
  5  7  1  0  0  0  0
  7  8  1  0  0  0  0
  7  9  1  0  0  0  0
  9 10  1  0  0  0  0
  9 11  1  0  0  0  0
  9 15  1  0  0  0  0
 11 12  1  0  0  0  0
 11 13  1  0  0  0  0
 11 14  1  0  0  0  0
 15 16  2  0  0  0  0
 15 17  1  0  0  0  0
 17 18  1  0  0  0  0
 17 19  1  0  0  0  0
 19 20  1  0  0  0  0
 19 21  1  0  0  0  0
 19 22  1  0  0  0  0
M  END
$$$$

  -OEChem-11182114133D

 22 21  0     1  0  0  0  0  0999 V2000
   -2.8006   -3.5483    1.0638 H   0  0  0  0  0  0  0  0  0  0  0  0
   -2.6674   -2.5534    0.6292 C   0  0  0  0  0  0  0  0  0  0  0  0
   -3.4564   -1.8972    1.0041 H   0  0  0  0  0  0  0  0  0  0  0  0
   -2.7518   -2.6325   -0.4574 H   0  0  0  0  0  0  0  0  0  0  0  0
   -1.3067   -1.9956    1.0045 C   0  0  0  0  0  0  0  0  0  0  0  0
   -0.6097   -2.6264    1.7794 O   0  0  0  0  0  0  0  0  0  0  0  0
   -0.9494   -0.7503    0.5148 N   0  0  0  0  0  0  0  0  0  0  0  0
   -1.6316   -0.3682   -0.1341 H   0  0  0  0  0  0  0  0  0  0  0  0
    0.3980   -0.1337    0.4491 C   0  0  1  0  0  0  0  0  0  0  0  0
    0.4481    0.6630    1.1972 H   0  0  0  0  0  0  0  0  0  0  0  0
    1.5796   -1.0849    0.7252 C   0  0  0  0  0  0  0  0  0  0  0  0
    1.5176   -1.9755    0.0913 H   0  0  0  0  0  0  0  0  0  0  0  0
    2.5298   -0.5819    0.5196 H   0  0  0  0  0  0  0  0  0  0  0  0
    1.5896   -1.3962    1.7737 H   0  0  0  0  0  0  0  0  0  0  0  0
    0.5770    0.5130   -0.9457 C   0  0  0  0  0  0  0  0  0  0  0  0
    1.1968   -0.0312   -1.8498 O   0  0  0  0  0  0  0  0  0  0  0  0
   -0.0748    1.7035   -1.2162 N   0  0  0  0  0  0  0  0  0  0  0  0
   -0.5420    2.1684   -0.4433 H   0  0  0  0  0  0  0  0  0  0  0  0
    0.0124    2.3885   -2.5011 C   0  0  0  0  0  0  0  0  0  0  0  0
   -0.3454    1.7390   -3.3073 H   0  0  0  0  0  0  0  0  0  0  0  0
   -0.6022    3.2938   -2.4902 H   0  0  0  0  0  0  0  0  0  0  0  0
    1.0480    2.6747   -2.7132 H   0  0  0  0  0  0  0  0  0  0  0  0
  1  2  1  0  0  0  0
  2  3  1  0  0  0  0
  2  4  1  0  0  0  0
  2  5  1  0  0  0  0
  5  6  2  0  0  0  0
  5  7  1  0  0  0  0
  7  8  1  0  0  0  0
  7  9  1  0  0  0  0
  9 10  1  0  0  0  0
  9 11  1  0  0  0  0
  9 15  1  0  0  0  0
 11 12  1  0  0  0  0
 11 13  1  0  0  0  0
 11 14  1  0  0  0  0
 15 16  2  0  0  0  0
 15 17  1  0  0  0  0
 17 18  1  0  0  0  0
 17 19  1  0  0  0  0
 19 20  1  0  0  0  0
 19 21  1  0  0  0  0
 19 22  1  0  0  0  0
M  END
$$$$

  -OEChem-11182114133D

 22 21  0     1  0  0  0  0  0999 V2000
   -2.7843   -3.5540    1.0628 H   0  0  0  0  0  0  0  0  0  0  0  0
   -2.6527   -2.5638    0.6170 C   0  0  0  0  0  0  0  0  0  0  0  0
   -3.4614   -1.9138    0.9594 H   0  0  0  0  0  0  0  0  0  0  0  0
   -2.7046   -2.6600   -0.4702 H   0  0  0  0  0  0  0  0  0  0  0  0
   -1.3110   -1.9817    1.0218 C   0  0  0  0  0  0  0  0  0  0  0  0
   -0.6246   -2.5933    1.8219 O   0  0  0  0  0  0  0  0  0  0  0  0
   -0.9588   -0.7341    0.5359 N   0  0  0  0  0  0  0  0  0  0  0  0
   -1.6262   -0.3694   -0.1385 H   0  0  0  0  0  0  0  0  0  0  0  0
    0.3912   -0.1265    0.4703 C   0  0  1  0  0  0  0  0  0  0  0  0
    0.4527    0.6570    1.2309 H   0  0  0  0  0  0  0  0  0  0  0  0
    1.5691   -1.0905    0.7124 C   0  0  0  0  0  0  0  0  0  0  0  0
    1.4844   -1.9760    0.0738 H   0  0  0  0  0  0  0  0  0  0  0  0
    2.5191   -0.5951    0.4887 H   0  0  0  0  0  0  0  0  0  0  0  0
    1.5996   -1.4102    1.7581 H   0  0  0  0  0  0  0  0  0  0  0  0
    0.5771    0.5290   -0.9177 C   0  0  0  0  0  0  0  0  0  0  0  0
    0.9121   -0.1220   -1.8984 O   0  0  0  0  0  0  0  0  0  0  0  0
    0.2140    1.8522   -1.0943 N   0  0  0  0  0  0  0  0  0  0  0  0
   -0.0670    2.3773   -0.2715 H   0  0  0  0  0  0  0  0  0  0  0  0
    0.3035    2.5436   -2.3753 C   0  0  0  0  0  0  0  0  0  0  0  0
   -0.3268    2.0502   -3.1228 H   0  0  0  0  0  0  0  0  0  0  0  0
   -0.0329    3.5796   -2.2705 H   0  0  0  0  0  0  0  0  0  0  0  0
    1.3377    2.5503   -2.7355 H   0  0  0  0  0  0  0  0  0  0  0  0
  1  2  1  0  0  0  0
  2  3  1  0  0  0  0
  2  4  1  0  0  0  0
  2  5  1  0  0  0  0
  5  6  2  0  0  0  0
  5  7  1  0  0  0  0
  7  8  1  0  0  0  0
  7  9  1  0  0  0  0
  9 10  1  0  0  0  0
  9 11  1  0  0  0  0
  9 15  1  0  0  0  0
 11 12  1  0  0  0  0
 11 13  1  0  0  0  0
 11 14  1  0  0  0  0
 15 16  2  0  0  0  0
 15 17  1  0  0  0  0
 17 18  1  0  0  0  0
 17 19  1  0  0  0  0
 19 20  1  0  0  0  0
 19 21  1  0  0  0  0
 19 22  1  0  0  0  0
M  END
$$$$

  -OEChem-11182114133D

 22 21  0     1  0  0  0  0  0999 V2000
   -2.7762   -3.5506    1.0436 H   0  0  0  0  0  0  0  0  0  0  0  0
   -2.6381   -2.5630    0.5942 C   0  0  0  0  0  0  0  0  0  0  0  0
   -3.4635   -1.9169    0.9026 H   0  0  0  0  0  0  0  0  0  0  0  0
   -2.6515   -2.6677   -0.4935 H   0  0  0  0  0  0  0  0  0  0  0  0
   -1.3164   -1.9649    1.0391 C   0  0  0  0  0  0  0  0  0  0  0  0
   -0.6472   -2.5623    1.8646 O   0  0  0  0  0  0  0  0  0  0  0  0
   -0.9619   -0.7173    0.5572 N   0  0  0  0  0  0  0  0  0  0  0  0
   -1.6036   -0.3764   -0.1542 H   0  0  0  0  0  0  0  0  0  0  0  0
    0.3923   -0.1215    0.4971 C   0  0  1  0  0  0  0  0  0  0  0  0
    0.4606    0.6526    1.2668 H   0  0  0  0  0  0  0  0  0  0  0  0
    1.5641   -1.0978    0.7114 C   0  0  0  0  0  0  0  0  0  0  0  0
    1.4684   -1.9685    0.0543 H   0  0  0  0  0  0  0  0  0  0  0  0
    2.5162   -0.6044    0.4928 H   0  0  0  0  0  0  0  0  0  0  0  0
    1.5993   -1.4406    1.7496 H   0  0  0  0  0  0  0  0  0  0  0  0
    0.5876    0.5379   -0.8860 C   0  0  0  0  0  0  0  0  0  0  0  0
    0.6055   -0.1375   -1.9068 O   0  0  0  0  0  0  0  0  0  0  0  0
    0.5433    1.9153   -1.0031 N   0  0  0  0  0  0  0  0  0  0  0  0
    0.4884    2.4604   -0.1477 H   0  0  0  0  0  0  0  0  0  0  0  0
    0.6167    2.6133   -2.2814 C   0  0  0  0  0  0  0  0  0  0  0  0
   -0.2289    2.3354   -2.9193 H   0  0  0  0  0  0  0  0  0  0  0  0
    0.5895    3.6957   -2.1238 H   0  0  0  0  0  0  0  0  0  0  0  0
    1.5473    2.3636   -2.8019 H   0  0  0  0  0  0  0  0  0  0  0  0
  1  2  1  0  0  0  0
  2  3  1  0  0  0  0
  2  4  1  0  0  0  0
  2  5  1  0  0  0  0
  5  6  2  0  0  0  0
  5  7  1  0  0  0  0
  7  8  1  0  0  0  0
  7  9  1  0  0  0  0
  9 10  1  0  0  0  0
  9 11  1  0  0  0  0
  9 15  1  0  0  0  0
 11 12  1  0  0  0  0
 11 13  1  0  0  0  0
 11 14  1  0  0  0  0
 15 16  2  0  0  0  0
 15 17  1  0  0  0  0
 17 18  1  0  0  0  0
 17 19  1  0  0  0  0
 19 20  1  0  0  0  0
 19 21  1  0  0  0  0
 19 22  1  0  0  0  0
M  END
$$$$

  -OEChem-11182114133D

 22 21  0     1  0  0  0  0  0999 V2000
   -2.7662   -3.5579    1.0317 H   0  0  0  0  0  0  0  0  0  0  0  0
   -2.6331   -2.5664    0.5896 C   0  0  0  0  0  0  0  0  0  0  0  0
   -3.4687   -1.9308    0.8922 H   0  0  0  0  0  0  0  0  0  0  0  0
   -2.6332   -2.6650   -0.4987 H   0  0  0  0  0  0  0  0  0  0  0  0
   -1.3228   -1.9570    1.0527 C   0  0  0  0  0  0  0  0  0  0  0  0
   -0.6613   -2.5461    1.8907 O   0  0  0  0  0  0  0  0  0  0  0  0
   -0.9669   -0.7100    0.5713 N   0  0  0  0  0  0  0  0  0  0  0  0
   -1.5900   -0.3861   -0.1650 H   0  0  0  0  0  0  0  0  0  0  0  0
    0.3892   -0.1193    0.5119 C   0  0  1  0  0  0  0  0  0  0  0  0
    0.4606    0.6508    1.2854 H   0  0  0  0  0  0  0  0  0  0  0  0
    1.5570   -1.1025    0.7097 C   0  0  0  0  0  0  0  0  0  0  0  0
    1.4537   -1.9637    0.0416 H   0  0  0  0  0  0  0  0  0  0  0  0
    2.5115   -0.6121    0.4943 H   0  0  0  0  0  0  0  0  0  0  0  0
    1.5942   -1.4586    1.7433 H   0  0  0  0  0  0  0  0  0  0  0  0
    0.5908    0.5417   -0.8693 C   0  0  0  0  0  0  0  0  0  0  0  0
    0.3306   -0.0752   -1.8948 O   0  0  0  0  0  0  0  0  0  0  0  0
    0.8646    1.8945   -0.9581 N   0  0  0  0  0  0  0  0  0  0  0  0
    1.0312    2.4007   -0.0934 H   0  0  0  0  0  0  0  0  0  0  0  0
    0.9637    2.6101   -2.2247 C   0  0  0  0  0  0  0  0  0  0  0  0
    0.0133    2.5645   -2.7667 H   0  0  0  0  0  0  0  0  0  0  0  0
    1.2096    3.6614   -2.0470 H   0  0  0  0  0  0  0  0  0  0  0  0
    1.7479    2.1730   -2.8517 H   0  0  0  0  0  0  0  0  0  0  0  0
  1  2  1  0  0  0  0
  2  3  1  0  0  0  0
  2  4  1  0  0  0  0
  2  5  1  0  0  0  0
  5  6  2  0  0  0  0
  5  7  1  0  0  0  0
  7  8  1  0  0  0  0
  7  9  1  0  0  0  0
  9 10  1  0  0  0  0
  9 11  1  0  0  0  0
  9 15  1  0  0  0  0
 11 12  1  0  0  0  0
 11 13  1  0  0  0  0
 11 14  1  0  0  0  0
 15 16  2  0  0  0  0
 15 17  1  0  0  0  0
 17 18  1  0  0  0  0
 17 19  1  0  0  0  0
 19 20  1  0  0  0  0
 19 21  1  0  0  0  0
 19 22  1  0  0  0  0
M  END
$$$$

  -OEChem-11182114133D

 22 21  0     1  0  0  0  0  0999 V2000
   -2.7718   -3.5598    1.0309 H   0  0  0  0  0  0  0  0  0  0  0  0
   -2.6393   -2.5663    0.5933 C   0  0  0  0  0  0  0  0  0  0  0  0
   -3.4720   -1.9303    0.9032 H   0  0  0  0  0  0  0  0  0  0  0  0
   -2.6452   -2.6590   -0.4956 H   0  0  0  0  0  0  0  0  0  0  0  0
   -1.3260   -1.9612    1.0535 C   0  0  0  0  0  0  0  0  0  0  0  0
   -0.6615   -2.5556    1.8857 O   0  0  0  0  0  0  0  0  0  0  0  0
   -0.9674   -0.7155    0.5713 N   0  0  0  0  0  0  0  0  0  0  0  0
   -1.5817   -0.3957   -0.1757 H   0  0  0  0  0  0  0  0  0  0  0  0
    0.3873   -0.1218    0.5150 C   0  0  1  0  0  0  0  0  0  0  0  0
    0.4503    0.6511    1.2864 H   0  0  0  0  0  0  0  0  0  0  0  0
    1.5563   -1.1011    0.7198 C   0  0  0  0  0  0  0  0  0  0  0  0
    1.4602   -1.9616    0.0498 H   0  0  0  0  0  0  0  0  0  0  0  0
    2.5108   -0.6072    0.5129 H   0  0  0  0  0  0  0  0  0  0  0  0
    1.5869   -1.4587    1.7531 H   0  0  0  0  0  0  0  0  0  0  0  0
    0.5989    0.5386   -0.8657 C   0  0  0  0  0  0  0  0  0  0  0  0
    0.1041    0.0420   -1.8710 O   0  0  0  0  0  0  0  0  0  0  0  0
    1.1698    1.7953   -0.9542 N   0  0  0  0  0  0  0  0  0  0  0  0
    1.5404    2.2064   -0.1024 H   0  0  0  0  0  0  0  0  0  0  0  0
    1.3041    2.5285   -2.2075 C   0  0  0  0  0  0  0  0  0  0  0  0
    0.3195    2.7259   -2.6443 H   0  0  0  0  0  0  0  0  0  0  0  0
    1.8024    3.4869   -2.0330 H   0  0  0  0  0  0  0  0  0  0  0  0
    1.8997    1.9550   -2.9255 H   0  0  0  0  0  0  0  0  0  0  0  0
  1  2  1  0  0  0  0
  2  3  1  0  0  0  0
  2  4  1  0  0  0  0
  2  5  1  0  0  0  0
  5  6  2  0  0  0  0
  5  7  1  0  0  0  0
  7  8  1  0  0  0  0
  7  9  1  0  0  0  0
  9 10  1  0  0  0  0
  9 11  1  0  0  0  0
  9 15  1  0  0  0  0
 11 12  1  0  0  0  0
 11 13  1  0  0  0  0
 11 14  1  0  0  0  0
 15 16  2  0  0  0  0
 15 17  1  0  0  0  0
 17 18  1  0  0  0  0
 17 19  1  0  0  0  0
 19 20  1  0  0  0  0
 19 21  1  0  0  0  0
 19 22  1  0  0  0  0
M  END
$$$$

  -OEChem-11182114133D

 22 21  0     1  0  0  0  0  0999 V2000
   -2.7754   -3.5608    1.0319 H   0  0  0  0  0  0  0  0  0  0  0  0
   -2.6416   -2.5673    0.5944 C   0  0  0  0  0  0  0  0  0  0  0  0
   -3.4722   -1.9297    0.9062 H   0  0  0  0  0  0  0  0  0  0  0  0
   -2.6497   -2.6596   -0.4945 H   0  0  0  0  0  0  0  0  0  0  0  0
   -1.3267   -1.9651    1.0536 C   0  0  0  0  0  0  0  0  0  0  0  0
   -0.6610   -2.5635    1.8820 O   0  0  0  0  0  0  0  0  0  0  0  0
   -0.9649   -0.7204    0.5719 N   0  0  0  0  0  0  0  0  0  0  0  0
   -1.5765   -0.3954   -0.1762 H   0  0  0  0  0  0  0  0  0  0  0  0
    0.3877   -0.1216    0.5188 C   0  0  1  0  0  0  0  0  0  0  0  0
    0.4466    0.6548    1.2872 H   0  0  0  0  0  0  0  0  0  0  0  0
    1.5545   -1.1027    0.7300 C   0  0  0  0  0  0  0  0  0  0  0  0
    1.4542   -1.9682    0.0669 H   0  0  0  0  0  0  0  0  0  0  0  0
    2.5119   -0.6164    0.5197 H   0  0  0  0  0  0  0  0  0  0  0  0
    1.5832   -1.4519    1.7663 H   0  0  0  0  0  0  0  0  0  0  0  0
    0.6046    0.5384   -0.8623 C   0  0  0  0  0  0  0  0  0  0  0  0
   -0.0750    0.1995   -1.8254 O   0  0  0  0  0  0  0  0  0  0  0  0
    1.4366    1.6363   -0.9857 N   0  0  0  0  0  0  0  0  0  0  0  0
    1.9631    1.9241   -0.1660 H   0  0  0  0  0  0  0  0  0  0  0  0
    1.6161    2.3696   -2.2332 C   0  0  0  0  0  0  0  0  0  0  0  0
    0.6692    2.8159   -2.5548 H   0  0  0  0  0  0  0  0  0  0  0  0
    2.3481    3.1716   -2.0983 H   0  0  0  0  0  0  0  0  0  0  0  0
    1.9771    1.7016   -3.0226 H   0  0  0  0  0  0  0  0  0  0  0  0
  1  2  1  0  0  0  0
  2  3  1  0  0  0  0
  2  4  1  0  0  0  0
  2  5  1  0  0  0  0
  5  6  2  0  0  0  0
  5  7  1  0  0  0  0
  7  8  1  0  0  0  0
  7  9  1  0  0  0  0
  9 10  1  0  0  0  0
  9 11  1  0  0  0  0
  9 15  1  0  0  0  0
 11 12  1  0  0  0  0
 11 13  1  0  0  0  0
 11 14  1  0  0  0  0
 15 16  2  0  0  0  0
 15 17  1  0  0  0  0
 17 18  1  0  0  0  0
 17 19  1  0  0  0  0
 19 20  1  0  0  0  0
 19 21  1  0  0  0  0
 19 22  1  0  0  0  0
M  END
$$$$

  -OEChem-11182114133D

 22 21  0     1  0  0  0  0  0999 V2000
   -2.7929   -3.5573    1.0194 H   0  0  0  0  0  0  0  0  0  0  0  0
   -2.6534   -2.5586    0.5961 C   0  0  0  0  0  0  0  0  0  0  0  0
   -3.4700   -1.9155    0.9329 H   0  0  0  0  0  0  0  0  0  0  0  0
   -2.6815   -2.6321   -0.4939 H   0  0  0  0  0  0  0  0  0  0  0  0
   -1.3226   -1.9816    1.0413 C   0  0  0  0  0  0  0  0  0  0  0  0
   -0.6462   -2.6081    1.8396 O   0  0  0  0  0  0  0  0  0  0  0  0
   -0.9538   -0.7350    0.5697 N   0  0  0  0  0  0  0  0  0  0  0  0
   -1.5761   -0.3837   -0.1583 H   0  0  0  0  0  0  0  0  0  0  0  0
    0.3938   -0.1240    0.5248 C   0  0  1  0  0  0  0  0  0  0  0  0
    0.4428    0.6539    1.2925 H   0  0  0  0  0  0  0  0  0  0  0  0
    1.5629   -1.1014    0.7499 C   0  0  0  0  0  0  0  0  0  0  0  0
    1.4792   -1.9621    0.0782 H   0  0  0  0  0  0  0  0  0  0  0  0
    2.5235   -0.6119    0.5646 H   0  0  0  0  0  0  0  0  0  0  0  0
    1.5731   -1.4587    1.7838 H   0  0  0  0  0  0  0  0  0  0  0  0
    0.6090    0.5427   -0.8555 C   0  0  0  0  0  0  0  0  0  0  0  0
   -0.2069    0.3790   -1.7574 O   0  0  0  0  0  0  0  0  0  0  0  0
    1.6458    1.4379   -1.0494 N   0  0  0  0  0  0  0  0  0  0  0  0
    2.2994    1.5751   -0.2840 H   0  0  0  0  0  0  0  0  0  0  0  0
    1.8736    2.1393   -2.3072 C   0  0  0  0  0  0  0  0  0  0  0  0
    1.0175    2.7773   -2.5508 H   0  0  0  0  0  0  0  0  0  0  0  0
    2.7647    2.7700   -2.2325 H   0  0  0  0  0  0  0  0  0  0  0  0
    2.0239    1.4241   -3.1230 H   0  0  0  0  0  0  0  0  0  0  0  0
  1  2  1  0  0  0  0
  2  3  1  0  0  0  0
  2  4  1  0  0  0  0
  2  5  1  0  0  0  0
  5  6  2  0  0  0  0
  5  7  1  0  0  0  0
  7  8  1  0  0  0  0
  7  9  1  0  0  0  0
  9 10  1  0  0  0  0
  9 11  1  0  0  0  0
  9 15  1  0  0  0  0
 11 12  1  0  0  0  0
 11 13  1  0  0  0  0
 11 14  1  0  0  0  0
 15 16  2  0  0  0  0
 15 17  1  0  0  0  0
 17 18  1  0  0  0  0
 17 19  1  0  0  0  0
 19 20  1  0  0  0  0
 19 21  1  0  0  0  0
 19 22  1  0  0  0  0
M  END
$$$$

  -OEChem-11182114133D

 22 21  0     1  0  0  0  0  0999 V2000
   -2.8084   -3.5468    1.0583 H   0  0  0  0  0  0  0  0  0  0  0  0
   -2.6744   -2.5452    0.6404 C   0  0  0  0  0  0  0  0  0  0  0  0
   -3.4528   -1.8902    1.0388 H   0  0  0  0  0  0  0  0  0  0  0  0
   -2.7757   -2.6015   -0.4461 H   0  0  0  0  0  0  0  0  0  0  0  0
   -1.3050   -2.0033    1.0060 C   0  0  0  0  0  0  0  0  0  0  0  0
   -0.5887   -2.6527    1.7494 O   0  0  0  0  0  0  0  0  0  0  0  0
   -0.9353   -0.7574    0.5361 N   0  0  0  0  0  0  0  0  0  0  0  0
   -1.5981   -0.3339   -0.1149 H   0  0  0  0  0  0  0  0  0  0  0  0
    0.4070   -0.1389    0.5065 C   0  0  1  0  0  0  0  0  0  0  0  0
    0.5568    0.4360    1.4253 H   0  0  0  0  0  0  0  0  0  0  0  0
    1.5487   -1.1669    0.3658 C   0  0  0  0  0  0  0  0  0  0  0  0
    1.3467   -1.8518   -0.4641 H   0  0  0  0  0  0  0  0  0  0  0  0
    2.5060   -0.6720    0.1811 H   0  0  0  0  0  0  0  0  0  0  0  0
    1.6633   -1.7494    1.2840 H   0  0  0  0  0  0  0  0  0  0  0  0
    0.4903    0.8326   -0.6992 C   0  0  0  0  0  0  0  0  0  0  0  0
   -0.4915    1.0119   -1.4141 O   0  0  0  0  0  0  0  0  0  0  0  0
    1.6435    1.5505   -0.9639 N   0  0  0  0  0  0  0  0  0  0  0  0
    2.4459    1.3906   -0.3619 H   0  0  0  0  0  0  0  0  0  0  0  0
    1.7737    2.4773   -2.0821 C   0  0  0  0  0  0  0  0  0  0  0  0
    1.0397    3.2858   -1.9982 H   0  0  0  0  0  0  0  0  0  0  0  0
    2.7744    2.9198   -2.0924 H   0  0  0  0  0  0  0  0  0  0  0  0
    1.6170    1.9554   -3.0321 H   0  0  0  0  0  0  0  0  0  0  0  0
  1  2  1  0  0  0  0
  2  3  1  0  0  0  0
  2  4  1  0  0  0  0
  2  5  1  0  0  0  0
  5  6  2  0  0  0  0
  5  7  1  0  0  0  0
  7  8  1  0  0  0  0
  7  9  1  0  0  0  0
  9 10  1  0  0  0  0
  9 11  1  0  0  0  0
  9 15  1  0  0  0  0
 11 12  1  0  0  0  0
 11 13  1  0  0  0  0
 11 14  1  0  0  0  0
 15 16  2  0  0  0  0
 15 17  1  0  0  0  0
 17 18  1  0  0  0  0
 17 19  1  0  0  0  0
 19 20  1  0  0  0  0
 19 21  1  0  0  0  0
 19 22  1  0  0  0  0
M  END
$$$$

  -OEChem-11182114133D

 22 21  0     1  0  0  0  0  0999 V2000
   -2.8357   -3.5335    1.0165 H   0  0  0  0  0  0  0  0  0  0  0  0
   -2.6944   -2.5174    0.6378 C   0  0  0  0  0  0  0  0  0  0  0  0
   -3.4447   -1.8647    1.0905 H   0  0  0  0  0  0  0  0  0  0  0  0
   -2.8331   -2.5242   -0.4460 H   0  0  0  0  0  0  0  0  0  0  0  0
   -1.3026   -2.0191    0.9789 C   0  0  0  0  0  0  0  0  0  0  0  0
   -0.5873   -2.7041    1.6901 O   0  0  0  0  0  0  0  0  0  0  0  0
   -0.9128   -0.7759    0.5178 N   0  0  0  0  0  0  0  0  0  0  0  0
   -1.5899   -0.3114   -0.0890 H   0  0  0  0  0  0  0  0  0  0  0  0
    0.4279   -0.1520    0.5066 C   0  0  1  0  0  0  0  0  0  0  0  0
    0.5571    0.4330    1.4222 H   0  0  0  0  0  0  0  0  0  0  0  0
    1.5777   -1.1779    0.4101 C   0  0  0  0  0  0  0  0  0  0  0  0
    1.4143   -1.8572   -0.4326 H   0  0  0  0  0  0  0  0  0  0  0  0
    2.5431   -0.6828    0.2770 H   0  0  0  0  0  0  0  0  0  0  0  0
    1.6522   -1.7665    1.3283 H   0  0  0  0  0  0  0  0  0  0  0  0
    0.5130    0.8165   -0.7044 C   0  0  0  0  0  0  0  0  0  0  0  0
   -0.5153    1.1598   -1.2803 O   0  0  0  0  0  0  0  0  0  0  0  0
    1.7199    1.3168   -1.1626 N   0  0  0  0  0  0  0  0  0  0  0  0
    2.5648    1.0133   -0.6881 H   0  0  0  0  0  0  0  0  0  0  0  0
    1.8381    2.2105   -2.3089 C   0  0  0  0  0  0  0  0  0  0  0  0
    1.2389    3.1142   -2.1551 H   0  0  0  0  0  0  0  0  0  0  0  0
    2.8814    2.5094   -2.4493 H   0  0  0  0  0  0  0  0  0  0  0  0
    1.4952    1.7106   -3.2208 H   0  0  0  0  0  0  0  0  0  0  0  0
  1  2  1  0  0  0  0
  2  3  1  0  0  0  0
  2  4  1  0  0  0  0
  2  5  1  0  0  0  0
  5  6  2  0  0  0  0
  5  7  1  0  0  0  0
  7  8  1  0  0  0  0
  7  9  1  0  0  0  0
  9 10  1  0  0  0  0
  9 11  1  0  0  0  0
  9 15  1  0  0  0  0
 11 12  1  0  0  0  0
 11 13  1  0  0  0  0
 11 14  1  0  0  0  0
 15 16  2  0  0  0  0
 15 17  1  0  0  0  0
 17 18  1  0  0  0  0
 17 19  1  0  0  0  0
 19 20  1  0  0  0  0
 19 21  1  0  0  0  0
 19 22  1  0  0  0  0
M  END
$$$$

  -OEChem-11182114133D

 22 21  0     1  0  0  0  0  0999 V2000
   -2.8714   -3.5101    1.0170 H   0  0  0  0  0  0  0  0  0  0  0  0
   -2.7130   -2.4964    0.6383 C   0  0  0  0  0  0  0  0  0  0  0  0
   -3.4304   -1.8254    1.1167 H   0  0  0  0  0  0  0  0  0  0  0  0
   -2.8851   -2.4934   -0.4407 H   0  0  0  0  0  0  0  0  0  0  0  0
   -1.2976   -2.0393    0.9388 C   0  0  0  0  0  0  0  0  0  0  0  0
   -0.5737   -2.7615    1.6024 O   0  0  0  0  0  0  0  0  0  0  0  0
   -0.8952   -0.7969    0.4856 N   0  0  0  0  0  0  0  0  0  0  0  0
   -1.5894   -0.2927   -0.0673 H   0  0  0  0  0  0  0  0  0  0  0  0
    0.4419   -0.1657    0.4976 C   0  0  1  0  0  0  0  0  0  0  0  0
    0.5405    0.4347    1.4071 H   0  0  0  0  0  0  0  0  0  0  0  0
    1.6096   -1.1745    0.4599 C   0  0  0  0  0  0  0  0  0  0  0  0
    1.4953   -1.8630   -0.3836 H   0  0  0  0  0  0  0  0  0  0  0  0
    2.5713   -0.6623    0.3706 H   0  0  0  0  0  0  0  0  0  0  0  0
    1.6513   -1.7549    1.3855 H   0  0  0  0  0  0  0  0  0  0  0  0
    0.5302    0.7966   -0.7183 C   0  0  0  0  0  0  0  0  0  0  0  0
   -0.4978    1.3128   -1.1458 O   0  0  0  0  0  0  0  0  0  0  0  0
    1.7211    1.0774   -1.3666 N   0  0  0  0  0  0  0  0  0  0  0  0
    2.5570    0.6047   -1.0366 H   0  0  0  0  0  0  0  0  0  0  0  0
    1.8159    1.9378   -2.5403 C   0  0  0  0  0  0  0  0  0  0  0  0
    1.4216    2.9352   -2.3181 H   0  0  0  0  0  0  0  0  0  0  0  0
    2.8605    2.0419   -2.8490 H   0  0  0  0  0  0  0  0  0  0  0  0
    1.2487    1.5118   -3.3747 H   0  0  0  0  0  0  0  0  0  0  0  0
  1  2  1  0  0  0  0
  2  3  1  0  0  0  0
  2  4  1  0  0  0  0
  2  5  1  0  0  0  0
  5  6  2  0  0  0  0
  5  7  1  0  0  0  0
  7  8  1  0  0  0  0
  7  9  1  0  0  0  0
  9 10  1  0  0  0  0
  9 11  1  0  0  0  0
  9 15  1  0  0  0  0
 11 12  1  0  0  0  0
 11 13  1  0  0  0  0
 11 14  1  0  0  0  0
 15 16  2  0  0  0  0
 15 17  1  0  0  0  0
 17 18  1  0  0  0  0
 17 19  1  0  0  0  0
 19 20  1  0  0  0  0
 19 21  1  0  0  0  0
 19 22  1  0  0  0  0
M  END
$$$$

  -OEChem-11182114133D

 22 21  0     1  0  0  0  0  0999 V2000
   -2.8895   -3.4964    1.0364 H   0  0  0  0  0  0  0  0  0  0  0  0
   -2.7244   -2.4869    0.6492 C   0  0  0  0  0  0  0  0  0  0  0  0
   -3.4130   -1.8013    1.1487 H   0  0  0  0  0  0  0  0  0  0  0  0
   -2.9322   -2.4838   -0.4234 H   0  0  0  0  0  0  0  0  0  0  0  0
   -1.2916   -2.0557    0.9013 C   0  0  0  0  0  0  0  0  0  0  0  0
   -0.5524   -2.8039    1.5174 O   0  0  0  0  0  0  0  0  0  0  0  0
   -0.8879   -0.8123    0.4509 N   0  0  0  0  0  0  0  0  0  0  0  0
   -1.6014   -0.2775   -0.0447 H   0  0  0  0  0  0  0  0  0  0  0  0
    0.4446   -0.1721    0.4816 C   0  0  1  0  0  0  0  0  0  0  0  0
    0.5179    0.4395    1.3859 H   0  0  0  0  0  0  0  0  0  0  0  0
    1.6275   -1.1625    0.4874 C   0  0  0  0  0  0  0  0  0  0  0  0
    1.5408   -1.8717   -0.3418 H   0  0  0  0  0  0  0  0  0  0  0  0
    2.5813   -0.6334    0.4055 H   0  0  0  0  0  0  0  0  0  0  0  0
    1.6587   -1.7210    1.4269 H   0  0  0  0  0  0  0  0  0  0  0  0
    0.5396    0.7834   -0.7366 C   0  0  0  0  0  0  0  0  0  0  0  0
   -0.4401    1.4598   -1.0307 O   0  0  0  0  0  0  0  0  0  0  0  0
    1.6521    0.8478   -1.5588 N   0  0  0  0  0  0  0  0  0  0  0  0
    2.4223    0.2190   -1.3520 H   0  0  0  0  0  0  0  0  0  0  0  0
    1.7199    1.6742   -2.7582 C   0  0  0  0  0  0  0  0  0  0  0  0
    1.5622    2.7284   -2.5072 H   0  0  0  0  0  0  0  0  0  0  0  0
    2.7023    1.5760   -3.2300 H   0  0  0  0  0  0  0  0  0  0  0  0
    0.9564    1.3654   -3.4798 H   0  0  0  0  0  0  0  0  0  0  0  0
  1  2  1  0  0  0  0
  2  3  1  0  0  0  0
  2  4  1  0  0  0  0
  2  5  1  0  0  0  0
  5  6  2  0  0  0  0
  5  7  1  0  0  0  0
  7  8  1  0  0  0  0
  7  9  1  0  0  0  0
  9 10  1  0  0  0  0
  9 11  1  0  0  0  0
  9 15  1  0  0  0  0
 11 12  1  0  0  0  0
 11 13  1  0  0  0  0
 11 14  1  0  0  0  0
 15 16  2  0  0  0  0
 15 17  1  0  0  0  0
 17 18  1  0  0  0  0
 17 19  1  0  0  0  0
 19 20  1  0  0  0  0
 19 21  1  0  0  0  0
 19 22  1  0  0  0  0
M  END
$$$$

  -OEChem-11182114133D

 22 21  0     1  0  0  0  0  0999 V2000
   -2.8925   -3.4912    1.0622 H   0  0  0  0  0  0  0  0  0  0  0  0
   -2.7294   -2.4849    0.6657 C   0  0  0  0  0  0  0  0  0  0  0  0
   -3.3994   -1.7915    1.1799 H   0  0  0  0  0  0  0  0  0  0  0  0
   -2.9649   -2.4854   -0.4013 H   0  0  0  0  0  0  0  0  0  0  0  0
   -1.2870   -2.0641    0.8783 C   0  0  0  0  0  0  0  0  0  0  0  0
   -0.5331   -2.8233    1.4623 O   0  0  0  0  0  0  0  0  0  0  0  0
   -0.8888   -0.8204    0.4233 N   0  0  0  0  0  0  0  0  0  0  0  0
   -1.6197   -0.2673   -0.0229 H   0  0  0  0  0  0  0  0  0  0  0  0
    0.4400   -0.1739    0.4633 C   0  0  1  0  0  0  0  0  0  0  0  0
    0.4992    0.4451    1.3641 H   0  0  0  0  0  0  0  0  0  0  0  0
    1.6331   -1.1505    0.4905 C   0  0  0  0  0  0  0  0  0  0  0  0
    1.5533   -1.8836   -0.3184 H   0  0  0  0  0  0  0  0  0  0  0  0
    2.5785   -0.6092    0.3883 H   0  0  0  0  0  0  0  0  0  0  0  0
    1.6721   -1.6835    1.4447 H   0  0  0  0  0  0  0  0  0  0  0  0
    0.5410    0.7730   -0.7581 C   0  0  0  0  0  0  0  0  0  0  0  0
   -0.3438    1.6033   -0.9273 O   0  0  0  0  0  0  0  0  0  0  0  0
    1.5102    0.6336   -1.7372 N   0  0  0  0  0  0  0  0  0  0  0  0
    2.1748   -0.1270   -1.6298 H   0  0  0  0  0  0  0  0  0  0  0  0
    1.5513    1.4412   -2.9503 C   0  0  0  0  0  0  0  0  0  0  0  0
    1.6387    2.5038   -2.7004 H   0  0  0  0  0  0  0  0  0  0  0  0
    2.4130    1.1594   -3.5631 H   0  0  0  0  0  0  0  0  0  0  0  0
    0.6420    1.2916   -3.5418 H   0  0  0  0  0  0  0  0  0  0  0  0
  1  2  1  0  0  0  0
  2  3  1  0  0  0  0
  2  4  1  0  0  0  0
  2  5  1  0  0  0  0
  5  6  2  0  0  0  0
  5  7  1  0  0  0  0
  7  8  1  0  0  0  0
  7  9  1  0  0  0  0
  9 10  1  0  0  0  0
  9 11  1  0  0  0  0
  9 15  1  0  0  0  0
 11 12  1  0  0  0  0
 11 13  1  0  0  0  0
 11 14  1  0  0  0  0
 15 16  2  0  0  0  0
 15 17  1  0  0  0  0
 17 18  1  0  0  0  0
 17 19  1  0  0  0  0
 19 20  1  0  0  0  0
 19 21  1  0  0  0  0
 19 22  1  0  0  0  0
M  END
$$$$

  -OEChem-11182114133D

 22 21  0     1  0  0  0  0  0999 V2000
   -2.8846   -3.4975    1.0971 H   0  0  0  0  0  0  0  0  0  0  0  0
   -2.7326   -2.4928    0.6926 C   0  0  0  0  0  0  0  0  0  0  0  0
   -3.3884   -1.7977    1.2225 H   0  0  0  0  0  0  0  0  0  0  0  0
   -2.9970   -2.4974   -0.3674 H   0  0  0  0  0  0  0  0  0  0  0  0
   -1.2848   -2.0719    0.8648 C   0  0  0  0  0  0  0  0  0  0  0  0
   -0.5143   -2.8344    1.4220 O   0  0  0  0  0  0  0  0  0  0  0  0
   -0.8988   -0.8271    0.4006 N   0  0  0  0  0  0  0  0  0  0  0  0
   -1.6464   -0.2660   -0.0043 H   0  0  0  0  0  0  0  0  0  0  0  0
    0.4261   -0.1721    0.4406 C   0  0  1  0  0  0  0  0  0  0  0  0
    0.4794    0.4521    1.3385 H   0  0  0  0  0  0  0  0  0  0  0  0
    1.6278   -1.1374    0.4733 C   0  0  0  0  0  0  0  0  0  0  0  0
    1.5393   -1.8976   -0.3093 H   0  0  0  0  0  0  0  0  0  0  0  0
    2.5652   -0.5902    0.3316 H   0  0  0  0  0  0  0  0  0  0  0  0
    1.6886   -1.6398    1.4433 H   0  0  0  0  0  0  0  0  0  0  0  0
    0.5334    0.7682   -0.7823 C   0  0  0  0  0  0  0  0  0  0  0  0
   -0.1983    1.7482   -0.8335 O   0  0  0  0  0  0  0  0  0  0  0  0
    1.3003    0.4545   -1.8913 N   0  0  0  0  0  0  0  0  0  0  0  0
    1.8232   -0.4161   -1.8639 H   0  0  0  0  0  0  0  0  0  0  0  0
    1.3256    1.2586   -3.1070 C   0  0  0  0  0  0  0  0  0  0  0  0
    1.6591    2.2779   -2.8852 H   0  0  0  0  0  0  0  0  0  0  0  0
    2.0150    0.8211   -3.8354 H   0  0  0  0  0  0  0  0  0  0  0  0
    0.3285    1.3040   -3.5576 H   0  0  0  0  0  0  0  0  0  0  0  0
  1  2  1  0  0  0  0
  2  3  1  0  0  0  0
  2  4  1  0  0  0  0
  2  5  1  0  0  0  0
  5  6  2  0  0  0  0
  5  7  1  0  0  0  0
  7  8  1  0  0  0  0
  7  9  1  0  0  0  0
  9 10  1  0  0  0  0
  9 11  1  0  0  0  0
  9 15  1  0  0  0  0
 11 12  1  0  0  0  0
 11 13  1  0  0  0  0
 11 14  1  0  0  0  0
 15 16  2  0  0  0  0
 15 17  1  0  0  0  0
 17 18  1  0  0  0  0
 17 19  1  0  0  0  0
 19 20  1  0  0  0  0
 19 21  1  0  0  0  0
 19 22  1  0  0  0  0
M  END
$$$$

  -OEChem-11182114133D

 22 21  0     1  0  0  0  0  0999 V2000
   -2.8741   -3.5093    1.1312 H   0  0  0  0  0  0  0  0  0  0  0  0
   -2.7349   -2.5050    0.7211 C   0  0  0  0  0  0  0  0  0  0  0  0
   -3.3816   -1.8114    1.2637 H   0  0  0  0  0  0  0  0  0  0  0  0
   -3.0233   -2.5136   -0.3327 H   0  0  0  0  0  0  0  0  0  0  0  0
   -1.2849   -2.0787    0.8597 C   0  0  0  0  0  0  0  0  0  0  0  0
   -0.4975   -2.8419    1.3911 O   0  0  0  0  0  0  0  0  0  0  0  0
   -0.9134   -0.8325    0.3866 N   0  0  0  0  0  0  0  0  0  0  0  0
   -1.6758   -0.2694    0.0153 H   0  0  0  0  0  0  0  0  0  0  0  0
    0.4077   -0.1682    0.4222 C   0  0  1  0  0  0  0  0  0  0  0  0
    0.4604    0.4556    1.3206 H   0  0  0  0  0  0  0  0  0  0  0  0
    1.6192   -1.1201    0.4443 C   0  0  0  0  0  0  0  0  0  0  0  0
    1.5264   -1.8905   -0.3274 H   0  0  0  0  0  0  0  0  0  0  0  0
    2.5469   -0.5635    0.2770 H   0  0  0  0  0  0  0  0  0  0  0  0
    1.7024   -1.6106    1.4188 H   0  0  0  0  0  0  0  0  0  0  0  0
    0.5177    0.7678   -0.8013 C   0  0  0  0  0  0  0  0  0  0  0  0
    0.0024    1.8761   -0.7499 O   0  0  0  0  0  0  0  0  0  0  0  0
    1.0303    0.3249   -2.0081 N   0  0  0  0  0  0  0  0  0  0  0  0
    1.3704   -0.6319   -2.0447 H   0  0  0  0  0  0  0  0  0  0  0  0
    1.0509    1.1334   -3.2209 C   0  0  0  0  0  0  0  0  0  0  0  0
    1.6247    2.0519   -3.0589 H   0  0  0  0  0  0  0  0  0  0  0  0
    1.5163    0.5758   -4.0394 H   0  0  0  0  0  0  0  0  0  0  0  0
    0.0324    1.4021   -3.5203 H   0  0  0  0  0  0  0  0  0  0  0  0
  1  2  1  0  0  0  0
  2  3  1  0  0  0  0
  2  4  1  0  0  0  0
  2  5  1  0  0  0  0
  5  6  2  0  0  0  0
  5  7  1  0  0  0  0
  7  8  1  0  0  0  0
  7  9  1  0  0  0  0
  9 10  1  0  0  0  0
  9 11  1  0  0  0  0
  9 15  1  0  0  0  0
 11 12  1  0  0  0  0
 11 13  1  0  0  0  0
 11 14  1  0  0  0  0
 15 16  2  0  0  0  0
 15 17  1  0  0  0  0
 17 18  1  0  0  0  0
 17 19  1  0  0  0  0
 19 20  1  0  0  0  0
 19 21  1  0  0  0  0
 19 22  1  0  0  0  0
M  END
$$$$

  -OEChem-11182114133D

 22 21  0     1  0  0  0  0  0999 V2000
   -2.8632   -3.5249    1.1822 H   0  0  0  0  0  0  0  0  0  0  0  0
   -2.7375   -2.5235    0.7603 C   0  0  0  0  0  0  0  0  0  0  0  0
   -3.3732   -1.8281    1.3138 H   0  0  0  0  0  0  0  0  0  0  0  0
   -3.0517   -2.5411   -0.2860 H   0  0  0  0  0  0  0  0  0  0  0  0
   -1.2861   -2.0911    0.8597 C   0  0  0  0  0  0  0  0  0  0  0  0
   -0.4815   -2.8498    1.3708 O   0  0  0  0  0  0  0  0  0  0  0  0
   -0.9345   -0.8422    0.3780 N   0  0  0  0  0  0  0  0  0  0  0  0
   -1.7117   -0.2852    0.0302 H   0  0  0  0  0  0  0  0  0  0  0  0
    0.3804   -0.1634    0.4053 C   0  0  1  0  0  0  0  0  0  0  0  0
    0.4351    0.4558    1.3070 H   0  0  0  0  0  0  0  0  0  0  0  0
    1.6025   -1.1008    0.4033 C   0  0  0  0  0  0  0  0  0  0  0  0
    1.5074   -1.8675   -0.3717 H   0  0  0  0  0  0  0  0  0  0  0  0
    2.5207   -0.5326    0.2227 H   0  0  0  0  0  0  0  0  0  0  0  0
    1.7068   -1.5952    1.3738 H   0  0  0  0  0  0  0  0  0  0  0  0
    0.4873    0.7712   -0.8176 C   0  0  0  0  0  0  0  0  0  0  0  0
    0.2435    1.9627   -0.6915 O   0  0  0  0  0  0  0  0  0  0  0  0
    0.7096    0.2603   -2.0839 N   0  0  0  0  0  0  0  0  0  0  0  0
    0.8671   -0.7408   -2.1592 H   0  0  0  0  0  0  0  0  0  0  0  0
    0.7546    1.0812   -3.2875 C   0  0  0  0  0  0  0  0  0  0  0  0
    1.5473    1.8328   -3.2088 H   0  0  0  0  0  0  0  0  0  0  0  0
    0.9558    0.4569   -4.1634 H   0  0  0  0  0  0  0  0  0  0  0  0
   -0.2019    1.5924   -3.4397 H   0  0  0  0  0  0  0  0  0  0  0  0
  1  2  1  0  0  0  0
  2  3  1  0  0  0  0
  2  4  1  0  0  0  0
  2  5  1  0  0  0  0
  5  6  2  0  0  0  0
  5  7  1  0  0  0  0
  7  8  1  0  0  0  0
  7  9  1  0  0  0  0
  9 10  1  0  0  0  0
  9 11  1  0  0  0  0
  9 15  1  0  0  0  0
 11 12  1  0  0  0  0
 11 13  1  0  0  0  0
 11 14  1  0  0  0  0
 15 16  2  0  0  0  0
 15 17  1  0  0  0  0
 17 18  1  0  0  0  0
 17 19  1  0  0  0  0
 19 20  1  0  0  0  0
 19 21  1  0  0  0  0
 19 22  1  0  0  0  0
M  END
$$$$

  -OEChem-11182114133D

 22 21  0     1  0  0  0  0  0999 V2000
   -2.8501   -3.5422    1.2050 H   0  0  0  0  0  0  0  0  0  0  0  0
   -2.7364   -2.5402    0.7811 C   0  0  0  0  0  0  0  0  0  0  0  0
   -3.3756   -1.8503    1.3373 H   0  0  0  0  0  0  0  0  0  0  0  0
   -3.0565   -2.5626   -0.2633 H   0  0  0  0  0  0  0  0  0  0  0  0
   -1.2884   -2.0941    0.8718 C   0  0  0  0  0  0  0  0  0  0  0  0
   -0.4740   -2.8452    1.3778 O   0  0  0  0  0  0  0  0  0  0  0  0
   -0.9509   -0.8426    0.3861 N   0  0  0  0  0  0  0  0  0  0  0  0
   -1.7365   -0.2920    0.0481 H   0  0  0  0  0  0  0  0  0  0  0  0
    0.3615   -0.1556    0.4009 C   0  0  1  0  0  0  0  0  0  0  0  0
    0.4269    0.4564    1.3068 H   0  0  0  0  0  0  0  0  0  0  0  0
    1.5871   -1.0859    0.3647 C   0  0  0  0  0  0  0  0  0  0  0  0
    1.4855   -1.8367   -0.4249 H   0  0  0  0  0  0  0  0  0  0  0  0
    2.4990   -0.5083    0.1816 H   0  0  0  0  0  0  0  0  0  0  0  0
    1.7095   -1.5982    1.3236 H   0  0  0  0  0  0  0  0  0  0  0  0
    0.4608    0.7820   -0.8191 C   0  0  0  0  0  0  0  0  0  0  0  0
    0.5313    1.9918   -0.6595 O   0  0  0  0  0  0  0  0  0  0  0  0
    0.3674    0.2709   -2.1009 N   0  0  0  0  0  0  0  0  0  0  0  0
    0.3221   -0.7402   -2.1928 H   0  0  0  0  0  0  0  0  0  0  0  0
    0.4322    1.0943   -3.3020 C   0  0  0  0  0  0  0  0  0  0  0  0
    1.3784    1.6447   -3.3389 H   0  0  0  0  0  0  0  0  0  0  0  0
    0.3626    0.4662   -4.1954 H   0  0  0  0  0  0  0  0  0  0  0  0
   -0.3942    1.8127   -3.3193 H   0  0  0  0  0  0  0  0  0  0  0  0
  1  2  1  0  0  0  0
  2  3  1  0  0  0  0
  2  4  1  0  0  0  0
  2  5  1  0  0  0  0
  5  6  2  0  0  0  0
  5  7  1  0  0  0  0
  7  8  1  0  0  0  0
  7  9  1  0  0  0  0
  9 10  1  0  0  0  0
  9 11  1  0  0  0  0
  9 15  1  0  0  0  0
 11 12  1  0  0  0  0
 11 13  1  0  0  0  0
 11 14  1  0  0  0  0
 15 16  2  0  0  0  0
 15 17  1  0  0  0  0
 17 18  1  0  0  0  0
 17 19  1  0  0  0  0
 19 20  1  0  0  0  0
 19 21  1  0  0  0  0
 19 22  1  0  0  0  0
M  END
$$$$

  -OEChem-11182114133D

 22 21  0     1  0  0  0  0  0999 V2000
   -2.8373   -3.5633    1.2380 H   0  0  0  0  0  0  0  0  0  0  0  0
   -2.7364   -2.5609    0.8118 C   0  0  0  0  0  0  0  0  0  0  0  0
   -3.3674   -1.8736    1.3806 H   0  0  0  0  0  0  0  0  0  0  0  0
   -3.0772   -2.5852   -0.2260 H   0  0  0  0  0  0  0  0  0  0  0  0
   -1.2891   -2.1084    0.8736 C   0  0  0  0  0  0  0  0  0  0  0  0
   -0.4604   -2.8607    1.3532 O   0  0  0  0  0  0  0  0  0  0  0  0
   -0.9702   -0.8508    0.3906 N   0  0  0  0  0  0  0  0  0  0  0  0
   -1.7687   -0.3018    0.0819 H   0  0  0  0  0  0  0  0  0  0  0  0
    0.3356   -0.1482    0.3976 C   0  0  1  0  0  0  0  0  0  0  0  0
    0.4061    0.4553    1.3087 H   0  0  0  0  0  0  0  0  0  0  0  0
    1.5686   -1.0662    0.3329 C   0  0  0  0  0  0  0  0  0  0  0  0
    1.4662   -1.8003   -0.4723 H   0  0  0  0  0  0  0  0  0  0  0  0
    2.4740   -0.4771    0.1535 H   0  0  0  0  0  0  0  0  0  0  0  0
    1.7050   -1.5968    1.2798 H   0  0  0  0  0  0  0  0  0  0  0  0
    0.4256    0.7995   -0.8156 C   0  0  0  0  0  0  0  0  0  0  0  0
    0.7912    1.9566   -0.6688 O   0  0  0  0  0  0  0  0  0  0  0  0
    0.0303    0.3636   -2.0676 N   0  0  0  0  0  0  0  0  0  0  0  0
   -0.1821   -0.6259   -2.1599 H   0  0  0  0  0  0  0  0  0  0  0  0
    0.1312    1.1835   -3.2686 C   0  0  0  0  0  0  0  0  0  0  0  0
    1.1729    1.4667   -3.4529 H   0  0  0  0  0  0  0  0  0  0  0  0
   -0.2359    0.6286   -4.1373 H   0  0  0  0  0  0  0  0  0  0  0  0
   -0.4679    2.0942   -3.1627 H   0  0  0  0  0  0  0  0  0  0  0  0
  1  2  1  0  0  0  0
  2  3  1  0  0  0  0
  2  4  1  0  0  0  0
  2  5  1  0  0  0  0
  5  6  2  0  0  0  0
  5  7  1  0  0  0  0
  7  8  1  0  0  0  0
  7  9  1  0  0  0  0
  9 10  1  0  0  0  0
  9 11  1  0  0  0  0
  9 15  1  0  0  0  0
 11 12  1  0  0  0  0
 11 13  1  0  0  0  0
 11 14  1  0  0  0  0
 15 16  2  0  0  0  0
 15 17  1  0  0  0  0
 17 18  1  0  0  0  0
 17 19  1  0  0  0  0
 19 20  1  0  0  0  0
 19 21  1  0  0  0  0
 19 22  1  0  0  0  0
M  END
$$$$

  -OEChem-11182114133D

 22 21  0     1  0  0  0  0  0999 V2000
   -2.8277   -3.5781    1.2657 H   0  0  0  0  0  0  0  0  0  0  0  0
   -2.7359   -2.5769    0.8344 C   0  0  0  0  0  0  0  0  0  0  0  0
   -3.3616   -1.8898    1.4092 H   0  0  0  0  0  0  0  0  0  0  0  0
   -3.0906   -2.6063   -0.1986 H   0  0  0  0  0  0  0  0  0  0  0  0
   -1.2890   -2.1197    0.8756 C   0  0  0  0  0  0  0  0  0  0  0  0
   -0.4525   -2.8713    1.3416 O   0  0  0  0  0  0  0  0  0  0  0  0
   -0.9822   -0.8575    0.3951 N   0  0  0  0  0  0  0  0  0  0  0  0
   -1.7902   -0.3050    0.1198 H   0  0  0  0  0  0  0  0  0  0  0  0
    0.3202   -0.1446    0.3955 C   0  0  1  0  0  0  0  0  0  0  0  0
    0.3932    0.4536    1.3098 H   0  0  0  0  0  0  0  0  0  0  0  0
    1.5552   -1.0591    0.3160 C   0  0  0  0  0  0  0  0  0  0  0  0
    1.4519   -1.7805   -0.5005 H   0  0  0  0  0  0  0  0  0  0  0  0
    2.4598   -0.4667    0.1438 H   0  0  0  0  0  0  0  0  0  0  0  0
    1.6956   -1.6031    1.2543 H   0  0  0  0  0  0  0  0  0  0  0  0
    0.4105    0.8142   -0.8108 C   0  0  0  0  0  0  0  0  0  0  0  0
    1.0274    1.8656   -0.7173 O   0  0  0  0  0  0  0  0  0  0  0  0
   -0.2540    0.5203   -1.9884 N   0  0  0  0  0  0  0  0  0  0  0  0
   -0.6311   -0.4195   -2.0703 H   0  0  0  0  0  0  0  0  0  0  0  0
   -0.1516    1.3459   -3.1857 C   0  0  0  0  0  0  0  0  0  0  0  0
    0.8881    1.4022   -3.5250 H   0  0  0  0  0  0  0  0  0  0  0  0
   -0.7572    0.9204   -3.9917 H   0  0  0  0  0  0  0  0  0  0  0  0
   -0.5112    2.3604   -2.9833 H   0  0  0  0  0  0  0  0  0  0  0  0
  1  2  1  0  0  0  0
  2  3  1  0  0  0  0
  2  4  1  0  0  0  0
  2  5  1  0  0  0  0
  5  6  2  0  0  0  0
  5  7  1  0  0  0  0
  7  8  1  0  0  0  0
  7  9  1  0  0  0  0
  9 10  1  0  0  0  0
  9 11  1  0  0  0  0
  9 15  1  0  0  0  0
 11 12  1  0  0  0  0
 11 13  1  0  0  0  0
 11 14  1  0  0  0  0
 15 16  2  0  0  0  0
 15 17  1  0  0  0  0
 17 18  1  0  0  0  0
 17 19  1  0  0  0  0
 19 20  1  0  0  0  0
 19 21  1  0  0  0  0
 19 22  1  0  0  0  0
M  END
$$$$

  -OEChem-11182114133D

 22 21  0     1  0  0  0  0  0999 V2000
   -2.8248   -3.5822    1.2857 H   0  0  0  0  0  0  0  0  0  0  0  0
   -2.7351   -2.5827    0.8502 C   0  0  0  0  0  0  0  0  0  0  0  0
   -3.3509   -1.8920    1.4313 H   0  0  0  0  0  0  0  0  0  0  0  0
   -3.1031   -2.6144   -0.1780 H   0  0  0  0  0  0  0  0  0  0  0  0
   -1.2863   -2.1306    0.8711 C   0  0  0  0  0  0  0  0  0  0  0  0
   -0.4469   -2.8879    1.3222 O   0  0  0  0  0  0  0  0  0  0  0  0
   -0.9849   -0.8657    0.3926 N   0  0  0  0  0  0  0  0  0  0  0  0
   -1.7995   -0.3049    0.1580 H   0  0  0  0  0  0  0  0  0  0  0  0
    0.3148   -0.1453    0.3917 C   0  0  1  0  0  0  0  0  0  0  0  0
    0.3856    0.4513    1.3069 H   0  0  0  0  0  0  0  0  0  0  0  0
    1.5498   -1.0621    0.3154 C   0  0  0  0  0  0  0  0  0  0  0  0
    1.4459   -1.7844   -0.5002 H   0  0  0  0  0  0  0  0  0  0  0  0
    2.4570   -0.4738    0.1434 H   0  0  0  0  0  0  0  0  0  0  0  0
    1.6884   -1.6047    1.2548 H   0  0  0  0  0  0  0  0  0  0  0  0
    0.4099    0.8213   -0.8115 C   0  0  0  0  0  0  0  0  0  0  0  0
    1.2070    1.7487   -0.7942 O   0  0  0  0  0  0  0  0  0  0  0  0
   -0.4714    0.7136   -1.8738 N   0  0  0  0  0  0  0  0  0  0  0  0
   -0.9868   -0.1589   -1.9381 H   0  0  0  0  0  0  0  0  0  0  0  0
   -0.3954    1.5689   -3.0527 C   0  0  0  0  0  0  0  0  0  0  0  0
    0.5714    1.4481   -3.5529 H   0  0  0  0  0  0  0  0  0  0  0  0
   -1.1877    1.3088   -3.7610 H   0  0  0  0  0  0  0  0  0  0  0  0
   -0.5174    2.6204   -2.7717 H   0  0  0  0  0  0  0  0  0  0  0  0
  1  2  1  0  0  0  0
  2  3  1  0  0  0  0
  2  4  1  0  0  0  0
  2  5  1  0  0  0  0
  5  6  2  0  0  0  0
  5  7  1  0  0  0  0
  7  8  1  0  0  0  0
  7  9  1  0  0  0  0
  9 10  1  0  0  0  0
  9 11  1  0  0  0  0
  9 15  1  0  0  0  0
 11 12  1  0  0  0  0
 11 13  1  0  0  0  0
 11 14  1  0  0  0  0
 15 16  2  0  0  0  0
 15 17  1  0  0  0  0
 17 18  1  0  0  0  0
 17 19  1  0  0  0  0
 19 20  1  0  0  0  0
 19 21  1  0  0  0  0
 19 22  1  0  0  0  0
M  END
$$$$

  -OEChem-11182114133D

 22 21  0     1  0  0  0  0  0999 V2000
   -2.8234   -3.5821    1.2979 H   0  0  0  0  0  0  0  0  0  0  0  0
   -2.7331   -2.5833    0.8608 C   0  0  0  0  0  0  0  0  0  0  0  0
   -3.3363   -1.8885    1.4502 H   0  0  0  0  0  0  0  0  0  0  0  0
   -3.1153   -2.6126   -0.1624 H   0  0  0  0  0  0  0  0  0  0  0  0
   -1.2811   -2.1409    0.8605 C   0  0  0  0  0  0  0  0  0  0  0  0
   -0.4416   -2.9078    1.2942 O   0  0  0  0  0  0  0  0  0  0  0  0
   -0.9822   -0.8740    0.3845 N   0  0  0  0  0  0  0  0  0  0  0  0
   -1.8021   -0.3050    0.1958 H   0  0  0  0  0  0  0  0  0  0  0  0
    0.3163   -0.1488    0.3839 C   0  0  1  0  0  0  0  0  0  0  0  0
    0.3818    0.4494    1.2982 H   0  0  0  0  0  0  0  0  0  0  0  0
    1.5518   -1.0690    0.3246 C   0  0  0  0  0  0  0  0  0  0  0  0
    1.4585   -1.7889   -0.4945 H   0  0  0  0  0  0  0  0  0  0  0  0
    2.4654   -0.4861    0.1697 H   0  0  0  0  0  0  0  0  0  0  0  0
    1.6745   -1.6135    1.2649 H   0  0  0  0  0  0  0  0  0  0  0  0
    0.4139    0.8240   -0.8184 C   0  0  0  0  0  0  0  0  0  0  0  0
    1.3487    1.6086   -0.9046 O   0  0  0  0  0  0  0  0  0  0  0  0
   -0.6252    0.9339   -1.7281 N   0  0  0  0  0  0  0  0  0  0  0  0
   -1.2752    0.1555   -1.7556 H   0  0  0  0  0  0  0  0  0  0  0  0
   -0.5746    1.8331   -2.8759 C   0  0  0  0  0  0  0  0  0  0  0  0
    0.2625    1.5715   -3.5318 H   0  0  0  0  0  0  0  0  0  0  0  0
   -1.5024    1.7641   -3.4519 H   0  0  0  0  0  0  0  0  0  0  0  0
   -0.4521    2.8702   -2.5456 H   0  0  0  0  0  0  0  0  0  0  0  0
  1  2  1  0  0  0  0
  2  3  1  0  0  0  0
  2  4  1  0  0  0  0
  2  5  1  0  0  0  0
  5  6  2  0  0  0  0
  5  7  1  0  0  0  0
  7  8  1  0  0  0  0
  7  9  1  0  0  0  0
  9 10  1  0  0  0  0
  9 11  1  0  0  0  0
  9 15  1  0  0  0  0
 11 12  1  0  0  0  0
 11 13  1  0  0  0  0
 11 14  1  0  0  0  0
 15 16  2  0  0  0  0
 15 17  1  0  0  0  0
 17 18  1  0  0  0  0
 17 19  1  0  0  0  0
 19 20  1  0  0  0  0
 19 21  1  0  0  0  0
 19 22  1  0  0  0  0
M  END
$$$$

  -OEChem-11182114133D

 22 21  0     1  0  0  0  0  0999 V2000
   -2.8215   -3.5829    1.2919 H   0  0  0  0  0  0  0  0  0  0  0  0
   -2.7283   -2.5833    0.8571 C   0  0  0  0  0  0  0  0  0  0  0  0
   -3.3257   -1.8870    1.4505 H   0  0  0  0  0  0  0  0  0  0  0  0
   -3.1148   -2.6089   -0.1646 H   0  0  0  0  0  0  0  0  0  0  0  0
   -1.2740   -2.1480    0.8519 C   0  0  0  0  0  0  0  0  0  0  0  0
   -0.4387   -2.9202    1.2840 O   0  0  0  0  0  0  0  0  0  0  0  0
   -0.9744   -0.8796    0.3790 N   0  0  0  0  0  0  0  0  0  0  0  0
   -1.7972   -0.3098    0.2137 H   0  0  0  0  0  0  0  0  0  0  0  0
    0.3248   -0.1534    0.3743 C   0  0  1  0  0  0  0  0  0  0  0  0
    0.3851    0.4485    1.2864 H   0  0  0  0  0  0  0  0  0  0  0  0
    1.5596   -1.0794    0.3385 C   0  0  0  0  0  0  0  0  0  0  0  0
    1.4791   -1.7969   -0.4840 H   0  0  0  0  0  0  0  0  0  0  0  0
    2.4811   -0.5037    0.2061 H   0  0  0  0  0  0  0  0  0  0  0  0
    1.6617   -1.6261    1.2798 H   0  0  0  0  0  0  0  0  0  0  0  0
    0.4193    0.8260   -0.8280 C   0  0  0  0  0  0  0  0  0  0  0  0
    1.4551    1.4346   -1.0614 O   0  0  0  0  0  0  0  0  0  0  0  0
   -0.7102    1.1759   -1.5517 N   0  0  0  0  0  0  0  0  0  0  0  0
   -1.5037    0.5504   -1.4807 H   0  0  0  0  0  0  0  0  0  0  0  0
   -0.6735    2.1163   -2.6670 C   0  0  0  0  0  0  0  0  0  0  0  0
   -0.0225    1.7416   -3.4639 H   0  0  0  0  0  0  0  0  0  0  0  0
   -1.6785    2.2573   -3.0763 H   0  0  0  0  0  0  0  0  0  0  0  0
   -0.2989    3.0908   -2.3355 H   0  0  0  0  0  0  0  0  0  0  0  0
  1  2  1  0  0  0  0
  2  3  1  0  0  0  0
  2  4  1  0  0  0  0
  2  5  1  0  0  0  0
  5  6  2  0  0  0  0
  5  7  1  0  0  0  0
  7  8  1  0  0  0  0
  7  9  1  0  0  0  0
  9 10  1  0  0  0  0
  9 11  1  0  0  0  0
  9 15  1  0  0  0  0
 11 12  1  0  0  0  0
 11 13  1  0  0  0  0
 11 14  1  0  0  0  0
 15 16  2  0  0  0  0
 15 17  1  0  0  0  0
 17 18  1  0  0  0  0
 17 19  1  0  0  0  0
 19 20  1  0  0  0  0
 19 21  1  0  0  0  0
 19 22  1  0  0  0  0
M  END
$$$$

  -OEChem-11182114133D

 22 21  0     1  0  0  0  0  0999 V2000
   -2.7017   -3.5972    1.1565 H   0  0  0  0  0  0  0  0  0  0  0  0
   -2.6141   -2.6175    0.6777 C   0  0  0  0  0  0  0  0  0  0  0  0
   -3.4535   -1.9947    0.9961 H   0  0  0  0  0  0  0  0  0  0  0  0
   -2.6577   -2.7528   -0.4057 H   0  0  0  0  0  0  0  0  0  0  0  0
   -1.3026   -1.9610    1.0679 C   0  0  0  0  0  0  0  0  0  0  0  0
   -0.6097   -2.4876    1.9197 O   0  0  0  0  0  0  0  0  0  0  0  0
   -0.9833   -0.7310    0.5194 N   0  0  0  0  0  0  0  0  0  0  0  0
   -1.6369   -0.4505   -0.2055 H   0  0  0  0  0  0  0  0  0  0  0  0
    0.3694   -0.1274    0.4060 C   0  0  1  0  0  0  0  0  0  0  0  0
    0.5518    0.4942    1.2880 H   0  0  0  0  0  0  0  0  0  0  0  0
    1.5038   -1.1742    0.3127 C   0  0  0  0  0  0  0  0  0  0  0  0
    1.3048   -1.8865   -0.4939 H   0  0  0  0  0  0  0  0  0  0  0  0
    2.4653   -0.6890    0.1176 H   0  0  0  0  0  0  0  0  0  0  0  0
    1.6160   -1.7222    1.2513 H   0  0  0  0  0  0  0  0  0  0  0  0
    0.4203    0.7975   -0.8420 C   0  0  0  0  0  0  0  0  0  0  0  0
    1.4332    0.9473   -1.5123 O   0  0  0  0  0  0  0  0  0  0  0  0
   -0.7363    1.4392   -1.2586 N   0  0  0  0  0  0  0  0  0  0  0  0
   -1.4869    1.4984   -0.5775 H   0  0  0  0  0  0  0  0  0  0  0  0
   -0.7631    2.3591   -2.3914 C   0  0  0  0  0  0  0  0  0  0  0  0
   -0.4303    1.8544   -3.3047 H   0  0  0  0  0  0  0  0  0  0  0  0
   -1.7803    2.7278   -2.5552 H   0  0  0  0  0  0  0  0  0  0  0  0
   -0.1080    3.2168   -2.2056 H   0  0  0  0  0  0  0  0  0  0  0  0
  1  2  1  0  0  0  0
  2  3  1  0  0  0  0
  2  4  1  0  0  0  0
  2  5  1  0  0  0  0
  5  6  2  0  0  0  0
  5  7  1  0  0  0  0
  7  8  1  0  0  0  0
  7  9  1  0  0  0  0
  9 10  1  0  0  0  0
  9 11  1  0  0  0  0
  9 15  1  0  0  0  0
 11 12  1  0  0  0  0
 11 13  1  0  0  0  0
 11 14  1  0  0  0  0
 15 16  2  0  0  0  0
 15 17  1  0  0  0  0
 17 18  1  0  0  0  0
 17 19  1  0  0  0  0
 19 20  1  0  0  0  0
 19 21  1  0  0  0  0
 19 22  1  0  0  0  0
M  END
$$$$

  -OEChem-11182114133D

 22 21  0     1  0  0  0  0  0999 V2000
   -2.7257   -3.5757    1.1472 H   0  0  0  0  0  0  0  0  0  0  0  0
   -2.6262   -2.5976    0.6680 C   0  0  0  0  0  0  0  0  0  0  0  0
   -3.4526   -1.9613    0.9933 H   0  0  0  0  0  0  0  0  0  0  0  0
   -2.6805   -2.7321   -0.4150 H   0  0  0  0  0  0  0  0  0  0  0  0
   -1.3014   -1.9624    1.0473 C   0  0  0  0  0  0  0  0  0  0  0  0
   -0.6032   -2.5075    1.8833 O   0  0  0  0  0  0  0  0  0  0  0  0
   -0.9744   -0.7298    0.5101 N   0  0  0  0  0  0  0  0  0  0  0  0
   -1.6366   -0.4180   -0.1952 H   0  0  0  0  0  0  0  0  0  0  0  0
    0.3780   -0.1276    0.4098 C   0  0  1  0  0  0  0  0  0  0  0  0
    0.5553    0.4913    1.2947 H   0  0  0  0  0  0  0  0  0  0  0  0
    1.5181   -1.1672    0.3190 C   0  0  0  0  0  0  0  0  0  0  0  0
    1.3212   -1.8867   -0.4819 H   0  0  0  0  0  0  0  0  0  0  0  0
    2.4736   -0.6737    0.1146 H   0  0  0  0  0  0  0  0  0  0  0  0
    1.6364   -1.7084    1.2609 H   0  0  0  0  0  0  0  0  0  0  0  0
    0.4183    0.7993   -0.8343 C   0  0  0  0  0  0  0  0  0  0  0  0
    1.3139    0.7633   -1.6678 O   0  0  0  0  0  0  0  0  0  0  0  0
   -0.6429    1.6629   -1.0512 N   0  0  0  0  0  0  0  0  0  0  0  0
   -1.2890    1.7943   -0.2783 H   0  0  0  0  0  0  0  0  0  0  0  0
   -0.6816    2.6094   -2.1606 C   0  0  0  0  0  0  0  0  0  0  0  0
   -0.6283    2.0803   -3.1180 H   0  0  0  0  0  0  0  0  0  0  0  0
   -1.6127    3.1836   -2.1364 H   0  0  0  0  0  0  0  0  0  0  0  0
    0.1588    3.3086   -2.0980 H   0  0  0  0  0  0  0  0  0  0  0  0
  1  2  1  0  0  0  0
  2  3  1  0  0  0  0
  2  4  1  0  0  0  0
  2  5  1  0  0  0  0
  5  6  2  0  0  0  0
  5  7  1  0  0  0  0
  7  8  1  0  0  0  0
  7  9  1  0  0  0  0
  9 10  1  0  0  0  0
  9 11  1  0  0  0  0
  9 15  1  0  0  0  0
 11 12  1  0  0  0  0
 11 13  1  0  0  0  0
 11 14  1  0  0  0  0
 15 16  2  0  0  0  0
 15 17  1  0  0  0  0
 17 18  1  0  0  0  0
 17 19  1  0  0  0  0
 19 20  1  0  0  0  0
 19 21  1  0  0  0  0
 19 22  1  0  0  0  0
M  END
$$$$

  -OEChem-11182114133D

 22 21  0     1  0  0  0  0  0999 V2000
   -2.7396   -3.5676    1.1380 H   0  0  0  0  0  0  0  0  0  0  0  0
   -2.6345   -2.5877    0.6636 C   0  0  0  0  0  0  0  0  0  0  0  0
   -3.4508   -1.9447    1.0010 H   0  0  0  0  0  0  0  0  0  0  0  0
   -2.7011   -2.7143   -0.4196 H   0  0  0  0  0  0  0  0  0  0  0  0
   -1.2991   -1.9687    1.0329 C   0  0  0  0  0  0  0  0  0  0  0  0
   -0.5921   -2.5316    1.8498 O   0  0  0  0  0  0  0  0  0  0  0  0
   -0.9696   -0.7308    0.5097 N   0  0  0  0  0  0  0  0  0  0  0  0
   -1.6403   -0.3940   -0.1761 H   0  0  0  0  0  0  0  0  0  0  0  0
    0.3808   -0.1267    0.4210 C   0  0  1  0  0  0  0  0  0  0  0  0
    0.5568    0.4829    1.3125 H   0  0  0  0  0  0  0  0  0  0  0  0
    1.5248   -1.1596    0.3198 C   0  0  0  0  0  0  0  0  0  0  0  0
    1.3199   -1.8869   -0.4723 H   0  0  0  0  0  0  0  0  0  0  0  0
    2.4724   -0.6601    0.0942 H   0  0  0  0  0  0  0  0  0  0  0  0
    1.6595   -1.6932    1.2643 H   0  0  0  0  0  0  0  0  0  0  0  0
    0.4180    0.8094   -0.8137 C   0  0  0  0  0  0  0  0  0  0  0  0
    1.1341    0.6068   -1.7855 O   0  0  0  0  0  0  0  0  0  0  0  0
   -0.4661    1.8734   -0.8603 N   0  0  0  0  0  0  0  0  0  0  0  0
   -0.9960    2.0728   -0.0166 H   0  0  0  0  0  0  0  0  0  0  0  0
   -0.5045    2.8324   -1.9588 C   0  0  0  0  0  0  0  0  0  0  0  0
   -0.7378    2.3261   -2.9013 H   0  0  0  0  0  0  0  0  0  0  0  0
   -1.2732    3.5889   -1.7747 H   0  0  0  0  0  0  0  0  0  0  0  0
    0.4614    3.3381   -2.0608 H   0  0  0  0  0  0  0  0  0  0  0  0
  1  2  1  0  0  0  0
  2  3  1  0  0  0  0
  2  4  1  0  0  0  0
  2  5  1  0  0  0  0
  5  6  2  0  0  0  0
  5  7  1  0  0  0  0
  7  8  1  0  0  0  0
  7  9  1  0  0  0  0
  9 10  1  0  0  0  0
  9 11  1  0  0  0  0
  9 15  1  0  0  0  0
 11 12  1  0  0  0  0
 11 13  1  0  0  0  0
 11 14  1  0  0  0  0
 15 16  2  0  0  0  0
 15 17  1  0  0  0  0
 17 18  1  0  0  0  0
 17 19  1  0  0  0  0
 19 20  1  0  0  0  0
 19 21  1  0  0  0  0
 19 22  1  0  0  0  0
M  END
$$$$

  -OEChem-11182114133D

 22 21  0     1  0  0  0  0  0999 V2000
   -2.7296   -3.5723    1.1199 H   0  0  0  0  0  0  0  0  0  0  0  0
   -2.6267   -2.5900    0.6499 C   0  0  0  0  0  0  0  0  0  0  0  0
   -3.4523   -1.9544    0.9785 H   0  0  0  0  0  0  0  0  0  0  0  0
   -2.6781   -2.7139   -0.4345 H   0  0  0  0  0  0  0  0  0  0  0  0
   -1.3014   -1.9614    1.0379 C   0  0  0  0  0  0  0  0  0  0  0  0
   -0.5967   -2.5231    1.8583 O   0  0  0  0  0  0  0  0  0  0  0  0
   -0.9732   -0.7192    0.5254 N   0  0  0  0  0  0  0  0  0  0  0  0
   -1.6391   -0.3784   -0.1632 H   0  0  0  0  0  0  0  0  0  0  0  0
    0.3790   -0.1225    0.4428 C   0  0  1  0  0  0  0  0  0  0  0  0
    0.5643    0.4698    1.3440 H   0  0  0  0  0  0  0  0  0  0  0  0
    1.5151   -1.1595    0.3137 C   0  0  0  0  0  0  0  0  0  0  0  0
    1.2885   -1.8849   -0.4742 H   0  0  0  0  0  0  0  0  0  0  0  0
    2.4582   -0.6625    0.0650 H   0  0  0  0  0  0  0  0  0  0  0  0
    1.6676   -1.6958    1.2540 H   0  0  0  0  0  0  0  0  0  0  0  0
    0.4244    0.8251   -0.7807 C   0  0  0  0  0  0  0  0  0  0  0  0
    0.8911    0.4846   -1.8600 O   0  0  0  0  0  0  0  0  0  0  0  0
   -0.2059    2.0535   -0.6948 N   0  0  0  0  0  0  0  0  0  0  0  0
   -0.5821    2.3246    0.2093 H   0  0  0  0  0  0  0  0  0  0  0  0
   -0.2540    3.0095   -1.7955 C   0  0  0  0  0  0  0  0  0  0  0  0
   -0.7794    2.5795   -2.6548 H   0  0  0  0  0  0  0  0  0  0  0  0
   -0.7829    3.9162   -1.4863 H   0  0  0  0  0  0  0  0  0  0  0  0
    0.7587    3.2884   -2.1055 H   0  0  0  0  0  0  0  0  0  0  0  0
  1  2  1  0  0  0  0
  2  3  1  0  0  0  0
  2  4  1  0  0  0  0
  2  5  1  0  0  0  0
  5  6  2  0  0  0  0
  5  7  1  0  0  0  0
  7  8  1  0  0  0  0
  7  9  1  0  0  0  0
  9 10  1  0  0  0  0
  9 11  1  0  0  0  0
  9 15  1  0  0  0  0
 11 12  1  0  0  0  0
 11 13  1  0  0  0  0
 11 14  1  0  0  0  0
 15 16  2  0  0  0  0
 15 17  1  0  0  0  0
 17 18  1  0  0  0  0
 17 19  1  0  0  0  0
 19 20  1  0  0  0  0
 19 21  1  0  0  0  0
 19 22  1  0  0  0  0
M  END
$$$$

  -OEChem-11182114133D

 22 21  0     1  0  0  0  0  0999 V2000
   -2.7211   -3.5748    1.0999 H   0  0  0  0  0  0  0  0  0  0  0  0
   -2.6199   -2.5892    0.6368 C   0  0  0  0  0  0  0  0  0  0  0  0
   -3.4549   -1.9617    0.9573 H   0  0  0  0  0  0  0  0  0  0  0  0
   -2.6551   -2.7071   -0.4490 H   0  0  0  0  0  0  0  0  0  0  0  0
   -1.3052   -1.9523    1.0461 C   0  0  0  0  0  0  0  0  0  0  0  0
   -0.6061   -2.5098    1.8747 O   0  0  0  0  0  0  0  0  0  0  0  0
   -0.9769   -0.7079    0.5411 N   0  0  0  0  0  0  0  0  0  0  0  0
   -1.6278   -0.3770   -0.1670 H   0  0  0  0  0  0  0  0  0  0  0  0
    0.3781   -0.1205    0.4649 C   0  0  1  0  0  0  0  0  0  0  0  0
    0.5704    0.4559    1.3748 H   0  0  0  0  0  0  0  0  0  0  0  0
    1.5064   -1.1610    0.3082 C   0  0  0  0  0  0  0  0  0  0  0  0
    1.2636   -1.8793   -0.4813 H   0  0  0  0  0  0  0  0  0  0  0  0
    2.4471   -0.6663    0.0469 H   0  0  0  0  0  0  0  0  0  0  0  0
    1.6702   -1.7061    1.2418 H   0  0  0  0  0  0  0  0  0  0  0  0
    0.4358    0.8347   -0.7495 C   0  0  0  0  0  0  0  0  0  0  0  0
    0.6104    0.4158   -1.8865 O   0  0  0  0  0  0  0  0  0  0  0  0
    0.1059    2.1670   -0.5790 N   0  0  0  0  0  0  0  0  0  0  0  0
   -0.0792    2.4881    0.3670 H   0  0  0  0  0  0  0  0  0  0  0  0
    0.0485    3.1274   -1.6751 C   0  0  0  0  0  0  0  0  0  0  0  0
   -0.7114    2.8311   -2.4059 H   0  0  0  0  0  0  0  0  0  0  0  0
   -0.2074    4.1209   -1.2944 H   0  0  0  0  0  0  0  0  0  0  0  0
    1.0179    3.1907   -2.1807 H   0  0  0  0  0  0  0  0  0  0  0  0
  1  2  1  0  0  0  0
  2  3  1  0  0  0  0
  2  4  1  0  0  0  0
  2  5  1  0  0  0  0
  5  6  2  0  0  0  0
  5  7  1  0  0  0  0
  7  8  1  0  0  0  0
  7  9  1  0  0  0  0
  9 10  1  0  0  0  0
  9 11  1  0  0  0  0
  9 15  1  0  0  0  0
 11 12  1  0  0  0  0
 11 13  1  0  0  0  0
 11 14  1  0  0  0  0
 15 16  2  0  0  0  0
 15 17  1  0  0  0  0
 17 18  1  0  0  0  0
 17 19  1  0  0  0  0
 19 20  1  0  0  0  0
 19 21  1  0  0  0  0
 19 22  1  0  0  0  0
M  END
$$$$

  -OEChem-11182114133D

 22 21  0     1  0  0  0  0  0999 V2000
   -2.7276   -3.5737    1.0898 H   0  0  0  0  0  0  0  0  0  0  0  0
   -2.6236   -2.5860    0.6319 C   0  0  0  0  0  0  0  0  0  0  0  0
   -3.4581   -1.9587    0.9539 H   0  0  0  0  0  0  0  0  0  0  0  0
   -2.6575   -2.6981   -0.4545 H   0  0  0  0  0  0  0  0  0  0  0  0
   -1.3086   -1.9528    1.0469 C   0  0  0  0  0  0  0  0  0  0  0  0
   -0.6106   -2.5144    1.8743 O   0  0  0  0  0  0  0  0  0  0  0  0
   -0.9774   -0.7071    0.5481 N   0  0  0  0  0  0  0  0  0  0  0  0
   -1.6144   -0.3820   -0.1760 H   0  0  0  0  0  0  0  0  0  0  0  0
    0.3781   -0.1219    0.4815 C   0  0  1  0  0  0  0  0  0  0  0  0
    0.5674    0.4444    1.3981 H   0  0  0  0  0  0  0  0  0  0  0  0
    1.5062   -1.1575    0.3070 C   0  0  0  0  0  0  0  0  0  0  0  0
    1.2638   -1.8613   -0.4958 H   0  0  0  0  0  0  0  0  0  0  0  0
    2.4470   -0.6581    0.0553 H   0  0  0  0  0  0  0  0  0  0  0  0
    1.6690   -1.7192    1.2308 H   0  0  0  0  0  0  0  0  0  0  0  0
    0.4474    0.8376   -0.7267 C   0  0  0  0  0  0  0  0  0  0  0  0
    0.3320    0.4122   -1.8692 O   0  0  0  0  0  0  0  0  0  0  0  0
    0.4321    2.2051   -0.5214 N   0  0  0  0  0  0  0  0  0  0  0  0
    0.4692    2.5384    0.4377 H   0  0  0  0  0  0  0  0  0  0  0  0
    0.3843    3.1789   -1.6058 C   0  0  0  0  0  0  0  0  0  0  0  0
   -0.5363    3.0611   -2.1873 H   0  0  0  0  0  0  0  0  0  0  0  0
    0.4102    4.1958   -1.2026 H   0  0  0  0  0  0  0  0  0  0  0  0
    1.2423    3.0504   -2.2742 H   0  0  0  0  0  0  0  0  0  0  0  0
  1  2  1  0  0  0  0
  2  3  1  0  0  0  0
  2  4  1  0  0  0  0
  2  5  1  0  0  0  0
  5  6  2  0  0  0  0
  5  7  1  0  0  0  0
  7  8  1  0  0  0  0
  7  9  1  0  0  0  0
  9 10  1  0  0  0  0
  9 11  1  0  0  0  0
  9 15  1  0  0  0  0
 11 12  1  0  0  0  0
 11 13  1  0  0  0  0
 11 14  1  0  0  0  0
 15 16  2  0  0  0  0
 15 17  1  0  0  0  0
 17 18  1  0  0  0  0
 17 19  1  0  0  0  0
 19 20  1  0  0  0  0
 19 21  1  0  0  0  0
 19 22  1  0  0  0  0
M  END
$$$$

  -OEChem-11182114133D

 22 21  0     1  0  0  0  0  0999 V2000
   -2.7245   -3.5773    1.0776 H   0  0  0  0  0  0  0  0  0  0  0  0
   -2.6232   -2.5851    0.6288 C   0  0  0  0  0  0  0  0  0  0  0  0
   -3.4621   -1.9644    0.9523 H   0  0  0  0  0  0  0  0  0  0  0  0
   -2.6517   -2.6871   -0.4588 H   0  0  0  0  0  0  0  0  0  0  0  0
   -1.3134   -1.9490    1.0554 C   0  0  0  0  0  0  0  0  0  0  0  0
   -0.6193   -2.5104    1.8864 O   0  0  0  0  0  0  0  0  0  0  0  0
   -0.9788   -0.7039    0.5585 N   0  0  0  0  0  0  0  0  0  0  0  0
   -1.6033   -0.3841   -0.1800 H   0  0  0  0  0  0  0  0  0  0  0  0
    0.3776   -0.1224    0.4950 C   0  0  1  0  0  0  0  0  0  0  0  0
    0.5668    0.4387    1.4149 H   0  0  0  0  0  0  0  0  0  0  0  0
    1.5015   -1.1586    0.3063 C   0  0  0  0  0  0  0  0  0  0  0  0
    1.2588   -1.8453   -0.5111 H   0  0  0  0  0  0  0  0  0  0  0  0
    2.4458   -0.6588    0.0687 H   0  0  0  0  0  0  0  0  0  0  0  0
    1.6576   -1.7394    1.2195 H   0  0  0  0  0  0  0  0  0  0  0  0
    0.4533    0.8382   -0.7115 C   0  0  0  0  0  0  0  0  0  0  0  0
    0.0715    0.4697   -1.8159 O   0  0  0  0  0  0  0  0  0  0  0  0
    0.7529    2.1747   -0.5202 N   0  0  0  0  0  0  0  0  0  0  0  0
    1.0126    2.4712    0.4160 H   0  0  0  0  0  0  0  0  0  0  0  0
    0.7348    3.1618   -1.5934 C   0  0  0  0  0  0  0  0  0  0  0  0
   -0.2700    3.2460   -2.0208 H   0  0  0  0  0  0  0  0  0  0  0  0
    1.0300    4.1433   -1.2099 H   0  0  0  0  0  0  0  0  0  0  0  0
    1.4332    2.8771   -2.3875 H   0  0  0  0  0  0  0  0  0  0  0  0
  1  2  1  0  0  0  0
  2  3  1  0  0  0  0
  2  4  1  0  0  0  0
  2  5  1  0  0  0  0
  5  6  2  0  0  0  0
  5  7  1  0  0  0  0
  7  8  1  0  0  0  0
  7  9  1  0  0  0  0
  9 10  1  0  0  0  0
  9 11  1  0  0  0  0
  9 15  1  0  0  0  0
 11 12  1  0  0  0  0
 11 13  1  0  0  0  0
 11 14  1  0  0  0  0
 15 16  2  0  0  0  0
 15 17  1  0  0  0  0
 17 18  1  0  0  0  0
 17 19  1  0  0  0  0
 19 20  1  0  0  0  0
 19 21  1  0  0  0  0
 19 22  1  0  0  0  0
M  END
$$$$

  -OEChem-11182114133D

 22 21  0     1  0  0  0  0  0999 V2000
   -2.7364   -3.5717    1.0849 H   0  0  0  0  0  0  0  0  0  0  0  0
   -2.6272   -2.5830    0.6302 C   0  0  0  0  0  0  0  0  0  0  0  0
   -3.4647   -1.9557    0.9446 H   0  0  0  0  0  0  0  0  0  0  0  0
   -2.6497   -2.6921   -0.4570 H   0  0  0  0  0  0  0  0  0  0  0  0
   -1.3163   -1.9510    1.0592 C   0  0  0  0  0  0  0  0  0  0  0  0
   -0.6191   -2.5189    1.8834 O   0  0  0  0  0  0  0  0  0  0  0  0
   -0.9777   -0.7073    0.5627 N   0  0  0  0  0  0  0  0  0  0  0  0
   -1.6007   -0.3804   -0.1752 H   0  0  0  0  0  0  0  0  0  0  0  0
    0.3773   -0.1234    0.5007 C   0  0  1  0  0  0  0  0  0  0  0  0
    0.5632    0.4383    1.4208 H   0  0  0  0  0  0  0  0  0  0  0  0
    1.5016   -1.1578    0.3081 C   0  0  0  0  0  0  0  0  0  0  0  0
    1.2595   -1.8397   -0.5137 H   0  0  0  0  0  0  0  0  0  0  0  0
    2.4468   -0.6575    0.0748 H   0  0  0  0  0  0  0  0  0  0  0  0
    1.6561   -1.7436    1.2184 H   0  0  0  0  0  0  0  0  0  0  0  0
    0.4590    0.8370   -0.7057 C   0  0  0  0  0  0  0  0  0  0  0  0
   -0.1347    0.5705   -1.7448 O   0  0  0  0  0  0  0  0  0  0  0  0
    1.0498    2.0798   -0.5700 N   0  0  0  0  0  0  0  0  0  0  0  0
    1.4895    2.2994    0.3191 H   0  0  0  0  0  0  0  0  0  0  0  0
    1.0744    3.0753   -1.6350 C   0  0  0  0  0  0  0  0  0  0  0  0
    0.0560    3.3809   -1.8974 H   0  0  0  0  0  0  0  0  0  0  0  0
    1.6289    3.9615   -1.3117 H   0  0  0  0  0  0  0  0  0  0  0  0
    1.5623    2.6702   -2.5279 H   0  0  0  0  0  0  0  0  0  0  0  0
  1  2  1  0  0  0  0
  2  3  1  0  0  0  0
  2  4  1  0  0  0  0
  2  5  1  0  0  0  0
  5  6  2  0  0  0  0
  5  7  1  0  0  0  0
  7  8  1  0  0  0  0
  7  9  1  0  0  0  0
  9 10  1  0  0  0  0
  9 11  1  0  0  0  0
  9 15  1  0  0  0  0
 11 12  1  0  0  0  0
 11 13  1  0  0  0  0
 11 14  1  0  0  0  0
 15 16  2  0  0  0  0
 15 17  1  0  0  0  0
 17 18  1  0  0  0  0
 17 19  1  0  0  0  0
 19 20  1  0  0  0  0
 19 21  1  0  0  0  0
 19 22  1  0  0  0  0
M  END
$$$$

  -OEChem-11182114133D

 22 21  0     1  0  0  0  0  0999 V2000
   -2.7495   -3.5723    1.0821 H   0  0  0  0  0  0  0  0  0  0  0  0
   -2.6388   -2.5786    0.6388 C   0  0  0  0  0  0  0  0  0  0  0  0
   -3.4630   -1.9467    0.9782 H   0  0  0  0  0  0  0  0  0  0  0  0
   -2.6835   -2.6722   -0.4491 H   0  0  0  0  0  0  0  0  0  0  0  0
   -1.3138   -1.9653    1.0507 C   0  0  0  0  0  0  0  0  0  0  0  0
   -0.6078   -2.5510    1.8546 O   0  0  0  0  0  0  0  0  0  0  0  0
   -0.9718   -0.7206    0.5590 N   0  0  0  0  0  0  0  0  0  0  0  0
   -1.6050   -0.3726   -0.1614 H   0  0  0  0  0  0  0  0  0  0  0  0
    0.3783   -0.1247    0.5013 C   0  0  1  0  0  0  0  0  0  0  0  0
    0.5555    0.4403    1.4212 H   0  0  0  0  0  0  0  0  0  0  0  0
    1.5079   -1.1547    0.3144 C   0  0  0  0  0  0  0  0  0  0  0  0
    1.2706   -1.8394   -0.5063 H   0  0  0  0  0  0  0  0  0  0  0  0
    2.4528   -0.6530    0.0839 H   0  0  0  0  0  0  0  0  0  0  0  0
    1.6617   -1.7378    1.2266 H   0  0  0  0  0  0  0  0  0  0  0  0
    0.4611    0.8392   -0.7041 C   0  0  0  0  0  0  0  0  0  0  0  0
   -0.3023    0.7065   -1.6553 O   0  0  0  0  0  0  0  0  0  0  0  0
    1.2985    1.9390   -0.6624 N   0  0  0  0  0  0  0  0  0  0  0  0
    1.8973    2.0453    0.1512 H   0  0  0  0  0  0  0  0  0  0  0  0
    1.3813    2.9242   -1.7339 C   0  0  0  0  0  0  0  0  0  0  0  0
    0.4163    3.4231   -1.8720 H   0  0  0  0  0  0  0  0  0  0  0  0
    2.1314    3.6835   -1.4926 H   0  0  0  0  0  0  0  0  0  0  0  0
    1.6676    2.4432   -2.6753 H   0  0  0  0  0  0  0  0  0  0  0  0
  1  2  1  0  0  0  0
  2  3  1  0  0  0  0
  2  4  1  0  0  0  0
  2  5  1  0  0  0  0
  5  6  2  0  0  0  0
  5  7  1  0  0  0  0
  7  8  1  0  0  0  0
  7  9  1  0  0  0  0
  9 10  1  0  0  0  0
  9 11  1  0  0  0  0
  9 15  1  0  0  0  0
 11 12  1  0  0  0  0
 11 13  1  0  0  0  0
 11 14  1  0  0  0  0
 15 16  2  0  0  0  0
 15 17  1  0  0  0  0
 17 18  1  0  0  0  0
 17 19  1  0  0  0  0
 19 20  1  0  0  0  0
 19 21  1  0  0  0  0
 19 22  1  0  0  0  0
M  END
$$$$

  -OEChem-11182114133D

 22 21  0     1  0  0  0  0  0999 V2000
   -2.7745   -3.5642    1.0760 H   0  0  0  0  0  0  0  0  0  0  0  0
   -2.6567   -2.5660    0.6452 C   0  0  0  0  0  0  0  0  0  0  0  0
   -3.4596   -1.9248    1.0165 H   0  0  0  0  0  0  0  0  0  0  0  0
   -2.7329   -2.6412   -0.4422 H   0  0  0  0  0  0  0  0  0  0  0  0
   -1.3094   -1.9845    1.0309 C   0  0  0  0  0  0  0  0  0  0  0  0
   -0.5940   -2.5990    1.8043 O   0  0  0  0  0  0  0  0  0  0  0  0
   -0.9573   -0.7387    0.5490 N   0  0  0  0  0  0  0  0  0  0  0  0
   -1.6057   -0.3562   -0.1402 H   0  0  0  0  0  0  0  0  0  0  0  0
    0.3877   -0.1293    0.5025 C   0  0  1  0  0  0  0  0  0  0  0  0
    0.5534    0.4396    1.4223 H   0  0  0  0  0  0  0  0  0  0  0  0
    1.5242   -1.1557    0.3294 C   0  0  0  0  0  0  0  0  0  0  0  0
    1.2976   -1.8428   -0.4922 H   0  0  0  0  0  0  0  0  0  0  0  0
    2.4720   -0.6558    0.1093 H   0  0  0  0  0  0  0  0  0  0  0  0
    1.6688   -1.7360    1.2447 H   0  0  0  0  0  0  0  0  0  0  0  0
    0.4708    0.8388   -0.7016 C   0  0  0  0  0  0  0  0  0  0  0  0
   -0.4186    0.8542   -1.5472 O   0  0  0  0  0  0  0  0  0  0  0  0
    1.4993    1.7594   -0.7934 N   0  0  0  0  0  0  0  0  0  0  0  0
    2.2156    1.7387   -0.0734 H   0  0  0  0  0  0  0  0  0  0  0  0
    1.6220    2.7189   -1.8840 C   0  0  0  0  0  0  0  0  0  0  0  0
    0.7520    3.3835   -1.9100 H   0  0  0  0  0  0  0  0  0  0  0  0
    2.5197    3.3304   -1.7513 H   0  0  0  0  0  0  0  0  0  0  0  0
    1.6976    2.1988   -2.8448 H   0  0  0  0  0  0  0  0  0  0  0  0
  1  2  1  0  0  0  0
  2  3  1  0  0  0  0
  2  4  1  0  0  0  0
  2  5  1  0  0  0  0
  5  6  2  0  0  0  0
  5  7  1  0  0  0  0
  7  8  1  0  0  0  0
  7  9  1  0  0  0  0
  9 10  1  0  0  0  0
  9 11  1  0  0  0  0
  9 15  1  0  0  0  0
 11 12  1  0  0  0  0
 11 13  1  0  0  0  0
 11 14  1  0  0  0  0
 15 16  2  0  0  0  0
 15 17  1  0  0  0  0
 17 18  1  0  0  0  0
 17 19  1  0  0  0  0
 19 20  1  0  0  0  0
 19 21  1  0  0  0  0
 19 22  1  0  0  0  0
M  END
$$$$

  -OEChem-11182114133D

 22 21  0     1  0  0  0  0  0999 V2000
   -2.7639   -3.5725    1.1150 H   0  0  0  0  0  0  0  0  0  0  0  0
   -2.6701   -2.5639    0.7028 C   0  0  0  0  0  0  0  0  0  0  0  0
   -3.4292   -1.9242    1.1593 H   0  0  0  0  0  0  0  0  0  0  0  0
   -2.8402   -2.6076   -0.3756 H   0  0  0  0  0  0  0  0  0  0  0  0
   -1.2867   -2.0093    0.9866 C   0  0  0  0  0  0  0  0  0  0  0  0
   -0.5174   -2.6442    1.6890 O   0  0  0  0  0  0  0  0  0  0  0  0
   -0.9476   -0.7631    0.4992 N   0  0  0  0  0  0  0  0  0  0  0  0
   -1.6483   -0.3049   -0.0847 H   0  0  0  0  0  0  0  0  0  0  0  0
    0.3890   -0.1403    0.4679 C   0  0  1  0  0  0  0  0  0  0  0  0
    0.6549    0.2022    1.4727 H   0  0  0  0  0  0  0  0  0  0  0  0
    1.4615   -1.1238   -0.0437 C   0  0  0  0  0  0  0  0  0  0  0  0
    1.1552   -1.5552   -1.0021 H   0  0  0  0  0  0  0  0  0  0  0  0
    2.4221   -0.6198   -0.1818 H   0  0  0  0  0  0  0  0  0  0  0  0
    1.6248   -1.9365    0.6685 H   0  0  0  0  0  0  0  0  0  0  0  0
    0.3741    1.0808   -0.4858 C   0  0  0  0  0  0  0  0  0  0  0  0
   -0.6573    1.3913   -1.0742 O   0  0  0  0  0  0  0  0  0  0  0  0
    1.5123    1.8411   -0.6894 N   0  0  0  0  0  0  0  0  0  0  0  0
    2.3542    1.5707   -0.1894 H   0  0  0  0  0  0  0  0  0  0  0  0
    1.5601    2.9936   -1.5812 C   0  0  0  0  0  0  0  0  0  0  0  0
    0.8227    3.7445   -1.2783 H   0  0  0  0  0  0  0  0  0  0  0  0
    2.5525    3.4534   -1.5510 H   0  0  0  0  0  0  0  0  0  0  0  0
    1.3508    2.6894   -2.6121 H   0  0  0  0  0  0  0  0  0  0  0  0
  1  2  1  0  0  0  0
  2  3  1  0  0  0  0
  2  4  1  0  0  0  0
  2  5  1  0  0  0  0
  5  6  2  0  0  0  0
  5  7  1  0  0  0  0
  7  8  1  0  0  0  0
  7  9  1  0  0  0  0
  9 10  1  0  0  0  0
  9 11  1  0  0  0  0
  9 15  1  0  0  0  0
 11 12  1  0  0  0  0
 11 13  1  0  0  0  0
 11 14  1  0  0  0  0
 15 16  2  0  0  0  0
 15 17  1  0  0  0  0
 17 18  1  0  0  0  0
 17 19  1  0  0  0  0
 19 20  1  0  0  0  0
 19 21  1  0  0  0  0
 19 22  1  0  0  0  0
M  END
$$$$

  -OEChem-11182114133D

 22 21  0     1  0  0  0  0  0999 V2000
   -2.8076   -3.5429    1.1007 H   0  0  0  0  0  0  0  0  0  0  0  0
   -2.6905   -2.5326    0.6990 C   0  0  0  0  0  0  0  0  0  0  0  0
   -3.4170   -1.8748    1.1820 H   0  0  0  0  0  0  0  0  0  0  0  0
   -2.8882   -2.5564   -0.3752 H   0  0  0  0  0  0  0  0  0  0  0  0
   -1.2837   -2.0258    0.9561 C   0  0  0  0  0  0  0  0  0  0  0  0
   -0.5190   -2.6973    1.6284 O   0  0  0  0  0  0  0  0  0  0  0  0
   -0.9229   -0.7811    0.4800 N   0  0  0  0  0  0  0  0  0  0  0  0
   -1.6377   -0.2784   -0.0475 H   0  0  0  0  0  0  0  0  0  0  0  0
    0.4133   -0.1554    0.4673 C   0  0  1  0  0  0  0  0  0  0  0  0
    0.6599    0.1964    1.4738 H   0  0  0  0  0  0  0  0  0  0  0  0
    1.5006   -1.1430   -0.0081 C   0  0  0  0  0  0  0  0  0  0  0  0
    1.2277   -1.5713   -0.9777 H   0  0  0  0  0  0  0  0  0  0  0  0
    2.4696   -0.6463   -0.1062 H   0  0  0  0  0  0  0  0  0  0  0  0
    1.6352   -1.9579    0.7074 H   0  0  0  0  0  0  0  0  0  0  0  0
    0.3942    1.0666   -0.4896 C   0  0  0  0  0  0  0  0  0  0  0  0
   -0.6779    1.5107   -0.8894 O   0  0  0  0  0  0  0  0  0  0  0  0
    1.5607    1.6627   -0.9372 N   0  0  0  0  0  0  0  0  0  0  0  0
    2.4409    1.2716   -0.6157 H   0  0  0  0  0  0  0  0  0  0  0  0
    1.5861    2.7855   -1.8673 C   0  0  0  0  0  0  0  0  0  0  0  0
    1.0231    3.6332   -1.4627 H   0  0  0  0  0  0  0  0  0  0  0  0
    2.6170    3.1088   -2.0411 H   0  0  0  0  0  0  0  0  0  0  0  0
    1.1472    2.4969   -2.8280 H   0  0  0  0  0  0  0  0  0  0  0  0
  1  2  1  0  0  0  0
  2  3  1  0  0  0  0
  2  4  1  0  0  0  0
  2  5  1  0  0  0  0
  5  6  2  0  0  0  0
  5  7  1  0  0  0  0
  7  8  1  0  0  0  0
  7  9  1  0  0  0  0
  9 10  1  0  0  0  0
  9 11  1  0  0  0  0
  9 15  1  0  0  0  0
 11 12  1  0  0  0  0
 11 13  1  0  0  0  0
 11 14  1  0  0  0  0
 15 16  2  0  0  0  0
 15 17  1  0  0  0  0
 17 18  1  0  0  0  0
 17 19  1  0  0  0  0
 19 20  1  0  0  0  0
 19 21  1  0  0  0  0
 19 22  1  0  0  0  0
M  END
$$$$

  -OEChem-11182114133D

 22 21  0     1  0  0  0  0  0999 V2000
   -2.8457   -3.5117    1.1013 H   0  0  0  0  0  0  0  0  0  0  0  0
   -2.7093   -2.5043    0.6982 C   0  0  0  0  0  0  0  0  0  0  0  0
   -3.4050   -1.8268    1.1992 H   0  0  0  0  0  0  0  0  0  0  0  0
   -2.9329   -2.5199   -0.3712 H   0  0  0  0  0  0  0  0  0  0  0  0
   -1.2827   -2.0392    0.9226 C   0  0  0  0  0  0  0  0  0  0  0  0
   -0.5183   -2.7454    1.5582 O   0  0  0  0  0  0  0  0  0  0  0  0
   -0.9047   -0.7969    0.4525 N   0  0  0  0  0  0  0  0  0  0  0  0
   -1.6321   -0.2553   -0.0155 H   0  0  0  0  0  0  0  0  0  0  0  0
    0.4317   -0.1701    0.4591 C   0  0  1  0  0  0  0  0  0  0  0  0
    0.6541    0.1962    1.4662 H   0  0  0  0  0  0  0  0  0  0  0  0
    1.5410   -1.1556    0.0313 C   0  0  0  0  0  0  0  0  0  0  0  0
    1.3052   -1.5962   -0.9426 H   0  0  0  0  0  0  0  0  0  0  0  0
    2.5093   -0.6520   -0.0334 H   0  0  0  0  0  0  0  0  0  0  0  0
    1.6571   -1.9613    0.7600 H   0  0  0  0  0  0  0  0  0  0  0  0
    0.4104    1.0473   -0.5051 C   0  0  0  0  0  0  0  0  0  0  0  0
   -0.6516    1.6239   -0.7182 O   0  0  0  0  0  0  0  0  0  0  0  0
    1.5347    1.4741   -1.1919 N   0  0  0  0  0  0  0  0  0  0  0  0
    2.3978    0.9604   -1.0431 H   0  0  0  0  0  0  0  0  0  0  0  0
    1.5252    2.5726   -2.1512 C   0  0  0  0  0  0  0  0  0  0  0  0
    1.1769    3.4954   -1.6752 H   0  0  0  0  0  0  0  0  0  0  0  0
    2.5341    2.7447   -2.5385 H   0  0  0  0  0  0  0  0  0  0  0  0
    0.8660    2.3396   -2.9941 H   0  0  0  0  0  0  0  0  0  0  0  0
  1  2  1  0  0  0  0
  2  3  1  0  0  0  0
  2  4  1  0  0  0  0
  2  5  1  0  0  0  0
  5  6  2  0  0  0  0
  5  7  1  0  0  0  0
  7  8  1  0  0  0  0
  7  9  1  0  0  0  0
  9 10  1  0  0  0  0
  9 11  1  0  0  0  0
  9 15  1  0  0  0  0
 11 12  1  0  0  0  0
 11 13  1  0  0  0  0
 11 14  1  0  0  0  0
 15 16  2  0  0  0  0
 15 17  1  0  0  0  0
 17 18  1  0  0  0  0
 17 19  1  0  0  0  0
 19 20  1  0  0  0  0
 19 21  1  0  0  0  0
 19 22  1  0  0  0  0
M  END
$$$$

  -OEChem-11182114133D

 22 21  0     1  0  0  0  0  0999 V2000
   -2.8656   -3.4924    1.1157 H   0  0  0  0  0  0  0  0  0  0  0  0
   -2.7214   -2.4887    0.7060 C   0  0  0  0  0  0  0  0  0  0  0  0
   -3.3906   -1.7975    1.2243 H   0  0  0  0  0  0  0  0  0  0  0  0
   -2.9750   -2.5029   -0.3566 H   0  0  0  0  0  0  0  0  0  0  0  0
   -1.2805   -2.0497    0.8898 C   0  0  0  0  0  0  0  0  0  0  0  0
   -0.5095   -2.7784    1.4905 O   0  0  0  0  0  0  0  0  0  0  0  0
   -0.8974   -0.8085    0.4197 N   0  0  0  0  0  0  0  0  0  0  0  0
   -1.6373   -0.2409    0.0065 H   0  0  0  0  0  0  0  0  0  0  0  0
    0.4374   -0.1784    0.4433 C   0  0  1  0  0  0  0  0  0  0  0  0
    0.6363    0.2029    1.4499 H   0  0  0  0  0  0  0  0  0  0  0  0
    1.5684   -1.1569    0.0596 C   0  0  0  0  0  0  0  0  0  0  0  0
    1.3547   -1.6330   -0.9027 H   0  0  0  0  0  0  0  0  0  0  0  0
    2.5276   -0.6354   -0.0061 H   0  0  0  0  0  0  0  0  0  0  0  0
    1.6884   -1.9367    0.8156 H   0  0  0  0  0  0  0  0  0  0  0  0
    0.4174    1.0311   -0.5288 C   0  0  0  0  0  0  0  0  0  0  0  0
   -0.5835    1.7382   -0.5691 O   0  0  0  0  0  0  0  0  0  0  0  0
    1.4360    1.2886   -1.4312 N   0  0  0  0  0  0  0  0  0  0  0  0
    2.2287    0.6538   -1.4359 H   0  0  0  0  0  0  0  0  0  0  0  0
    1.3920    2.3686   -2.4101 C   0  0  0  0  0  0  0  0  0  0  0  0
    1.2818    3.3361   -1.9092 H   0  0  0  0  0  0  0  0  0  0  0  0
    2.3166    2.3872   -2.9949 H   0  0  0  0  0  0  0  0  0  0  0  0
    0.5511    2.2297   -3.0975 H   0  0  0  0  0  0  0  0  0  0  0  0
  1  2  1  0  0  0  0
  2  3  1  0  0  0  0
  2  4  1  0  0  0  0
  2  5  1  0  0  0  0
  5  6  2  0  0  0  0
  5  7  1  0  0  0  0
  7  8  1  0  0  0  0
  7  9  1  0  0  0  0
  9 10  1  0  0  0  0
  9 11  1  0  0  0  0
  9 15  1  0  0  0  0
 11 12  1  0  0  0  0
 11 13  1  0  0  0  0
 11 14  1  0  0  0  0
 15 16  2  0  0  0  0
 15 17  1  0  0  0  0
 17 18  1  0  0  0  0
 17 19  1  0  0  0  0
 19 20  1  0  0  0  0
 19 21  1  0  0  0  0
 19 22  1  0  0  0  0
M  END
$$$$

  -OEChem-11182114133D

 22 21  0     1  0  0  0  0  0999 V2000
   -2.8669   -3.4870    1.1399 H   0  0  0  0  0  0  0  0  0  0  0  0
   -2.7265   -2.4863    0.7215 C   0  0  0  0  0  0  0  0  0  0  0  0
   -3.3755   -1.7879    1.2553 H   0  0  0  0  0  0  0  0  0  0  0  0
   -3.0097   -2.5034   -0.3336 H   0  0  0  0  0  0  0  0  0  0  0  0
   -1.2776   -2.0579    0.8638 C   0  0  0  0  0  0  0  0  0  0  0  0
   -0.4933   -2.7993    1.4305 O   0  0  0  0  0  0  0  0  0  0  0  0
   -0.9004   -0.8157    0.3903 N   0  0  0  0  0  0  0  0  0  0  0  0
   -1.6528   -0.2355    0.0213 H   0  0  0  0  0  0  0  0  0  0  0  0
    0.4312   -0.1794    0.4248 C   0  0  1  0  0  0  0  0  0  0  0  0
    0.6139    0.2128    1.4303 H   0  0  0  0  0  0  0  0  0  0  0  0
    1.5788   -1.1477    0.0689 C   0  0  0  0  0  0  0  0  0  0  0  0
    1.3664   -1.6706   -0.8688 H   0  0  0  0  0  0  0  0  0  0  0  0
    2.5242   -0.6058   -0.0318 H   0  0  0  0  0  0  0  0  0  0  0  0
    1.7220   -1.8908    0.8575 H   0  0  0  0  0  0  0  0  0  0  0  0
    0.4142    1.0231   -0.5520 C   0  0  0  0  0  0  0  0  0  0  0  0
   -0.4769    1.8561   -0.4393 O   0  0  0  0  0  0  0  0  0  0  0  0
    1.2686    1.1198   -1.6375 N   0  0  0  0  0  0  0  0  0  0  0  0
    1.9466    0.3745   -1.7656 H   0  0  0  0  0  0  0  0  0  0  0  0
    1.1962    2.1871   -2.6283 C   0  0  0  0  0  0  0  0  0  0  0  0
    1.3365    3.1628   -2.1513 H   0  0  0  0  0  0  0  0  0  0  0  0
    1.9783    2.0563   -3.3825 H   0  0  0  0  0  0  0  0  0  0  0  0
    0.2242    2.1775   -3.1327 H   0  0  0  0  0  0  0  0  0  0  0  0
  1  2  1  0  0  0  0
  2  3  1  0  0  0  0
  2  4  1  0  0  0  0
  2  5  1  0  0  0  0
  5  6  2  0  0  0  0
  5  7  1  0  0  0  0
  7  8  1  0  0  0  0
  7  9  1  0  0  0  0
  9 10  1  0  0  0  0
  9 11  1  0  0  0  0
  9 15  1  0  0  0  0
 11 12  1  0  0  0  0
 11 13  1  0  0  0  0
 11 14  1  0  0  0  0
 15 16  2  0  0  0  0
 15 17  1  0  0  0  0
 17 18  1  0  0  0  0
 17 19  1  0  0  0  0
 19 20  1  0  0  0  0
 19 21  1  0  0  0  0
 19 22  1  0  0  0  0
M  END
$$$$

  -OEChem-11182114133D

 22 21  0     1  0  0  0  0  0999 V2000
   -2.8575   -3.4935    1.1687 H   0  0  0  0  0  0  0  0  0  0  0  0
   -2.7269   -2.4947    0.7426 C   0  0  0  0  0  0  0  0  0  0  0  0
   -3.3647   -1.7944    1.2875 H   0  0  0  0  0  0  0  0  0  0  0  0
   -3.0336   -2.5171   -0.3058 H   0  0  0  0  0  0  0  0  0  0  0  0
   -1.2753   -2.0651    0.8497 C   0  0  0  0  0  0  0  0  0  0  0  0
   -0.4744   -2.8114    1.3857 O   0  0  0  0  0  0  0  0  0  0  0  0
   -0.9113   -0.8210    0.3696 N   0  0  0  0  0  0  0  0  0  0  0  0
   -1.6771   -0.2374    0.0375 H   0  0  0  0  0  0  0  0  0  0  0  0
    0.4161   -0.1754    0.4076 C   0  0  1  0  0  0  0  0  0  0  0  0
    0.5917    0.2219    1.4128 H   0  0  0  0  0  0  0  0  0  0  0  0
    1.5752   -1.1320    0.0599 C   0  0  0  0  0  0  0  0  0  0  0  0
    1.3534   -1.6954   -0.8518 H   0  0  0  0  0  0  0  0  0  0  0  0
    2.5047   -0.5726   -0.0853 H   0  0  0  0  0  0  0  0  0  0  0  0
    1.7506   -1.8412    0.8734 H   0  0  0  0  0  0  0  0  0  0  0  0
    0.4030    1.0218   -0.5724 C   0  0  0  0  0  0  0  0  0  0  0  0
   -0.3240    1.9748   -0.3250 O   0  0  0  0  0  0  0  0  0  0  0  0
    1.0390    0.9791   -1.8017 N   0  0  0  0  0  0  0  0  0  0  0  0
    1.5664    0.1399   -2.0246 H   0  0  0  0  0  0  0  0  0  0  0  0
    0.9470    2.0423   -2.7952 C   0  0  0  0  0  0  0  0  0  0  0  0
    1.3353    2.9817   -2.3877 H   0  0  0  0  0  0  0  0  0  0  0  0
    1.5328    1.7827   -3.6821 H   0  0  0  0  0  0  0  0  0  0  0  0
   -0.0937    2.1937   -3.1007 H   0  0  0  0  0  0  0  0  0  0  0  0
  1  2  1  0  0  0  0
  2  3  1  0  0  0  0
  2  4  1  0  0  0  0
  2  5  1  0  0  0  0
  5  6  2  0  0  0  0
  5  7  1  0  0  0  0
  7  8  1  0  0  0  0
  7  9  1  0  0  0  0
  9 10  1  0  0  0  0
  9 11  1  0  0  0  0
  9 15  1  0  0  0  0
 11 12  1  0  0  0  0
 11 13  1  0  0  0  0
 11 14  1  0  0  0  0
 15 16  2  0  0  0  0
 15 17  1  0  0  0  0
 17 18  1  0  0  0  0
 17 19  1  0  0  0  0
 19 20  1  0  0  0  0
 19 21  1  0  0  0  0
 19 22  1  0  0  0  0
M  END
$$$$

  -OEChem-11182114133D

 22 21  0     1  0  0  0  0  0999 V2000
   -2.8367   -3.5123    1.1974 H   0  0  0  0  0  0  0  0  0  0  0  0
   -2.7222   -2.5137    0.7663 C   0  0  0  0  0  0  0  0  0  0  0  0
   -3.3596   -1.8184    1.3179 H   0  0  0  0  0  0  0  0  0  0  0  0
   -3.0426   -2.5424   -0.2778 H   0  0  0  0  0  0  0  0  0  0  0  0
   -1.2738   -2.0693    0.8526 C   0  0  0  0  0  0  0  0  0  0  0  0
   -0.4577   -2.8067    1.3774 O   0  0  0  0  0  0  0  0  0  0  0  0
   -0.9284   -0.8238    0.3622 N   0  0  0  0  0  0  0  0  0  0  0  0
   -1.7055   -0.2497    0.0424 H   0  0  0  0  0  0  0  0  0  0  0  0
    0.3943   -0.1676    0.3938 C   0  0  1  0  0  0  0  0  0  0  0  0
    0.5731    0.2301    1.3984 H   0  0  0  0  0  0  0  0  0  0  0  0
    1.5589   -1.1119    0.0348 C   0  0  0  0  0  0  0  0  0  0  0  0
    1.3242   -1.6988   -0.8586 H   0  0  0  0  0  0  0  0  0  0  0  0
    2.4737   -0.5393   -0.1486 H   0  0  0  0  0  0  0  0  0  0  0  0
    1.7664   -1.8006    0.8587 H   0  0  0  0  0  0  0  0  0  0  0  0
    0.3812    1.0247   -0.5884 C   0  0  0  0  0  0  0  0  0  0  0  0
   -0.1141    2.0846   -0.2318 O   0  0  0  0  0  0  0  0  0  0  0  0
    0.7480    0.8758   -1.9148 N   0  0  0  0  0  0  0  0  0  0  0  0
    1.0923   -0.0355   -2.2029 H   0  0  0  0  0  0  0  0  0  0  0  0
    0.6602    1.9460   -2.9011 C   0  0  0  0  0  0  0  0  0  0  0  0
    1.2789    2.7974   -2.5983 H   0  0  0  0  0  0  0  0  0  0  0  0
    1.0121    1.5925   -3.8751 H   0  0  0  0  0  0  0  0  0  0  0  0
   -0.3757    2.2839   -3.0097 H   0  0  0  0  0  0  0  0  0  0  0  0
  1  2  1  0  0  0  0
  2  3  1  0  0  0  0
  2  4  1  0  0  0  0
  2  5  1  0  0  0  0
  5  6  2  0  0  0  0
  5  7  1  0  0  0  0
  7  8  1  0  0  0  0
  7  9  1  0  0  0  0
  9 10  1  0  0  0  0
  9 11  1  0  0  0  0
  9 15  1  0  0  0  0
 11 12  1  0  0  0  0
 11 13  1  0  0  0  0
 11 14  1  0  0  0  0
 15 16  2  0  0  0  0
 15 17  1  0  0  0  0
 17 18  1  0  0  0  0
 17 19  1  0  0  0  0
 19 20  1  0  0  0  0
 19 21  1  0  0  0  0
 19 22  1  0  0  0  0
M  END
$$$$

  -OEChem-11182114133D

 22 21  0     1  0  0  0  0  0999 V2000
   -2.8116   -3.5385    1.2179 H   0  0  0  0  0  0  0  0  0  0  0  0
   -2.7143   -2.5385    0.7857 C   0  0  0  0  0  0  0  0  0  0  0  0
   -3.3625   -1.8534    1.3376 H   0  0  0  0  0  0  0  0  0  0  0  0
   -3.0361   -2.5742   -0.2578 H   0  0  0  0  0  0  0  0  0  0  0  0
   -1.2733   -2.0702    0.8689 C   0  0  0  0  0  0  0  0  0  0  0  0
   -0.4450   -2.7920    1.3956 O   0  0  0  0  0  0  0  0  0  0  0  0
   -0.9472   -0.8226    0.3698 N   0  0  0  0  0  0  0  0  0  0  0  0
   -1.7333   -0.2609    0.0516 H   0  0  0  0  0  0  0  0  0  0  0  0
    0.3716   -0.1572    0.3884 C   0  0  1  0  0  0  0  0  0  0  0  0
    0.5627    0.2350    1.3931 H   0  0  0  0  0  0  0  0  0  0  0  0
    1.5351   -1.0896   -0.0003 C   0  0  0  0  0  0  0  0  0  0  0  0
    1.2868   -1.6733   -0.8919 H   0  0  0  0  0  0  0  0  0  0  0  0
    2.4397   -0.5071   -0.2023 H   0  0  0  0  0  0  0  0  0  0  0  0
    1.7667   -1.7811    0.8147 H   0  0  0  0  0  0  0  0  0  0  0  0
    0.3535    1.0334   -0.5932 C   0  0  0  0  0  0  0  0  0  0  0  0
    0.1526    2.1639   -0.1738 O   0  0  0  0  0  0  0  0  0  0  0  0
    0.4135    0.8255   -1.9599 N   0  0  0  0  0  0  0  0  0  0  0  0
    0.5553   -0.1288   -2.2785 H   0  0  0  0  0  0  0  0  0  0  0  0
    0.3481    1.9011   -2.9418 C   0  0  0  0  0  0  0  0  0  0  0  0
    1.1616    2.6165   -2.7809 H   0  0  0  0  0  0  0  0  0  0  0  0
    0.4404    1.4953   -3.9538 H   0  0  0  0  0  0  0  0  0  0  0  0
   -0.6072    2.4311   -2.8676 H   0  0  0  0  0  0  0  0  0  0  0  0
  1  2  1  0  0  0  0
  2  3  1  0  0  0  0
  2  4  1  0  0  0  0
  2  5  1  0  0  0  0
  5  6  2  0  0  0  0
  5  7  1  0  0  0  0
  7  8  1  0  0  0  0
  7  9  1  0  0  0  0
  9 10  1  0  0  0  0
  9 11  1  0  0  0  0
  9 15  1  0  0  0  0
 11 12  1  0  0  0  0
 11 13  1  0  0  0  0
 11 14  1  0  0  0  0
 15 16  2  0  0  0  0
 15 17  1  0  0  0  0
 17 18  1  0  0  0  0
 17 19  1  0  0  0  0
 19 20  1  0  0  0  0
 19 21  1  0  0  0  0
 19 22  1  0  0  0  0
M  END
$$$$

  -OEChem-11182114133D

 22 21  0     1  0  0  0  0  0999 V2000
   -2.7964   -3.5596    1.2418 H   0  0  0  0  0  0  0  0  0  0  0  0
   -2.7113   -2.5602    0.8053 C   0  0  0  0  0  0  0  0  0  0  0  0
   -3.3602   -1.8785    1.3605 H   0  0  0  0  0  0  0  0  0  0  0  0
   -3.0419   -2.6023   -0.2351 H   0  0  0  0  0  0  0  0  0  0  0  0
   -1.2736   -2.0793    0.8750 C   0  0  0  0  0  0  0  0  0  0  0  0
   -0.4344   -2.7924    1.3955 O   0  0  0  0  0  0  0  0  0  0  0  0
   -0.9638   -0.8278    0.3745 N   0  0  0  0  0  0  0  0  0  0  0  0
   -1.7584   -0.2773    0.0585 H   0  0  0  0  0  0  0  0  0  0  0  0
    0.3504   -0.1498    0.3867 C   0  0  1  0  0  0  0  0  0  0  0  0
    0.5467    0.2360    1.3929 H   0  0  0  0  0  0  0  0  0  0  0  0
    1.5180   -1.0648   -0.0263 C   0  0  0  0  0  0  0  0  0  0  0  0
    1.2721   -1.6263   -0.9324 H   0  0  0  0  0  0  0  0  0  0  0  0
    2.4180   -0.4711   -0.2164 H   0  0  0  0  0  0  0  0  0  0  0  0
    1.7571   -1.7745    0.7705 H   0  0  0  0  0  0  0  0  0  0  0  0
    0.3265    1.0430   -0.5903 C   0  0  0  0  0  0  0  0  0  0  0  0
    0.4418    2.1853   -0.1715 O   0  0  0  0  0  0  0  0  0  0  0  0
    0.0745    0.8373   -1.9350 N   0  0  0  0  0  0  0  0  0  0  0  0
    0.0125   -0.1260   -2.2518 H   0  0  0  0  0  0  0  0  0  0  0  0
    0.0261    1.9143   -2.9162 C   0  0  0  0  0  0  0  0  0  0  0  0
    0.9792    2.4533   -2.9410 H   0  0  0  0  0  0  0  0  0  0  0  0
   -0.1680    1.5091   -3.9139 H   0  0  0  0  0  0  0  0  0  0  0  0
   -0.7724    2.6220   -2.6693 H   0  0  0  0  0  0  0  0  0  0  0  0
  1  2  1  0  0  0  0
  2  3  1  0  0  0  0
  2  4  1  0  0  0  0
  2  5  1  0  0  0  0
  5  6  2  0  0  0  0
  5  7  1  0  0  0  0
  7  8  1  0  0  0  0
  7  9  1  0  0  0  0
  9 10  1  0  0  0  0
  9 11  1  0  0  0  0
  9 15  1  0  0  0  0
 11 12  1  0  0  0  0
 11 13  1  0  0  0  0
 11 14  1  0  0  0  0
 15 16  2  0  0  0  0
 15 17  1  0  0  0  0
 17 18  1  0  0  0  0
 17 19  1  0  0  0  0
 19 20  1  0  0  0  0
 19 21  1  0  0  0  0
 19 22  1  0  0  0  0
M  END
$$$$

  -OEChem-11182114133D

 22 21  0     1  0  0  0  0  0999 V2000
   -2.7756   -3.5877    1.2666 H   0  0  0  0  0  0  0  0  0  0  0  0
   -2.7063   -2.5881    0.8276 C   0  0  0  0  0  0  0  0  0  0  0  0
   -3.3577   -1.9132    1.3884 H   0  0  0  0  0  0  0  0  0  0  0  0
   -3.0468   -2.6359   -0.2095 H   0  0  0  0  0  0  0  0  0  0  0  0
   -1.2732   -2.0915    0.8825 C   0  0  0  0  0  0  0  0  0  0  0  0
   -0.4221   -2.7969    1.3934 O   0  0  0  0  0  0  0  0  0  0  0  0
   -0.9825   -0.8341    0.3848 N   0  0  0  0  0  0  0  0  0  0  0  0
   -1.7870   -0.2890    0.0854 H   0  0  0  0  0  0  0  0  0  0  0  0
    0.3254   -0.1412    0.3908 C   0  0  1  0  0  0  0  0  0  0  0  0
    0.5307    0.2341    1.3991 H   0  0  0  0  0  0  0  0  0  0  0  0
    1.4933   -1.0405   -0.0534 C   0  0  0  0  0  0  0  0  0  0  0  0
    1.2422   -1.5769   -0.9735 H   0  0  0  0  0  0  0  0  0  0  0  0
    2.3896   -0.4380   -0.2345 H   0  0  0  0  0  0  0  0  0  0  0  0
    1.7427   -1.7703    0.7216 H   0  0  0  0  0  0  0  0  0  0  0  0
    0.2951    1.0587   -0.5776 C   0  0  0  0  0  0  0  0  0  0  0  0
    0.7043    2.1534   -0.2200 O   0  0  0  0  0  0  0  0  0  0  0  0
   -0.2534    0.9166   -1.8400 N   0  0  0  0  0  0  0  0  0  0  0  0
   -0.4805   -0.0286   -2.1352 H   0  0  0  0  0  0  0  0  0  0  0  0
   -0.2700    1.9892   -2.8274 C   0  0  0  0  0  0  0  0  0  0  0  0
    0.7499    2.3142   -3.0583 H   0  0  0  0  0  0  0  0  0  0  0  0
   -0.7415    1.6444   -3.7526 H   0  0  0  0  0  0  0  0  0  0  0  0
   -0.8362    2.8479   -2.4516 H   0  0  0  0  0  0  0  0  0  0  0  0
  1  2  1  0  0  0  0
  2  3  1  0  0  0  0
  2  4  1  0  0  0  0
  2  5  1  0  0  0  0
  5  6  2  0  0  0  0
  5  7  1  0  0  0  0
  7  8  1  0  0  0  0
  7  9  1  0  0  0  0
  9 10  1  0  0  0  0
  9 11  1  0  0  0  0
  9 15  1  0  0  0  0
 11 12  1  0  0  0  0
 11 13  1  0  0  0  0
 11 14  1  0  0  0  0
 15 16  2  0  0  0  0
 15 17  1  0  0  0  0
 17 18  1  0  0  0  0
 17 19  1  0  0  0  0
 19 20  1  0  0  0  0
 19 21  1  0  0  0  0
 19 22  1  0  0  0  0
M  END
$$$$

  -OEChem-11182114133D

 22 21  0     1  0  0  0  0  0999 V2000
   -2.7652   -3.6056    1.2823 H   0  0  0  0  0  0  0  0  0  0  0  0
   -2.7025   -2.6057    0.8433 C   0  0  0  0  0  0  0  0  0  0  0  0
   -3.3503   -1.9328    1.4103 H   0  0  0  0  0  0  0  0  0  0  0  0
   -3.0523   -2.6541   -0.1906 H   0  0  0  0  0  0  0  0  0  0  0  0
   -1.2705   -2.1048    0.8845 C   0  0  0  0  0  0  0  0  0  0  0  0
   -0.4127   -2.8078    1.3870 O   0  0  0  0  0  0  0  0  0  0  0  0
   -0.9923   -0.8431    0.3897 N   0  0  0  0  0  0  0  0  0  0  0  0
   -1.8069   -0.2938    0.1288 H   0  0  0  0  0  0  0  0  0  0  0  0
    0.3109   -0.1380    0.3934 C   0  0  1  0  0  0  0  0  0  0  0  0
    0.5192    0.2325    1.4028 H   0  0  0  0  0  0  0  0  0  0  0  0
    1.4788   -1.0299   -0.0653 C   0  0  0  0  0  0  0  0  0  0  0  0
    1.2254   -1.5516   -0.9931 H   0  0  0  0  0  0  0  0  0  0  0  0
    2.3746   -0.4248   -0.2399 H   0  0  0  0  0  0  0  0  0  0  0  0
    1.7312   -1.7711    0.6975 H   0  0  0  0  0  0  0  0  0  0  0  0
    0.2813    1.0690   -0.5681 C   0  0  0  0  0  0  0  0  0  0  0  0
    0.9236    2.0772   -0.3129 O   0  0  0  0  0  0  0  0  0  0  0  0
   -0.5212    1.0436   -1.6959 N   0  0  0  0  0  0  0  0  0  0  0  0
   -0.9009    0.1386   -1.9576 H   0  0  0  0  0  0  0  0  0  0  0  0
   -0.5417    2.1228   -2.6763 C   0  0  0  0  0  0  0  0  0  0  0  0
    0.4542    2.2682   -3.1080 H   0  0  0  0  0  0  0  0  0  0  0  0
   -1.2393    1.8863   -3.4855 H   0  0  0  0  0  0  0  0  0  0  0  0
   -0.8626    3.0595   -2.2082 H   0  0  0  0  0  0  0  0  0  0  0  0
  1  2  1  0  0  0  0
  2  3  1  0  0  0  0
  2  4  1  0  0  0  0
  2  5  1  0  0  0  0
  5  6  2  0  0  0  0
  5  7  1  0  0  0  0
  7  8  1  0  0  0  0
  7  9  1  0  0  0  0
  9 10  1  0  0  0  0
  9 11  1  0  0  0  0
  9 15  1  0  0  0  0
 11 12  1  0  0  0  0
 11 13  1  0  0  0  0
 11 14  1  0  0  0  0
 15 16  2  0  0  0  0
 15 17  1  0  0  0  0
 17 18  1  0  0  0  0
 17 19  1  0  0  0  0
 19 20  1  0  0  0  0
 19 21  1  0  0  0  0
 19 22  1  0  0  0  0
M  END
$$$$

  -OEChem-11182114133D

 22 21  0     1  0  0  0  0  0999 V2000
   -2.7541   -3.6203    1.3035 H   0  0  0  0  0  0  0  0  0  0  0  0
   -2.6993   -2.6212    0.8612 C   0  0  0  0  0  0  0  0  0  0  0  0
   -3.3376   -1.9476    1.4380 H   0  0  0  0  0  0  0  0  0  0  0  0
   -3.0662   -2.6724   -0.1667 H   0  0  0  0  0  0  0  0  0  0  0  0
   -1.2667   -2.1208    0.8770 C   0  0  0  0  0  0  0  0  0  0  0  0
   -0.4023   -2.8279    1.3617 O   0  0  0  0  0  0  0  0  0  0  0  0
   -0.9987   -0.8553    0.3845 N   0  0  0  0  0  0  0  0  0  0  0  0
   -1.8225   -0.2982    0.1764 H   0  0  0  0  0  0  0  0  0  0  0  0
    0.2997   -0.1387    0.3904 C   0  0  1  0  0  0  0  0  0  0  0  0
    0.5042    0.2294    1.4011 H   0  0  0  0  0  0  0  0  0  0  0  0
    1.4719   -1.0289   -0.0652 C   0  0  0  0  0  0  0  0  0  0  0  0
    1.2201   -1.5539   -0.9917 H   0  0  0  0  0  0  0  0  0  0  0  0
    2.3679   -0.4245   -0.2411 H   0  0  0  0  0  0  0  0  0  0  0  0
    1.7270   -1.7663    0.7003 H   0  0  0  0  0  0  0  0  0  0  0  0
    0.2760    1.0753   -0.5669 C   0  0  0  0  0  0  0  0  0  0  0  0
    1.0907    1.9777   -0.4350 O   0  0  0  0  0  0  0  0  0  0  0  0
   -0.7211    1.2062   -1.5196 N   0  0  0  0  0  0  0  0  0  0  0  0
   -1.2445    0.3642   -1.7368 H   0  0  0  0  0  0  0  0  0  0  0  0
   -0.7580    2.3106   -2.4718 C   0  0  0  0  0  0  0  0  0  0  0  0
    0.1448    2.3131   -3.0919 H   0  0  0  0  0  0  0  0  0  0  0  0
   -1.6293    2.2170   -3.1271 H   0  0  0  0  0  0  0  0  0  0  0  0
   -0.8258    3.2688   -1.9456 H   0  0  0  0  0  0  0  0  0  0  0  0
  1  2  1  0  0  0  0
  2  3  1  0  0  0  0
  2  4  1  0  0  0  0
  2  5  1  0  0  0  0
  5  6  2  0  0  0  0
  5  7  1  0  0  0  0
  7  8  1  0  0  0  0
  7  9  1  0  0  0  0
  9 10  1  0  0  0  0
  9 11  1  0  0  0  0
  9 15  1  0  0  0  0
 11 12  1  0  0  0  0
 11 13  1  0  0  0  0
 11 14  1  0  0  0  0
 15 16  2  0  0  0  0
 15 17  1  0  0  0  0
 17 18  1  0  0  0  0
 17 19  1  0  0  0  0
 19 20  1  0  0  0  0
 19 21  1  0  0  0  0
 19 22  1  0  0  0  0
M  END
$$$$

  -OEChem-11182114133D

 22 21  0     1  0  0  0  0  0999 V2000
   -2.7454   -3.6295    1.3055 H   0  0  0  0  0  0  0  0  0  0  0  0
   -2.6920   -2.6300    0.8641 C   0  0  0  0  0  0  0  0  0  0  0  0
   -3.3330   -1.9580    1.4398 H   0  0  0  0  0  0  0  0  0  0  0  0
   -3.0569   -2.6813   -0.1645 H   0  0  0  0  0  0  0  0  0  0  0  0
   -1.2602   -2.1272    0.8821 C   0  0  0  0  0  0  0  0  0  0  0  0
   -0.3975   -2.8308    1.3745 O   0  0  0  0  0  0  0  0  0  0  0  0
   -0.9961   -0.8617    0.3866 N   0  0  0  0  0  0  0  0  0  0  0  0
   -1.8248   -0.3054    0.2034 H   0  0  0  0  0  0  0  0  0  0  0  0
    0.3011   -0.1400    0.3851 C   0  0  1  0  0  0  0  0  0  0  0  0
    0.5065    0.2316    1.3943 H   0  0  0  0  0  0  0  0  0  0  0  0
    1.4707   -1.0408   -0.0637 C   0  0  0  0  0  0  0  0  0  0  0  0
    1.2183   -1.5659   -0.9899 H   0  0  0  0  0  0  0  0  0  0  0  0
    2.3741   -0.4474   -0.2376 H   0  0  0  0  0  0  0  0  0  0  0  0
    1.7183   -1.7779    0.7042 H   0  0  0  0  0  0  0  0  0  0  0  0
    0.2793    1.0774   -0.5739 C   0  0  0  0  0  0  0  0  0  0  0  0
    1.2178    1.8619   -0.5939 O   0  0  0  0  0  0  0  0  0  0  0  0
   -0.8526    1.3881   -1.3112 N   0  0  0  0  0  0  0  0  0  0  0  0
   -1.5178    0.6361   -1.4497 H   0  0  0  0  0  0  0  0  0  0  0  0
   -0.9101    2.5301   -2.2175 C   0  0  0  0  0  0  0  0  0  0  0  0
   -0.1543    2.4345   -3.0043 H   0  0  0  0  0  0  0  0  0  0  0  0
   -1.8959    2.5900   -2.6885 H   0  0  0  0  0  0  0  0  0  0  0  0
   -0.7336    3.4629   -1.6712 H   0  0  0  0  0  0  0  0  0  0  0  0
  1  2  1  0  0  0  0
  2  3  1  0  0  0  0
  2  4  1  0  0  0  0
  2  5  1  0  0  0  0
  5  6  2  0  0  0  0
  5  7  1  0  0  0  0
  7  8  1  0  0  0  0
  7  9  1  0  0  0  0
  9 10  1  0  0  0  0
  9 11  1  0  0  0  0
  9 15  1  0  0  0  0
 11 12  1  0  0  0  0
 11 13  1  0  0  0  0
 11 14  1  0  0  0  0
 15 16  2  0  0  0  0
 15 17  1  0  0  0  0
 17 18  1  0  0  0  0
 17 19  1  0  0  0  0
 19 20  1  0  0  0  0
 19 21  1  0  0  0  0
 19 22  1  0  0  0  0
M  END
$$$$

  -OEChem-11182114133D

 22 21  0     1  0  0  0  0  0999 V2000
   -2.5981   -3.6581    1.2690 H   0  0  0  0  0  0  0  0  0  0  0  0
   -2.5567   -2.7038    0.7359 C   0  0  0  0  0  0  0  0  0  0  0  0
   -3.4290   -2.1078    1.0147 H   0  0  0  0  0  0  0  0  0  0  0  0
   -2.5850   -2.9017   -0.3383 H   0  0  0  0  0  0  0  0  0  0  0  0
   -1.2830   -1.9609    1.0941 C   0  0  0  0  0  0  0  0  0  0  0  0
   -0.5400   -2.4193    1.9441 O   0  0  0  0  0  0  0  0  0  0  0  0
   -1.0313   -0.7299    0.5167 N   0  0  0  0  0  0  0  0  0  0  0  0
   -1.6829   -0.5046   -0.2285 H   0  0  0  0  0  0  0  0  0  0  0  0
    0.3114   -0.1130    0.3914 C   0  0  1  0  0  0  0  0  0  0  0  0
    0.6179    0.2784    1.3669 H   0  0  0  0  0  0  0  0  0  0  0  0
    1.3605   -1.1411   -0.0906 C   0  0  0  0  0  0  0  0  0  0  0  0
    1.0502   -1.5881   -1.0399 H   0  0  0  0  0  0  0  0  0  0  0  0
    2.3333   -0.6607   -0.2360 H   0  0  0  0  0  0  0  0  0  0  0  0
    1.5079   -1.9391    0.6407 H   0  0  0  0  0  0  0  0  0  0  0  0
    0.2880    1.0714   -0.6126 C   0  0  0  0  0  0  0  0  0  0  0  0
    1.3147    1.5092   -1.1144 O   0  0  0  0  0  0  0  0  0  0  0  0
   -0.9205    1.6215   -1.0115 N   0  0  0  0  0  0  0  0  0  0  0  0
   -1.7166    1.4286   -0.4125 H   0  0  0  0  0  0  0  0  0  0  0  0
   -1.0026    2.7675   -1.9111 C   0  0  0  0  0  0  0  0  0  0  0  0
   -0.5298    2.5363   -2.8717 H   0  0  0  0  0  0  0  0  0  0  0  0
   -2.0489    3.0276   -2.0979 H   0  0  0  0  0  0  0  0  0  0  0  0
   -0.5010    3.6367   -1.4726 H   0  0  0  0  0  0  0  0  0  0  0  0
  1  2  1  0  0  0  0
  2  3  1  0  0  0  0
  2  4  1  0  0  0  0
  2  5  1  0  0  0  0
  5  6  2  0  0  0  0
  5  7  1  0  0  0  0
  7  8  1  0  0  0  0
  7  9  1  0  0  0  0
  9 10  1  0  0  0  0
  9 11  1  0  0  0  0
  9 15  1  0  0  0  0
 11 12  1  0  0  0  0
 11 13  1  0  0  0  0
 11 14  1  0  0  0  0
 15 16  2  0  0  0  0
 15 17  1  0  0  0  0
 17 18  1  0  0  0  0
 17 19  1  0  0  0  0
 19 20  1  0  0  0  0
 19 21  1  0  0  0  0
 19 22  1  0  0  0  0
M  END
$$$$

  -OEChem-11182114133D

 22 21  0     1  0  0  0  0  0999 V2000
   -2.6237   -3.6382    1.2418 H   0  0  0  0  0  0  0  0  0  0  0  0
   -2.5735   -2.6779    0.7203 C   0  0  0  0  0  0  0  0  0  0  0  0
   -3.4313   -2.0707    1.0188 H   0  0  0  0  0  0  0  0  0  0  0  0
   -2.6195   -2.8611   -0.3558 H   0  0  0  0  0  0  0  0  0  0  0  0
   -1.2829   -1.9612    1.0705 C   0  0  0  0  0  0  0  0  0  0  0  0
   -0.5403   -2.4390    1.9102 O   0  0  0  0  0  0  0  0  0  0  0  0
   -1.0173   -0.7281    0.5044 N   0  0  0  0  0  0  0  0  0  0  0  0
   -1.6776   -0.4698   -0.2236 H   0  0  0  0  0  0  0  0  0  0  0  0
    0.3268   -0.1147    0.3893 C   0  0  1  0  0  0  0  0  0  0  0  0
    0.6274    0.2767    1.3664 H   0  0  0  0  0  0  0  0  0  0  0  0
    1.3829   -1.1404   -0.0820 C   0  0  0  0  0  0  0  0  0  0  0  0
    1.0787   -1.5944   -1.0300 H   0  0  0  0  0  0  0  0  0  0  0  0
    2.3533   -0.6547   -0.2259 H   0  0  0  0  0  0  0  0  0  0  0  0
    1.5308   -1.9331    0.6551 H   0  0  0  0  0  0  0  0  0  0  0  0
    0.2864    1.0722   -0.6107 C   0  0  0  0  0  0  0  0  0  0  0  0
    1.2398    1.3702   -1.3179 O   0  0  0  0  0  0  0  0  0  0  0  0
   -0.8851    1.7985   -0.7515 N   0  0  0  0  0  0  0  0  0  0  0  0
   -1.5884    1.6618   -0.0316 H   0  0  0  0  0  0  0  0  0  0  0  0
   -0.9917    2.9707   -1.6136 C   0  0  0  0  0  0  0  0  0  0  0  0
   -0.7675    2.7045   -2.6520 H   0  0  0  0  0  0  0  0  0  0  0  0
   -2.0065    3.3782   -1.5752 H   0  0  0  0  0  0  0  0  0  0  0  0
   -0.2924    3.7492   -1.2908 H   0  0  0  0  0  0  0  0  0  0  0  0
  1  2  1  0  0  0  0
  2  3  1  0  0  0  0
  2  4  1  0  0  0  0
  2  5  1  0  0  0  0
  5  6  2  0  0  0  0
  5  7  1  0  0  0  0
  7  8  1  0  0  0  0
  7  9  1  0  0  0  0
  9 10  1  0  0  0  0
  9 11  1  0  0  0  0
  9 15  1  0  0  0  0
 11 12  1  0  0  0  0
 11 13  1  0  0  0  0
 11 14  1  0  0  0  0
 15 16  2  0  0  0  0
 15 17  1  0  0  0  0
 17 18  1  0  0  0  0
 17 19  1  0  0  0  0
 19 20  1  0  0  0  0
 19 21  1  0  0  0  0
 19 22  1  0  0  0  0
M  END
$$$$

  -OEChem-11182114133D

 22 21  0     1  0  0  0  0  0999 V2000
   -2.6508   -3.6172    1.2191 H   0  0  0  0  0  0  0  0  0  0  0  0
   -2.5894   -2.6527    0.7067 C   0  0  0  0  0  0  0  0  0  0  0  0
   -3.4338   -2.0342    1.0200 H   0  0  0  0  0  0  0  0  0  0  0  0
   -2.6498   -2.8242   -0.3707 H   0  0  0  0  0  0  0  0  0  0  0  0
   -1.2829   -1.9618    1.0498 C   0  0  0  0  0  0  0  0  0  0  0  0
   -0.5367   -2.4648    1.8715 O   0  0  0  0  0  0  0  0  0  0  0  0
   -1.0047   -0.7253    0.4978 N   0  0  0  0  0  0  0  0  0  0  0  0
   -1.6765   -0.4304   -0.2061 H   0  0  0  0  0  0  0  0  0  0  0  0
    0.3403   -0.1159    0.3927 C   0  0  1  0  0  0  0  0  0  0  0  0
    0.6375    0.2720    1.3722 H   0  0  0  0  0  0  0  0  0  0  0  0
    1.4027   -1.1366   -0.0730 C   0  0  0  0  0  0  0  0  0  0  0  0
    1.0952   -1.6104   -1.0102 H   0  0  0  0  0  0  0  0  0  0  0  0
    2.3647   -0.6399   -0.2347 H   0  0  0  0  0  0  0  0  0  0  0  0
    1.5662   -1.9146    0.6764 H   0  0  0  0  0  0  0  0  0  0  0  0
    0.2862    1.0755   -0.5989 C   0  0  0  0  0  0  0  0  0  0  0  0
    1.0997    1.2310   -1.5003 O   0  0  0  0  0  0  0  0  0  0  0  0
   -0.7641    1.9721   -0.5009 N   0  0  0  0  0  0  0  0  0  0  0  0
   -1.3560    1.8936    0.3214 H   0  0  0  0  0  0  0  0  0  0  0  0
   -0.8833    3.1580   -1.3420 C   0  0  0  0  0  0  0  0  0  0  0  0
   -0.9353    2.8762   -2.3991 H   0  0  0  0  0  0  0  0  0  0  0  0
   -1.7927    3.7116   -1.0891 H   0  0  0  0  0  0  0  0  0  0  0  0
   -0.0225    3.8192   -1.1963 H   0  0  0  0  0  0  0  0  0  0  0  0
  1  2  1  0  0  0  0
  2  3  1  0  0  0  0
  2  4  1  0  0  0  0
  2  5  1  0  0  0  0
  5  6  2  0  0  0  0
  5  7  1  0  0  0  0
  7  8  1  0  0  0  0
  7  9  1  0  0  0  0
  9 10  1  0  0  0  0
  9 11  1  0  0  0  0
  9 15  1  0  0  0  0
 11 12  1  0  0  0  0
 11 13  1  0  0  0  0
 11 14  1  0  0  0  0
 15 16  2  0  0  0  0
 15 17  1  0  0  0  0
 17 18  1  0  0  0  0
 17 19  1  0  0  0  0
 19 20  1  0  0  0  0
 19 21  1  0  0  0  0
 19 22  1  0  0  0  0
M  END
$$$$

  -OEChem-11182114133D

 22 21  0     1  0  0  0  0  0999 V2000
   -2.6701   -3.6034    1.2003 H   0  0  0  0  0  0  0  0  0  0  0  0
   -2.5988   -2.6366    0.6938 C   0  0  0  0  0  0  0  0  0  0  0  0
   -3.4339   -2.0092    1.0142 H   0  0  0  0  0  0  0  0  0  0  0  0
   -2.6654   -2.8005   -0.3845 H   0  0  0  0  0  0  0  0  0  0  0  0
   -1.2828   -1.9635    1.0361 C   0  0  0  0  0  0  0  0  0  0  0  0
   -0.5328   -2.4862    1.8423 O   0  0  0  0  0  0  0  0  0  0  0  0
   -0.9976   -0.7217    0.5005 N   0  0  0  0  0  0  0  0  0  0  0  0
   -1.6740   -0.4026   -0.1884 H   0  0  0  0  0  0  0  0  0  0  0  0
    0.3482   -0.1166    0.4065 C   0  0  1  0  0  0  0  0  0  0  0  0
    0.6453    0.2589    1.3907 H   0  0  0  0  0  0  0  0  0  0  0  0
    1.4110   -1.1310   -0.0700 C   0  0  0  0  0  0  0  0  0  0  0  0
    1.0914   -1.6159   -0.9978 H   0  0  0  0  0  0  0  0  0  0  0  0
    2.3642   -0.6253   -0.2541 H   0  0  0  0  0  0  0  0  0  0  0  0
    1.5931   -1.9015    0.6831 H   0  0  0  0  0  0  0  0  0  0  0  0
    0.2938    1.0843   -0.5708 C   0  0  0  0  0  0  0  0  0  0  0  0
    0.9037    1.1081   -1.6320 O   0  0  0  0  0  0  0  0  0  0  0  0
   -0.5542    2.1370   -0.2760 N   0  0  0  0  0  0  0  0  0  0  0  0
   -1.0197    2.1183    0.6273 H   0  0  0  0  0  0  0  0  0  0  0  0
   -0.6860    3.3224   -1.1154 C   0  0  0  0  0  0  0  0  0  0  0  0
   -1.0341    3.0466   -2.1165 H   0  0  0  0  0  0  0  0  0  0  0  0
   -1.4096    4.0173   -0.6783 H   0  0  0  0  0  0  0  0  0  0  0  0
    0.2767    3.8367   -1.2064 H   0  0  0  0  0  0  0  0  0  0  0  0
  1  2  1  0  0  0  0
  2  3  1  0  0  0  0
  2  4  1  0  0  0  0
  2  5  1  0  0  0  0
  5  6  2  0  0  0  0
  5  7  1  0  0  0  0
  7  8  1  0  0  0  0
  7  9  1  0  0  0  0
  9 10  1  0  0  0  0
  9 11  1  0  0  0  0
  9 15  1  0  0  0  0
 11 12  1  0  0  0  0
 11 13  1  0  0  0  0
 11 14  1  0  0  0  0
 15 16  2  0  0  0  0
 15 17  1  0  0  0  0
 17 18  1  0  0  0  0
 17 19  1  0  0  0  0
 19 20  1  0  0  0  0
 19 21  1  0  0  0  0
 19 22  1  0  0  0  0
M  END
$$$$

  -OEChem-11182114133D

 22 21  0     1  0  0  0  0  0999 V2000
   -2.6564   -3.6191    1.1603 H   0  0  0  0  0  0  0  0  0  0  0  0
   -2.6014   -2.6350    0.6862 C   0  0  0  0  0  0  0  0  0  0  0  0
   -3.4369   -2.0266    1.0407 H   0  0  0  0  0  0  0  0  0  0  0  0
   -2.6837   -2.7626   -0.3959 H   0  0  0  0  0  0  0  0  0  0  0  0
   -1.2859   -1.9623    1.0318 C   0  0  0  0  0  0  0  0  0  0  0  0
   -0.5345   -2.4898    1.8340 O   0  0  0  0  0  0  0  0  0  0  0  0
   -1.0004   -0.7166    0.5061 N   0  0  0  0  0  0  0  0  0  0  0  0
   -1.6715   -0.3940   -0.1868 H   0  0  0  0  0  0  0  0  0  0  0  0
    0.3464   -0.1159    0.4215 C   0  0  1  0  0  0  0  0  0  0  0  0
    0.6458    0.2453    1.4104 H   0  0  0  0  0  0  0  0  0  0  0  0
    1.4065   -1.1248   -0.0689 C   0  0  0  0  0  0  0  0  0  0  0  0
    1.0715   -1.6213   -0.9850 H   0  0  0  0  0  0  0  0  0  0  0  0
    2.3502   -0.6116   -0.2791 H   0  0  0  0  0  0  0  0  0  0  0  0
    1.6091   -1.8868    0.6882 H   0  0  0  0  0  0  0  0  0  0  0  0
    0.3024    1.0920   -0.5447 C   0  0  0  0  0  0  0  0  0  0  0  0
    0.6613    1.0123   -1.7126 O   0  0  0  0  0  0  0  0  0  0  0  0
   -0.2811    2.2686   -0.1117 N   0  0  0  0  0  0  0  0  0  0  0  0
   -0.5896    2.3079    0.8557 H   0  0  0  0  0  0  0  0  0  0  0  0
   -0.4089    3.4584   -0.9450 C   0  0  0  0  0  0  0  0  0  0  0  0
   -1.0176    3.2440   -1.8296 H   0  0  0  0  0  0  0  0  0  0  0  0
   -0.8897    4.2642   -0.3822 H   0  0  0  0  0  0  0  0  0  0  0  0
    0.5774    3.8051   -1.2712 H   0  0  0  0  0  0  0  0  0  0  0  0
  1  2  1  0  0  0  0
  2  3  1  0  0  0  0
  2  4  1  0  0  0  0
  2  5  1  0  0  0  0
  5  6  2  0  0  0  0
  5  7  1  0  0  0  0
  7  8  1  0  0  0  0
  7  9  1  0  0  0  0
  9 10  1  0  0  0  0
  9 11  1  0  0  0  0
  9 15  1  0  0  0  0
 11 12  1  0  0  0  0
 11 13  1  0  0  0  0
 11 14  1  0  0  0  0
 15 16  2  0  0  0  0
 15 17  1  0  0  0  0
 17 18  1  0  0  0  0
 17 19  1  0  0  0  0
 19 20  1  0  0  0  0
 19 21  1  0  0  0  0
 19 22  1  0  0  0  0
M  END
$$$$

  -OEChem-11182114133D

 22 21  0     1  0  0  0  0  0999 V2000
   -2.6604   -3.6159    1.1375 H   0  0  0  0  0  0  0  0  0  0  0  0
   -2.6027   -2.6268    0.6742 C   0  0  0  0  0  0  0  0  0  0  0  0
   -3.4397   -2.0214    1.0302 H   0  0  0  0  0  0  0  0  0  0  0  0
   -2.6790   -2.7423   -0.4097 H   0  0  0  0  0  0  0  0  0  0  0  0
   -1.2893   -1.9580    1.0339 C   0  0  0  0  0  0  0  0  0  0  0  0
   -0.5403   -2.4921    1.8347 O   0  0  0  0  0  0  0  0  0  0  0  0
   -0.9991   -0.7103    0.5174 N   0  0  0  0  0  0  0  0  0  0  0  0
   -1.6588   -0.3870   -0.1867 H   0  0  0  0  0  0  0  0  0  0  0  0
    0.3500   -0.1178    0.4418 C   0  0  1  0  0  0  0  0  0  0  0  0
    0.6524    0.2269    1.4355 H   0  0  0  0  0  0  0  0  0  0  0  0
    1.4032   -1.1219   -0.0703 C   0  0  0  0  0  0  0  0  0  0  0  0
    1.0576   -1.6100   -0.9873 H   0  0  0  0  0  0  0  0  0  0  0  0
    2.3446   -0.6072   -0.2869 H   0  0  0  0  0  0  0  0  0  0  0  0
    1.6123   -1.8916    0.6773 H   0  0  0  0  0  0  0  0  0  0  0  0
    0.3182    1.0956   -0.5146 C   0  0  0  0  0  0  0  0  0  0  0  0
    0.3816    0.9530   -1.7291 O   0  0  0  0  0  0  0  0  0  0  0  0
    0.0400    2.3517   -0.0076 N   0  0  0  0  0  0  0  0  0  0  0  0
   -0.0727    2.4372    0.9987 H   0  0  0  0  0  0  0  0  0  0  0  0
   -0.0928    3.5429   -0.8381 C   0  0  0  0  0  0  0  0  0  0  0  0
   -0.9164    3.4245   -1.5501 H   0  0  0  0  0  0  0  0  0  0  0  0
   -0.2981    4.4183   -0.2143 H   0  0  0  0  0  0  0  0  0  0  0  0
    0.8319    3.7256   -1.3958 H   0  0  0  0  0  0  0  0  0  0  0  0
  1  2  1  0  0  0  0
  2  3  1  0  0  0  0
  2  4  1  0  0  0  0
  2  5  1  0  0  0  0
  5  6  2  0  0  0  0
  5  7  1  0  0  0  0
  7  8  1  0  0  0  0
  7  9  1  0  0  0  0
  9 10  1  0  0  0  0
  9 11  1  0  0  0  0
  9 15  1  0  0  0  0
 11 12  1  0  0  0  0
 11 13  1  0  0  0  0
 11 14  1  0  0  0  0
 15 16  2  0  0  0  0
 15 17  1  0  0  0  0
 17 18  1  0  0  0  0
 17 19  1  0  0  0  0
 19 20  1  0  0  0  0
 19 21  1  0  0  0  0
 19 22  1  0  0  0  0
M  END
$$$$

  -OEChem-11182114133D

 22 21  0     1  0  0  0  0  0999 V2000
   -2.6732   -3.6088    1.1321 H   0  0  0  0  0  0  0  0  0  0  0  0
   -2.6079   -2.6200    0.6694 C   0  0  0  0  0  0  0  0  0  0  0  0
   -3.4441   -2.0104    1.0202 H   0  0  0  0  0  0  0  0  0  0  0  0
   -2.6782   -2.7348   -0.4151 H   0  0  0  0  0  0  0  0  0  0  0  0
   -1.2937   -1.9568    1.0367 C   0  0  0  0  0  0  0  0  0  0  0  0
   -0.5462   -2.4978    1.8347 O   0  0  0  0  0  0  0  0  0  0  0  0
   -0.9970   -0.7092    0.5247 N   0  0  0  0  0  0  0  0  0  0  0  0
   -1.6476   -0.3828   -0.1872 H   0  0  0  0  0  0  0  0  0  0  0  0
    0.3533   -0.1213    0.4565 C   0  0  1  0  0  0  0  0  0  0  0  0
    0.6539    0.2120    1.4545 H   0  0  0  0  0  0  0  0  0  0  0  0
    1.4039   -1.1171   -0.0717 C   0  0  0  0  0  0  0  0  0  0  0  0
    1.0609   -1.5822   -1.0016 H   0  0  0  0  0  0  0  0  0  0  0  0
    2.3483   -0.6013   -0.2717 H   0  0  0  0  0  0  0  0  0  0  0  0
    1.6047   -1.9048    0.6593 H   0  0  0  0  0  0  0  0  0  0  0  0
    0.3333    1.0939   -0.4958 C   0  0  0  0  0  0  0  0  0  0  0  0
    0.1154    0.9441   -1.6918 O   0  0  0  0  0  0  0  0  0  0  0  0
    0.3721    2.3762    0.0203 N   0  0  0  0  0  0  0  0  0  0  0  0
    0.4704    2.4756    1.0266 H   0  0  0  0  0  0  0  0  0  0  0  0
    0.2496    3.5757   -0.7997 C   0  0  0  0  0  0  0  0  0  0  0  0
   -0.7220    3.5979   -1.3045 H   0  0  0  0  0  0  0  0  0  0  0  0
    0.3357    4.4706   -0.1759 H   0  0  0  0  0  0  0  0  0  0  0  0
    1.0409    3.6052   -1.5563 H   0  0  0  0  0  0  0  0  0  0  0  0
  1  2  1  0  0  0  0
  2  3  1  0  0  0  0
  2  4  1  0  0  0  0
  2  5  1  0  0  0  0
  5  6  2  0  0  0  0
  5  7  1  0  0  0  0
  7  8  1  0  0  0  0
  7  9  1  0  0  0  0
  9 10  1  0  0  0  0
  9 11  1  0  0  0  0
  9 15  1  0  0  0  0
 11 12  1  0  0  0  0
 11 13  1  0  0  0  0
 11 14  1  0  0  0  0
 15 16  2  0  0  0  0
 15 17  1  0  0  0  0
 17 18  1  0  0  0  0
 17 19  1  0  0  0  0
 19 20  1  0  0  0  0
 19 21  1  0  0  0  0
 19 22  1  0  0  0  0
M  END
$$$$

  -OEChem-11182114133D

 22 21  0     1  0  0  0  0  0999 V2000
   -2.6895   -3.5985    1.1371 H   0  0  0  0  0  0  0  0  0  0  0  0
   -2.6154   -2.6125    0.6700 C   0  0  0  0  0  0  0  0  0  0  0  0
   -3.4474   -1.9949    1.0164 H   0  0  0  0  0  0  0  0  0  0  0  0
   -2.6844   -2.7309   -0.4140 H   0  0  0  0  0  0  0  0  0  0  0  0
   -1.2964   -1.9588    1.0362 C   0  0  0  0  0  0  0  0  0  0  0  0
   -0.5463   -2.5106    1.8245 O   0  0  0  0  0  0  0  0  0  0  0  0
   -0.9932   -0.7120    0.5274 N   0  0  0  0  0  0  0  0  0  0  0  0
   -1.6391   -0.3767   -0.1856 H   0  0  0  0  0  0  0  0  0  0  0  0
    0.3566   -0.1243    0.4657 C   0  0  1  0  0  0  0  0  0  0  0  0
    0.6521    0.2053    1.4664 H   0  0  0  0  0  0  0  0  0  0  0  0
    1.4071   -1.1141   -0.0703 C   0  0  0  0  0  0  0  0  0  0  0  0
    1.0685   -1.5608   -1.0107 H   0  0  0  0  0  0  0  0  0  0  0  0
    2.3556   -0.5998   -0.2535 H   0  0  0  0  0  0  0  0  0  0  0  0
    1.5982   -1.9158    0.6482 H   0  0  0  0  0  0  0  0  0  0  0  0
    0.3424    1.0909   -0.4855 C   0  0  0  0  0  0  0  0  0  0  0  0
   -0.1248    0.9812   -1.6131 O   0  0  0  0  0  0  0  0  0  0  0  0
    0.6867    2.3466   -0.0200 N   0  0  0  0  0  0  0  0  0  0  0  0
    1.0053    2.4223    0.9417 H   0  0  0  0  0  0  0  0  0  0  0  0
    0.5948    3.5546   -0.8314 C   0  0  0  0  0  0  0  0  0  0  0  0
   -0.4431    3.7400   -1.1272 H   0  0  0  0  0  0  0  0  0  0  0  0
    0.9527    4.4195   -0.2646 H   0  0  0  0  0  0  0  0  0  0  0  0
    1.2066    3.4570   -1.7345 H   0  0  0  0  0  0  0  0  0  0  0  0
  1  2  1  0  0  0  0
  2  3  1  0  0  0  0
  2  4  1  0  0  0  0
  2  5  1  0  0  0  0
  5  6  2  0  0  0  0
  5  7  1  0  0  0  0
  7  8  1  0  0  0  0
  7  9  1  0  0  0  0
  9 10  1  0  0  0  0
  9 11  1  0  0  0  0
  9 15  1  0  0  0  0
 11 12  1  0  0  0  0
 11 13  1  0  0  0  0
 11 14  1  0  0  0  0
 15 16  2  0  0  0  0
 15 17  1  0  0  0  0
 17 18  1  0  0  0  0
 17 19  1  0  0  0  0
 19 20  1  0  0  0  0
 19 21  1  0  0  0  0
 19 22  1  0  0  0  0
M  END
$$$$

  -OEChem-11182114133D

 22 21  0     1  0  0  0  0  0999 V2000
   -2.7076   -3.5918    1.1491 H   0  0  0  0  0  0  0  0  0  0  0  0
   -2.6260   -2.6081    0.6784 C   0  0  0  0  0  0  0  0  0  0  0  0
   -3.4476   -1.9797    1.0302 H   0  0  0  0  0  0  0  0  0  0  0  0
   -2.7058   -2.7287   -0.4047 H   0  0  0  0  0  0  0  0  0  0  0  0
   -1.2966   -1.9682    1.0312 C   0  0  0  0  0  0  0  0  0  0  0  0
   -0.5412   -2.5319    1.8060 O   0  0  0  0  0  0  0  0  0  0  0  0
   -0.9888   -0.7215    0.5253 N   0  0  0  0  0  0  0  0  0  0  0  0
   -1.6412   -0.3679   -0.1741 H   0  0  0  0  0  0  0  0  0  0  0  0
    0.3577   -0.1262    0.4687 C   0  0  1  0  0  0  0  0  0  0  0  0
    0.6463    0.2040    1.4713 H   0  0  0  0  0  0  0  0  0  0  0  0
    1.4134   -1.1078   -0.0702 C   0  0  0  0  0  0  0  0  0  0  0  0
    1.0818   -1.5440   -1.0180 H   0  0  0  0  0  0  0  0  0  0  0  0
    2.3626   -0.5905   -0.2408 H   0  0  0  0  0  0  0  0  0  0  0  0
    1.6006   -1.9172    0.6405 H   0  0  0  0  0  0  0  0  0  0  0  0
    0.3463    1.0894   -0.4824 C   0  0  0  0  0  0  0  0  0  0  0  0
   -0.3195    1.0557   -1.5116 O   0  0  0  0  0  0  0  0  0  0  0  0
    0.9673    2.2701   -0.1187 N   0  0  0  0  0  0  0  0  0  0  0  0
    1.4692    2.2873    0.7644 H   0  0  0  0  0  0  0  0  0  0  0  0
    0.9264    3.4790   -0.9326 C   0  0  0  0  0  0  0  0  0  0  0  0
   -0.1033    3.8370   -1.0353 H   0  0  0  0  0  0  0  0  0  0  0  0
    1.5229    4.2696   -0.4672 H   0  0  0  0  0  0  0  0  0  0  0  0
    1.3321    3.2832   -1.9308 H   0  0  0  0  0  0  0  0  0  0  0  0
  1  2  1  0  0  0  0
  2  3  1  0  0  0  0
  2  4  1  0  0  0  0
  2  5  1  0  0  0  0
  5  6  2  0  0  0  0
  5  7  1  0  0  0  0
  7  8  1  0  0  0  0
  7  9  1  0  0  0  0
  9 10  1  0  0  0  0
  9 11  1  0  0  0  0
  9 15  1  0  0  0  0
 11 12  1  0  0  0  0
 11 13  1  0  0  0  0
 11 14  1  0  0  0  0
 15 16  2  0  0  0  0
 15 17  1  0  0  0  0
 17 18  1  0  0  0  0
 17 19  1  0  0  0  0
 19 20  1  0  0  0  0
 19 21  1  0  0  0  0
 19 22  1  0  0  0  0
M  END
$$$$

  -OEChem-11182114133D

 22 21  0     1  0  0  0  0  0999 V2000
   -2.7154   -3.5957    1.1352 H   0  0  0  0  0  0  0  0  0  0  0  0
   -2.6378   -2.6000    0.6894 C   0  0  0  0  0  0  0  0  0  0  0  0
   -3.4449   -1.9748    1.0789 H   0  0  0  0  0  0  0  0  0  0  0  0
   -2.7463   -2.6903   -0.3942 H   0  0  0  0  0  0  0  0  0  0  0  0
   -1.2947   -1.9795    1.0247 C   0  0  0  0  0  0  0  0  0  0  0  0
   -0.5318   -2.5609    1.7789 O   0  0  0  0  0  0  0  0  0  0  0  0
   -0.9816   -0.7327    0.5227 N   0  0  0  0  0  0  0  0  0  0  0  0
   -1.6483   -0.3520   -0.1492 H   0  0  0  0  0  0  0  0  0  0  0  0
    0.3608   -0.1275    0.4695 C   0  0  1  0  0  0  0  0  0  0  0  0
    0.6447    0.2050    1.4726 H   0  0  0  0  0  0  0  0  0  0  0  0
    1.4212   -1.1047   -0.0693 C   0  0  0  0  0  0  0  0  0  0  0  0
    1.0916   -1.5408   -1.0177 H   0  0  0  0  0  0  0  0  0  0  0  0
    2.3696   -0.5857   -0.2385 H   0  0  0  0  0  0  0  0  0  0  0  0
    1.6103   -1.9146    0.6403 H   0  0  0  0  0  0  0  0  0  0  0  0
    0.3483    1.0896   -0.4815 C   0  0  0  0  0  0  0  0  0  0  0  0
   -0.4783    1.1564   -1.3856 O   0  0  0  0  0  0  0  0  0  0  0  0
    1.2042    2.1546   -0.2679 N   0  0  0  0  0  0  0  0  0  0  0  0
    1.8603    2.0850    0.5046 H   0  0  0  0  0  0  0  0  0  0  0  0
    1.2154    3.3522   -1.0992 C   0  0  0  0  0  0  0  0  0  0  0  0
    0.2429    3.8542   -1.0623 H   0  0  0  0  0  0  0  0  0  0  0  0
    1.9788    4.0516   -0.7449 H   0  0  0  0  0  0  0  0  0  0  0  0
    1.4396    3.0942   -2.1396 H   0  0  0  0  0  0  0  0  0  0  0  0
  1  2  1  0  0  0  0
  2  3  1  0  0  0  0
  2  4  1  0  0  0  0
  2  5  1  0  0  0  0
  5  6  2  0  0  0  0
  5  7  1  0  0  0  0
  7  8  1  0  0  0  0
  7  9  1  0  0  0  0
  9 10  1  0  0  0  0
  9 11  1  0  0  0  0
  9 15  1  0  0  0  0
 11 12  1  0  0  0  0
 11 13  1  0  0  0  0
 11 14  1  0  0  0  0
 15 16  2  0  0  0  0
 15 17  1  0  0  0  0
 17 18  1  0  0  0  0
 17 19  1  0  0  0  0
 19 20  1  0  0  0  0
 19 21  1  0  0  0  0
 19 22  1  0  0  0  0
M  END
$$$$

  -OEChem-11182114133D

 22 21  0     1  0  0  0  0  0999 V2000
   -2.7336   -3.5896    1.1296 H   0  0  0  0  0  0  0  0  0  0  0  0
   -2.6501   -2.5894    0.6953 C   0  0  0  0  0  0  0  0  0  0  0  0
   -3.4391   -1.9576    1.1100 H   0  0  0  0  0  0  0  0  0  0  0  0
   -2.7828   -2.6639   -0.3867 H   0  0  0  0  0  0  0  0  0  0  0  0
   -1.2909   -1.9934    1.0103 C   0  0  0  0  0  0  0  0  0  0  0  0
   -0.5213   -2.5977    1.7391 O   0  0  0  0  0  0  0  0  0  0  0  0
   -0.9692   -0.7457    0.5154 N   0  0  0  0  0  0  0  0  0  0  0  0
   -1.6532   -0.3290   -0.1171 H   0  0  0  0  0  0  0  0  0  0  0  0
    0.3693   -0.1297    0.4707 C   0  0  1  0  0  0  0  0  0  0  0  0
    0.6472    0.2064    1.4745 H   0  0  0  0  0  0  0  0  0  0  0  0
    1.4341   -1.1073   -0.0617 C   0  0  0  0  0  0  0  0  0  0  0  0
    1.1085   -1.5441   -1.0113 H   0  0  0  0  0  0  0  0  0  0  0  0
    2.3852   -0.5919   -0.2260 H   0  0  0  0  0  0  0  0  0  0  0  0
    1.6193   -1.9164    0.6497 H   0  0  0  0  0  0  0  0  0  0  0  0
    0.3557    1.0904   -0.4796 C   0  0  0  0  0  0  0  0  0  0  0  0
   -0.5933    1.2759   -1.2353 O   0  0  0  0  0  0  0  0  0  0  0  0
    1.3882    2.0108   -0.4569 N   0  0  0  0  0  0  0  0  0  0  0  0
    2.1570    1.8404    0.1849 H   0  0  0  0  0  0  0  0  0  0  0  0
    1.4346    3.1849   -1.3199 C   0  0  0  0  0  0  0  0  0  0  0  0
    0.5710    3.8322   -1.1341 H   0  0  0  0  0  0  0  0  0  0  0  0
    2.3453    3.7605   -1.1273 H   0  0  0  0  0  0  0  0  0  0  0  0
    1.4312    2.8857   -2.3734 H   0  0  0  0  0  0  0  0  0  0  0  0
  1  2  1  0  0  0  0
  2  3  1  0  0  0  0
  2  4  1  0  0  0  0
  2  5  1  0  0  0  0
  5  6  2  0  0  0  0
  5  7  1  0  0  0  0
  7  8  1  0  0  0  0
  7  9  1  0  0  0  0
  9 10  1  0  0  0  0
  9 11  1  0  0  0  0
  9 15  1  0  0  0  0
 11 12  1  0  0  0  0
 11 13  1  0  0  0  0
 11 14  1  0  0  0  0
 15 16  2  0  0  0  0
 15 17  1  0  0  0  0
 17 18  1  0  0  0  0
 17 19  1  0  0  0  0
 19 20  1  0  0  0  0
 19 21  1  0  0  0  0
 19 22  1  0  0  0  0
M  END
$$$$
