
  -OEChem-02062319093D

 50 50  0     1  0  0  0  0  0999 V2000
   -2.7236   -1.8267    1.9460 C   0  0  0  0  0  0  0  0  0  0  0  0
   -2.9053   -1.5425    0.7648 O   0  0  0  0  0  0  0  0  0  0  0  0
   -3.5697   -2.9014    2.6017 C   0  0  0  0  0  0  0  0  0  0  0  0
   -4.3400   -3.2557    1.9113 H   0  0  0  0  0  0  0  0  0  0  0  0
   -2.9409   -3.7464    2.8942 H   0  0  0  0  0  0  0  0  0  0  0  0
   -4.0600   -2.4991    3.4922 H   0  0  0  0  0  0  0  0  0  0  0  0
   -1.7215   -1.2133    2.6685 N   0  0  0  0  0  0  0  0  0  0  0  0
   -0.8893   -0.1001    2.1879 C   0  0  2  0  0  0  0  0  0  0  0  0
    0.0657   -0.4992    1.0381 C   0  0  0  0  0  0  0  0  0  0  0  0
    1.1883   -0.9339    1.2503 O   0  0  0  0  0  0  0  0  0  0  0  0
   -0.1188    0.4465    3.3959 C   0  0  0  0  0  0  0  0  0  0  0  0
   -1.5804   -1.5307    3.6251 H   0  0  0  0  0  0  0  0  0  0  0  0
   -1.5345    0.7032    1.8170 H   0  0  0  0  0  0  0  0  0  0  0  0
    0.5284   -0.3254    3.8246 H   0  0  0  0  0  0  0  0  0  0  0  0
    0.5089    1.2917    3.0954 H   0  0  0  0  0  0  0  0  0  0  0  0
   -0.8118    0.7923    4.1690 H   0  0  0  0  0  0  0  0  0  0  0  0
   -0.4050   -0.4751   -0.2650 N   0  0  0  0  0  0  0  0  0  0  0  0
    0.4002   -0.8294   -1.4493 C   0  0  2  0  0  0  0  0  0  0  0  0
    1.6320    0.0823   -1.5964 C   0  0  0  0  0  0  0  0  0  0  0  0
    2.6783   -0.3630   -2.0426 O   0  0  0  0  0  0  0  0  0  0  0  0
   -0.4553   -0.7839   -2.7229 C   0  0  0  0  0  0  0  0  0  0  0  0
   -1.3700   -1.9827   -2.8137 C   0  0  0  0  0  0  0  0  0  0  0  0
   -2.3051   -2.4122   -1.8682 N   0  3  0  0  0  0  0  0  0  0  0  0
   -1.4242   -2.8606   -3.8676 C   0  0  0  0  0  0  0  0  0  0  0  0
   -2.9128   -3.4942   -2.2859 C   0  0  0  0  0  0  0  0  0  0  0  0
   -2.3914   -3.8032   -3.5397 N   0  0  0  0  0  0  0  0  0  0  0  0
   -1.3581   -0.1383   -0.3817 H   0  0  0  0  0  0  0  0  0  0  0  0
    0.7861   -1.8477   -1.3201 H   0  0  0  0  0  0  0  0  0  0  0  0
    0.2070   -0.7724   -3.5966 H   0  0  0  0  0  0  0  0  0  0  0  0
   -1.0416    0.1406   -2.7488 H   0  0  0  0  0  0  0  0  0  0  0  0
   -2.4389   -1.9585   -0.9520 H   0  0  0  0  0  0  0  0  0  0  0  0
   -0.8192   -2.8217   -4.7742 H   0  0  0  0  0  0  0  0  0  0  0  0
   -3.6785   -4.0489   -1.7415 H   0  0  0  0  0  0  0  0  0  0  0  0
   -2.6627   -4.6027   -4.1199 H   0  0  0  0  0  0  0  0  0  0  0  0
    1.4721    1.4419   -1.4234 N   0  0  0  0  0  0  0  0  0  0  0  0
    2.5860    2.2928   -0.9935 C   0  0  2  0  0  0  0  0  0  0  0  0
    2.2959    2.8353    0.4238 C   0  0  0  0  0  0  0  0  0  0  0  0
    1.1569    2.7557    0.8826 O   0  0  0  0  0  0  0  0  0  0  0  0
    2.7351    3.4324   -2.0035 C   0  0  0  0  0  0  0  0  0  0  0  0
    0.5926    1.6835   -0.9691 H   0  0  0  0  0  0  0  0  0  0  0  0
    3.5223    1.7249   -0.9523 H   0  0  0  0  0  0  0  0  0  0  0  0
    1.8172    4.0272   -2.0507 H   0  0  0  0  0  0  0  0  0  0  0  0
    3.5619    4.0911   -1.7209 H   0  0  0  0  0  0  0  0  0  0  0  0
    2.9408    3.0284   -2.9998 H   0  0  0  0  0  0  0  0  0  0  0  0
    3.2992    3.4066    1.1827 N   0  0  0  0  0  0  0  0  0  0  0  0
    3.0984    3.8979    2.5412 C   0  0  0  0  0  0  0  0  0  0  0  0
    4.2390    3.4103    0.7953 H   0  0  0  0  0  0  0  0  0  0  0  0
    2.2992    4.6466    2.5662 H   0  0  0  0  0  0  0  0  0  0  0  0
    2.8315    3.0737    3.2110 H   0  0  0  0  0  0  0  0  0  0  0  0
    4.0157    4.3641    2.9143 H   0  0  0  0  0  0  0  0  0  0  0  0
  1  2  2  0  0  0  0
  1  3  1  0  0  0  0
  1  7  1  0  0  0  0
  3  4  1  0  0  0  0
  3  5  1  0  0  0  0
  3  6  1  0  0  0  0
  7  8  1  0  0  0  0
  7 12  1  0  0  0  0
  8  9  1  0  0  0  0
  8 11  1  0  0  0  0
  8 13  1  0  0  0  0
  9 10  2  0  0  0  0
  9 17  1  0  0  0  0
 11 14  1  0  0  0  0
 11 15  1  0  0  0  0
 11 16  1  0  0  0  0
 17 18  1  0  0  0  0
 17 27  1  0  0  0  0
 18 19  1  0  0  0  0
 18 21  1  0  0  0  0
 18 28  1  0  0  0  0
 19 20  2  0  0  0  0
 19 35  1  0  0  0  0
 21 22  1  0  0  0  0
 21 29  1  0  0  0  0
 21 30  1  0  0  0  0
 22 23  1  0  0  0  0
 22 24  2  0  0  0  0
 23 25  2  0  0  0  0
 23 31  1  0  0  0  0
 24 26  1  0  0  0  0
 24 32  1  0  0  0  0
 25 26  1  0  0  0  0
 25 33  1  0  0  0  0
 26 34  1  0  0  0  0
 35 36  1  0  0  0  0
 35 40  1  0  0  0  0
 36 37  1  0  0  0  0
 36 39  1  0  0  0  0
 36 41  1  0  0  0  0
 37 38  2  0  0  0  0
 37 45  1  0  0  0  0
 39 42  1  0  0  0  0
 39 43  1  0  0  0  0
 39 44  1  0  0  0  0
 45 46  1  0  0  0  0
 45 47  1  0  0  0  0
 46 48  1  0  0  0  0
 46 49  1  0  0  0  0
 46 50  1  0  0  0  0
M  CHG  1  23   1
M  END
$$$$

  -OEChem-02062319093D

 50 50  0     1  0  0  0  0  0999 V2000
   -2.7157   -1.9734    2.0087 C   0  0  0  0  0  0  0  0  0  0  0  0
   -2.9869   -1.7779    0.8265 O   0  0  0  0  0  0  0  0  0  0  0  0
   -3.2736   -3.1858    2.7280 C   0  0  0  0  0  0  0  0  0  0  0  0
   -3.9499   -3.7410    2.0726 H   0  0  0  0  0  0  0  0  0  0  0  0
   -2.4579   -3.8462    3.0342 H   0  0  0  0  0  0  0  0  0  0  0  0
   -3.8275   -2.8699    3.6159 H   0  0  0  0  0  0  0  0  0  0  0  0
   -1.8668   -1.1147    2.6737 N   0  0  0  0  0  0  0  0  0  0  0  0
   -1.1917    0.0227    2.0360 C   0  0  2  0  0  0  0  0  0  0  0  0
   -0.1652   -0.4272    0.9725 C   0  0  0  0  0  0  0  0  0  0  0  0
    0.8154   -1.0818    1.2976 O   0  0  0  0  0  0  0  0  0  0  0  0
   -0.5181    0.8470    3.1377 C   0  0  0  0  0  0  0  0  0  0  0  0
   -1.5501   -1.4012    3.5975 H   0  0  0  0  0  0  0  0  0  0  0  0
   -1.9371    0.6590    1.5482 H   0  0  0  0  0  0  0  0  0  0  0  0
    0.2485    0.2568    3.6507 H   0  0  0  0  0  0  0  0  0  0  0  0
   -0.0395    1.7339    2.7103 H   0  0  0  0  0  0  0  0  0  0  0  0
   -1.2566    1.1778    3.8745 H   0  0  0  0  0  0  0  0  0  0  0  0
   -0.5046   -0.3562   -0.3715 N   0  0  0  0  0  0  0  0  0  0  0  0
    0.2422   -1.0342   -1.4507 C   0  0  2  0  0  0  0  0  0  0  0  0
    1.7070   -0.5653   -1.5235 C   0  0  0  0  0  0  0  0  0  0  0  0
    2.5925   -1.3585   -1.8042 O   0  0  0  0  0  0  0  0  0  0  0  0
   -0.4615   -0.8435   -2.8014 C   0  0  0  0  0  0  0  0  0  0  0  0
   -1.6719   -1.7414   -2.9321 C   0  0  0  0  0  0  0  0  0  0  0  0
   -2.5657   -2.1284   -1.9284 N   0  3  0  0  0  0  0  0  0  0  0  0
   -2.0735   -2.3612   -4.0899 C   0  0  0  0  0  0  0  0  0  0  0  0
   -3.4735   -2.9391   -2.4091 C   0  0  0  0  0  0  0  0  0  0  0  0
   -3.2035   -3.1030   -3.7650 N   0  0  0  0  0  0  0  0  0  0  0  0
   -1.3442    0.1706   -0.5972 H   0  0  0  0  0  0  0  0  0  0  0  0
    0.2845   -2.1071   -1.2275 H   0  0  0  0  0  0  0  0  0  0  0  0
    0.2423   -1.0757   -3.6096 H   0  0  0  0  0  0  0  0  0  0  0  0
   -0.7573    0.2043   -2.9191 H   0  0  0  0  0  0  0  0  0  0  0  0
   -2.4737   -1.8522   -0.9382 H   0  0  0  0  0  0  0  0  0  0  0  0
   -1.5892   -2.2887   -5.0644 H   0  0  0  0  0  0  0  0  0  0  0  0
   -4.2804   -3.4020   -1.8385 H   0  0  0  0  0  0  0  0  0  0  0  0
   -3.7345   -3.6928   -4.4127 H   0  0  0  0  0  0  0  0  0  0  0  0
    1.9792    0.7848   -1.4384 N   0  0  0  0  0  0  0  0  0  0  0  0
    3.2373    1.2530   -0.8485 C   0  0  2  0  0  0  0  0  0  0  0  0
    2.9519    1.8320    0.5541 C   0  0  0  0  0  0  0  0  0  0  0  0
    1.8193    2.2282    0.8244 O   0  0  0  0  0  0  0  0  0  0  0  0
    3.8351    2.3171   -1.7700 C   0  0  0  0  0  0  0  0  0  0  0  0
    1.1758    1.3292   -1.1280 H   0  0  0  0  0  0  0  0  0  0  0  0
    3.9544    0.4316   -0.7408 H   0  0  0  0  0  0  0  0  0  0  0  0
    3.1470    3.1617   -1.8796 H   0  0  0  0  0  0  0  0  0  0  0  0
    4.7802    2.6893   -1.3625 H   0  0  0  0  0  0  0  0  0  0  0  0
    4.0283    1.8929   -2.7605 H   0  0  0  0  0  0  0  0  0  0  0  0
    3.9458    1.9027    1.5108 N   0  0  0  0  0  0  0  0  0  0  0  0
    3.7089    2.3649    2.8735 C   0  0  0  0  0  0  0  0  0  0  0  0
    4.8493    1.4970    1.2819 H   0  0  0  0  0  0  0  0  0  0  0  0
    3.3004    3.3812    2.8694 H   0  0  0  0  0  0  0  0  0  0  0  0
    3.0022    1.7027    3.3848 H   0  0  0  0  0  0  0  0  0  0  0  0
    4.6461    2.3745    3.4387 H   0  0  0  0  0  0  0  0  0  0  0  0
  1  2  2  0  0  0  0
  1  3  1  0  0  0  0
  1  7  1  0  0  0  0
  3  4  1  0  0  0  0
  3  5  1  0  0  0  0
  3  6  1  0  0  0  0
  7  8  1  0  0  0  0
  7 12  1  0  0  0  0
  8  9  1  0  0  0  0
  8 11  1  0  0  0  0
  8 13  1  0  0  0  0
  9 10  2  0  0  0  0
  9 17  1  0  0  0  0
 11 14  1  0  0  0  0
 11 15  1  0  0  0  0
 11 16  1  0  0  0  0
 17 18  1  0  0  0  0
 17 27  1  0  0  0  0
 18 19  1  0  0  0  0
 18 21  1  0  0  0  0
 18 28  1  0  0  0  0
 19 20  2  0  0  0  0
 19 35  1  0  0  0  0
 21 22  1  0  0  0  0
 21 29  1  0  0  0  0
 21 30  1  0  0  0  0
 22 23  1  0  0  0  0
 22 24  2  0  0  0  0
 23 25  2  0  0  0  0
 23 31  1  0  0  0  0
 24 26  1  0  0  0  0
 24 32  1  0  0  0  0
 25 26  1  0  0  0  0
 25 33  1  0  0  0  0
 26 34  1  0  0  0  0
 35 36  1  0  0  0  0
 35 40  1  0  0  0  0
 36 37  1  0  0  0  0
 36 39  1  0  0  0  0
 36 41  1  0  0  0  0
 37 38  2  0  0  0  0
 37 45  1  0  0  0  0
 39 42  1  0  0  0  0
 39 43  1  0  0  0  0
 39 44  1  0  0  0  0
 45 46  1  0  0  0  0
 45 47  1  0  0  0  0
 46 48  1  0  0  0  0
 46 49  1  0  0  0  0
 46 50  1  0  0  0  0
M  CHG  1  23   1
M  END
$$$$

  -OEChem-02062319093D

 50 50  0     1  0  0  0  0  0999 V2000
   -2.7911   -1.7919    2.0516 C   0  0  0  0  0  0  0  0  0  0  0  0
   -2.9585   -1.8472    0.8353 O   0  0  0  0  0  0  0  0  0  0  0  0
   -3.1714   -2.9665    2.9315 C   0  0  0  0  0  0  0  0  0  0  0  0
   -3.6663   -3.7410    2.3397 H   0  0  0  0  0  0  0  0  0  0  0  0
   -2.2764   -3.3933    3.3920 H   0  0  0  0  0  0  0  0  0  0  0  0
   -3.8535   -2.6382    3.7201 H   0  0  0  0  0  0  0  0  0  0  0  0
   -2.2109   -0.6735    2.6120 N   0  0  0  0  0  0  0  0  0  0  0  0
   -1.6404    0.4219    1.8180 C   0  0  2  0  0  0  0  0  0  0  0  0
   -0.4309   -0.0443    0.9772 C   0  0  0  0  0  0  0  0  0  0  0  0
    0.5299   -0.5546    1.5327 O   0  0  0  0  0  0  0  0  0  0  0  0
   -1.2303    1.5400    2.7809 C   0  0  0  0  0  0  0  0  0  0  0  0
   -1.9354   -0.7449    3.5897 H   0  0  0  0  0  0  0  0  0  0  0  0
   -2.4055    0.8177    1.1423 H   0  0  0  0  0  0  0  0  0  0  0  0
   -0.4675    1.1864    3.4830 H   0  0  0  0  0  0  0  0  0  0  0  0
   -0.8187    2.3895    2.2263 H   0  0  0  0  0  0  0  0  0  0  0  0
   -2.0958    1.8887    3.3532 H   0  0  0  0  0  0  0  0  0  0  0  0
   -0.5658   -0.1844   -0.3976 N   0  0  0  0  0  0  0  0  0  0  0  0
    0.2124   -1.1655   -1.1834 C   0  0  2  0  0  0  0  0  0  0  0  0
    1.7387   -0.9570   -1.0963 C   0  0  0  0  0  0  0  0  0  0  0  0
    2.4788   -1.9294   -1.0435 O   0  0  0  0  0  0  0  0  0  0  0  0
   -0.2312   -1.1509   -2.6547 C   0  0  0  0  0  0  0  0  0  0  0  0
   -1.5981   -1.7659   -2.8704 C   0  0  0  0  0  0  0  0  0  0  0  0
   -2.5428   -2.1565   -1.9145 N   0  3  0  0  0  0  0  0  0  0  0  0
   -2.1221   -2.0783   -4.1012 C   0  0  0  0  0  0  0  0  0  0  0  0
   -3.5959   -2.6764   -2.4926 C   0  0  0  0  0  0  0  0  0  0  0  0
   -3.3709   -2.6425   -3.8657 N   0  0  0  0  0  0  0  0  0  0  0  0
   -1.4487    0.1422   -0.7814 H   0  0  0  0  0  0  0  0  0  0  0  0
    0.0277   -2.1646   -0.7713 H   0  0  0  0  0  0  0  0  0  0  0  0
    0.4977   -1.7140   -3.2505 H   0  0  0  0  0  0  0  0  0  0  0  0
   -0.2265   -0.1199   -3.0253 H   0  0  0  0  0  0  0  0  0  0  0  0
   -2.4107   -2.0521   -0.8960 H   0  0  0  0  0  0  0  0  0  0  0  0
   -1.6413   -1.9203   -5.0674 H   0  0  0  0  0  0  0  0  0  0  0  0
   -4.4784   -3.0649   -1.9805 H   0  0  0  0  0  0  0  0  0  0  0  0
   -4.0124   -2.9911   -4.5847 H   0  0  0  0  0  0  0  0  0  0  0  0
    2.2760    0.3112   -1.2144 N   0  0  0  0  0  0  0  0  0  0  0  0
    3.6882    0.5880   -0.9168 C   0  0  2  0  0  0  0  0  0  0  0  0
    3.9280    0.6072    0.6098 C   0  0  0  0  0  0  0  0  0  0  0  0
    4.0067    1.6642    1.2233 O   0  0  0  0  0  0  0  0  0  0  0  0
    4.0653    1.9112   -1.5948 C   0  0  0  0  0  0  0  0  0  0  0  0
    1.6212    1.0711   -1.0513 H   0  0  0  0  0  0  0  0  0  0  0  0
    4.3270   -0.1947   -1.3405 H   0  0  0  0  0  0  0  0  0  0  0  0
    3.4479    2.7321   -1.2160 H   0  0  0  0  0  0  0  0  0  0  0  0
    5.1150    2.1514   -1.3965 H   0  0  0  0  0  0  0  0  0  0  0  0
    3.9262    1.8381   -2.6774 H   0  0  0  0  0  0  0  0  0  0  0  0
    3.9439   -0.5888    1.2993 N   0  0  0  0  0  0  0  0  0  0  0  0
    3.9194   -0.6615    2.7545 C   0  0  0  0  0  0  0  0  0  0  0  0
    3.6514   -1.4091    0.7665 H   0  0  0  0  0  0  0  0  0  0  0  0
    4.7548   -0.0970    3.1824 H   0  0  0  0  0  0  0  0  0  0  0  0
    2.9811   -0.2504    3.1413 H   0  0  0  0  0  0  0  0  0  0  0  0
    4.0052   -1.7020    3.0822 H   0  0  0  0  0  0  0  0  0  0  0  0
  1  2  2  0  0  0  0
  1  3  1  0  0  0  0
  1  7  1  0  0  0  0
  3  4  1  0  0  0  0
  3  5  1  0  0  0  0
  3  6  1  0  0  0  0
  7  8  1  0  0  0  0
  7 12  1  0  0  0  0
  8  9  1  0  0  0  0
  8 11  1  0  0  0  0
  8 13  1  0  0  0  0
  9 10  2  0  0  0  0
  9 17  1  0  0  0  0
 11 14  1  0  0  0  0
 11 15  1  0  0  0  0
 11 16  1  0  0  0  0
 17 18  1  0  0  0  0
 17 27  1  0  0  0  0
 18 19  1  0  0  0  0
 18 21  1  0  0  0  0
 18 28  1  0  0  0  0
 19 20  2  0  0  0  0
 19 35  1  0  0  0  0
 21 22  1  0  0  0  0
 21 29  1  0  0  0  0
 21 30  1  0  0  0  0
 22 23  1  0  0  0  0
 22 24  2  0  0  0  0
 23 25  2  0  0  0  0
 23 31  1  0  0  0  0
 24 26  1  0  0  0  0
 24 32  1  0  0  0  0
 25 26  1  0  0  0  0
 25 33  1  0  0  0  0
 26 34  1  0  0  0  0
 35 36  1  0  0  0  0
 35 40  1  0  0  0  0
 36 37  1  0  0  0  0
 36 39  1  0  0  0  0
 36 41  1  0  0  0  0
 37 38  2  0  0  0  0
 37 45  1  0  0  0  0
 39 42  1  0  0  0  0
 39 43  1  0  0  0  0
 39 44  1  0  0  0  0
 45 46  1  0  0  0  0
 45 47  1  0  0  0  0
 46 48  1  0  0  0  0
 46 49  1  0  0  0  0
 46 50  1  0  0  0  0
M  CHG  1  23   1
M  END
$$$$

  -OEChem-02062319093D

 50 50  0     1  0  0  0  0  0999 V2000
   -2.9856   -1.7575    1.9483 C   0  0  0  0  0  0  0  0  0  0  0  0
   -3.1428   -1.8241    0.7314 O   0  0  0  0  0  0  0  0  0  0  0  0
   -3.3971   -2.9137    2.8390 C   0  0  0  0  0  0  0  0  0  0  0  0
   -3.8802   -3.6974    2.2490 H   0  0  0  0  0  0  0  0  0  0  0  0
   -2.5177   -3.3368    3.3318 H   0  0  0  0  0  0  0  0  0  0  0  0
   -4.0987   -2.5665    3.6019 H   0  0  0  0  0  0  0  0  0  0  0  0
   -2.3949   -0.6402    2.5001 N   0  0  0  0  0  0  0  0  0  0  0  0
   -1.7999    0.4375    1.6988 C   0  0  2  0  0  0  0  0  0  0  0  0
   -0.5337   -0.0342    0.9496 C   0  0  0  0  0  0  0  0  0  0  0  0
    0.3864   -0.5268    1.5840 O   0  0  0  0  0  0  0  0  0  0  0  0
   -1.4725    1.6006    2.6398 C   0  0  0  0  0  0  0  0  0  0  0  0
   -2.1196   -0.7099    3.4782 H   0  0  0  0  0  0  0  0  0  0  0  0
   -2.5311    0.7911    0.9650 H   0  0  0  0  0  0  0  0  0  0  0  0
   -0.7455    1.2916    3.3988 H   0  0  0  0  0  0  0  0  0  0  0  0
   -1.0474    2.4388    2.0782 H   0  0  0  0  0  0  0  0  0  0  0  0
   -2.3782    1.9492    3.1466 H   0  0  0  0  0  0  0  0  0  0  0  0
   -0.5936   -0.2425   -0.4217 N   0  0  0  0  0  0  0  0  0  0  0  0
    0.0004   -1.4398   -1.0550 C   0  0  2  0  0  0  0  0  0  0  0  0
    1.5213   -1.6005   -0.8445 C   0  0  0  0  0  0  0  0  0  0  0  0
    1.9921   -2.7258   -0.7482 O   0  0  0  0  0  0  0  0  0  0  0  0
   -0.2972   -1.4598   -2.5634 C   0  0  0  0  0  0  0  0  0  0  0  0
   -1.7697   -1.5876   -2.8900 C   0  0  0  0  0  0  0  0  0  0  0  0
   -2.8237   -1.9223   -2.0335 N   0  3  0  0  0  0  0  0  0  0  0  0
   -2.3094   -1.4136   -4.1409 C   0  0  0  0  0  0  0  0  0  0  0  0
   -3.9571   -1.9544   -2.6876 C   0  0  0  0  0  0  0  0  0  0  0  0
   -3.6750   -1.6437   -4.0149 N   0  0  0  0  0  0  0  0  0  0  0  0
   -1.4365    0.1235   -0.8560 H   0  0  0  0  0  0  0  0  0  0  0  0
   -0.4536   -2.3257   -0.5965 H   0  0  0  0  0  0  0  0  0  0  0  0
    0.2265   -2.3152   -3.0073 H   0  0  0  0  0  0  0  0  0  0  0  0
    0.1086   -0.5541   -3.0274 H   0  0  0  0  0  0  0  0  0  0  0  0
   -2.7126   -2.0789   -1.0191 H   0  0  0  0  0  0  0  0  0  0  0  0
   -1.7653   -1.1596   -5.0514 H   0  0  0  0  0  0  0  0  0  0  0  0
   -4.9356   -2.1815   -2.2594 H   0  0  0  0  0  0  0  0  0  0  0  0
   -4.3590   -1.6030   -4.7770 H   0  0  0  0  0  0  0  0  0  0  0  0
    2.3647   -0.5164   -0.9975 N   0  0  0  0  0  0  0  0  0  0  0  0
    3.8188   -0.6044   -0.7971 C   0  0  2  0  0  0  0  0  0  0  0  0
    4.1852   -0.6762    0.7037 C   0  0  0  0  0  0  0  0  0  0  0  0
    4.7251    0.2634    1.2736 O   0  0  0  0  0  0  0  0  0  0  0  0
    4.4591    0.5947   -1.5077 C   0  0  0  0  0  0  0  0  0  0  0  0
    1.9314    0.3898   -0.8401 H   0  0  0  0  0  0  0  0  0  0  0  0
    4.2065   -1.5145   -1.2676 H   0  0  0  0  0  0  0  0  0  0  0  0
    4.0990    1.5359   -1.0795 H   0  0  0  0  0  0  0  0  0  0  0  0
    5.5480    0.5616   -1.3973 H   0  0  0  0  0  0  0  0  0  0  0  0
    4.2198    0.5796   -2.5751 H   0  0  0  0  0  0  0  0  0  0  0  0
    3.8559   -1.8092    1.4205 N   0  0  0  0  0  0  0  0  0  0  0  0
    4.0081   -1.9136    2.8658 C   0  0  0  0  0  0  0  0  0  0  0  0
    3.2766   -2.4943    0.9325 H   0  0  0  0  0  0  0  0  0  0  0  0
    5.0442   -1.7122    3.1585 H   0  0  0  0  0  0  0  0  0  0  0  0
    3.3531   -1.1963    3.3714 H   0  0  0  0  0  0  0  0  0  0  0  0
    3.7464   -2.9217    3.2012 H   0  0  0  0  0  0  0  0  0  0  0  0
  1  2  2  0  0  0  0
  1  3  1  0  0  0  0
  1  7  1  0  0  0  0
  3  4  1  0  0  0  0
  3  5  1  0  0  0  0
  3  6  1  0  0  0  0
  7  8  1  0  0  0  0
  7 12  1  0  0  0  0
  8  9  1  0  0  0  0
  8 11  1  0  0  0  0
  8 13  1  0  0  0  0
  9 10  2  0  0  0  0
  9 17  1  0  0  0  0
 11 14  1  0  0  0  0
 11 15  1  0  0  0  0
 11 16  1  0  0  0  0
 17 18  1  0  0  0  0
 17 27  1  0  0  0  0
 18 19  1  0  0  0  0
 18 21  1  0  0  0  0
 18 28  1  0  0  0  0
 19 20  2  0  0  0  0
 19 35  1  0  0  0  0
 21 22  1  0  0  0  0
 21 29  1  0  0  0  0
 21 30  1  0  0  0  0
 22 23  1  0  0  0  0
 22 24  2  0  0  0  0
 23 25  2  0  0  0  0
 23 31  1  0  0  0  0
 24 26  1  0  0  0  0
 24 32  1  0  0  0  0
 25 26  1  0  0  0  0
 25 33  1  0  0  0  0
 26 34  1  0  0  0  0
 35 36  1  0  0  0  0
 35 40  1  0  0  0  0
 36 37  1  0  0  0  0
 36 39  1  0  0  0  0
 36 41  1  0  0  0  0
 37 38  2  0  0  0  0
 37 45  1  0  0  0  0
 39 42  1  0  0  0  0
 39 43  1  0  0  0  0
 39 44  1  0  0  0  0
 45 46  1  0  0  0  0
 45 47  1  0  0  0  0
 46 48  1  0  0  0  0
 46 49  1  0  0  0  0
 46 50  1  0  0  0  0
M  CHG  1  23   1
M  END
$$$$

  -OEChem-02062319093D

 50 50  0     1  0  0  0  0  0999 V2000
   -3.2188   -1.7037    1.8082 C   0  0  0  0  0  0  0  0  0  0  0  0
   -3.4073   -1.7136    0.5960 O   0  0  0  0  0  0  0  0  0  0  0  0
   -3.7533   -2.8260    2.6761 C   0  0  0  0  0  0  0  0  0  0  0  0
   -4.2994   -3.5508    2.0660 H   0  0  0  0  0  0  0  0  0  0  0  0
   -2.9279   -3.3395    3.1760 H   0  0  0  0  0  0  0  0  0  0  0  0
   -4.4316   -2.4229    3.4325 H   0  0  0  0  0  0  0  0  0  0  0  0
   -2.4821   -0.6823    2.3700 N   0  0  0  0  0  0  0  0  0  0  0  0
   -1.8994    0.4291    1.6066 C   0  0  2  0  0  0  0  0  0  0  0  0
   -0.6270   -0.0050    0.8423 C   0  0  0  0  0  0  0  0  0  0  0  0
    0.4937    0.1906    1.2833 O   0  0  0  0  0  0  0  0  0  0  0  0
   -1.6312    1.5762    2.5883 C   0  0  0  0  0  0  0  0  0  0  0  0
   -2.2825   -0.7423    3.3670 H   0  0  0  0  0  0  0  0  0  0  0  0
   -2.6249    0.7878    0.8691 H   0  0  0  0  0  0  0  0  0  0  0  0
   -0.9142    1.2696    3.3573 H   0  0  0  0  0  0  0  0  0  0  0  0
   -1.2183    2.4412    2.0593 H   0  0  0  0  0  0  0  0  0  0  0  0
   -2.5592    1.8840    3.0805 H   0  0  0  0  0  0  0  0  0  0  0  0
   -0.6565   -0.2202   -0.5187 N   0  0  0  0  0  0  0  0  0  0  0  0
   -0.3010   -1.5723   -0.9941 C   0  0  2  0  0  0  0  0  0  0  0  0
    1.1196   -2.0583   -0.6290 C   0  0  0  0  0  0  0  0  0  0  0  0
    1.2942   -3.2602   -0.4833 O   0  0  0  0  0  0  0  0  0  0  0  0
   -0.4946   -1.6737   -2.5176 C   0  0  0  0  0  0  0  0  0  0  0  0
   -1.9165   -1.4024   -2.9589 C   0  0  0  0  0  0  0  0  0  0  0  0
   -3.0724   -1.4252   -2.1743 N   0  3  0  0  0  0  0  0  0  0  0  0
   -2.3054   -1.0957   -4.2394 C   0  0  0  0  0  0  0  0  0  0  0  0
   -4.1278   -1.1511   -2.8976 C   0  0  0  0  0  0  0  0  0  0  0  0
   -3.6872   -0.9418   -4.2018 N   0  0  0  0  0  0  0  0  0  0  0  0
   -0.1064    0.5024   -0.9788 H   0  0  0  0  0  0  0  0  0  0  0  0
   -0.9833   -2.2859   -0.5186 H   0  0  0  0  0  0  0  0  0  0  0  0
   -0.2247   -2.6886   -2.8337 H   0  0  0  0  0  0  0  0  0  0  0  0
    0.1881   -0.9824   -3.0236 H   0  0  0  0  0  0  0  0  0  0  0  0
   -3.0644   -1.6017   -1.1580 H   0  0  0  0  0  0  0  0  0  0  0  0
   -1.6546   -1.0039   -5.1092 H   0  0  0  0  0  0  0  0  0  0  0  0
   -5.1555   -1.0973   -2.5340 H   0  0  0  0  0  0  0  0  0  0  0  0
   -4.2835   -0.7177   -5.0040 H   0  0  0  0  0  0  0  0  0  0  0  0
    2.2143   -1.2265   -0.7743 N   0  0  0  0  0  0  0  0  0  0  0  0
    3.6014   -1.6972   -0.6251 C   0  0  2  0  0  0  0  0  0  0  0  0
    3.9949   -1.9299    0.8537 C   0  0  0  0  0  0  0  0  0  0  0  0
    4.8325   -1.2335    1.4104 O   0  0  0  0  0  0  0  0  0  0  0  0
    4.5066   -0.6743   -1.3238 C   0  0  0  0  0  0  0  0  0  0  0  0
    2.0397   -0.2563   -0.5143 H   0  0  0  0  0  0  0  0  0  0  0  0
    3.7253   -2.6550   -1.1418 H   0  0  0  0  0  0  0  0  0  0  0  0
    4.4255    0.3059   -0.8425 H   0  0  0  0  0  0  0  0  0  0  0  0
    5.5519   -0.9967   -1.2729 H   0  0  0  0  0  0  0  0  0  0  0  0
    4.2287   -0.5724   -2.3770 H   0  0  0  0  0  0  0  0  0  0  0  0
    3.3916   -2.9517    1.5596 N   0  0  0  0  0  0  0  0  0  0  0  0
    3.6781   -3.2491    2.9573 C   0  0  0  0  0  0  0  0  0  0  0  0
    2.6601   -3.4720    1.0724 H   0  0  0  0  0  0  0  0  0  0  0  0
    4.7362   -3.5010    3.0864 H   0  0  0  0  0  0  0  0  0  0  0  0
    3.4422   -2.3860    3.5889 H   0  0  0  0  0  0  0  0  0  0  0  0
    3.0781   -4.1000    3.2938 H   0  0  0  0  0  0  0  0  0  0  0  0
  1  2  2  0  0  0  0
  1  3  1  0  0  0  0
  1  7  1  0  0  0  0
  3  4  1  0  0  0  0
  3  5  1  0  0  0  0
  3  6  1  0  0  0  0
  7  8  1  0  0  0  0
  7 12  1  0  0  0  0
  8  9  1  0  0  0  0
  8 11  1  0  0  0  0
  8 13  1  0  0  0  0
  9 10  2  0  0  0  0
  9 17  1  0  0  0  0
 11 14  1  0  0  0  0
 11 15  1  0  0  0  0
 11 16  1  0  0  0  0
 17 18  1  0  0  0  0
 17 27  1  0  0  0  0
 18 19  1  0  0  0  0
 18 21  1  0  0  0  0
 18 28  1  0  0  0  0
 19 20  2  0  0  0  0
 19 35  1  0  0  0  0
 21 22  1  0  0  0  0
 21 29  1  0  0  0  0
 21 30  1  0  0  0  0
 22 23  1  0  0  0  0
 22 24  2  0  0  0  0
 23 25  2  0  0  0  0
 23 31  1  0  0  0  0
 24 26  1  0  0  0  0
 24 32  1  0  0  0  0
 25 26  1  0  0  0  0
 25 33  1  0  0  0  0
 26 34  1  0  0  0  0
 35 36  1  0  0  0  0
 35 40  1  0  0  0  0
 36 37  1  0  0  0  0
 36 39  1  0  0  0  0
 36 41  1  0  0  0  0
 37 38  2  0  0  0  0
 37 45  1  0  0  0  0
 39 42  1  0  0  0  0
 39 43  1  0  0  0  0
 39 44  1  0  0  0  0
 45 46  1  0  0  0  0
 45 47  1  0  0  0  0
 46 48  1  0  0  0  0
 46 49  1  0  0  0  0
 46 50  1  0  0  0  0
M  CHG  1  23   1
M  END
$$$$

  -OEChem-02062319093D

 50 50  0     1  0  0  0  0  0999 V2000
   -3.5047   -1.3617    1.5732 C   0  0  0  0  0  0  0  0  0  0  0  0
   -3.8091   -1.1681    0.4005 O   0  0  0  0  0  0  0  0  0  0  0  0
   -4.1212   -2.5134    2.3431 C   0  0  0  0  0  0  0  0  0  0  0  0
   -4.8541   -3.0367    1.7225 H   0  0  0  0  0  0  0  0  0  0  0  0
   -3.3444   -3.2225    2.6417 H   0  0  0  0  0  0  0  0  0  0  0  0
   -4.6240   -2.1391    3.2386 H   0  0  0  0  0  0  0  0  0  0  0  0
   -2.5515   -0.5636    2.1698 N   0  0  0  0  0  0  0  0  0  0  0  0
   -1.8437    0.5343    1.4965 C   0  0  2  0  0  0  0  0  0  0  0  0
   -0.6161    0.0199    0.7070 C   0  0  0  0  0  0  0  0  0  0  0  0
    0.5159    0.3742    0.9893 O   0  0  0  0  0  0  0  0  0  0  0  0
   -1.4742    1.5637    2.5729 C   0  0  0  0  0  0  0  0  0  0  0  0
   -2.2657   -0.8096    3.1163 H   0  0  0  0  0  0  0  0  0  0  0  0
   -2.5120    1.0290    0.7839 H   0  0  0  0  0  0  0  0  0  0  0  0
   -0.7981    1.1235    3.3136 H   0  0  0  0  0  0  0  0  0  0  0  0
   -0.9731    2.4254    2.1200 H   0  0  0  0  0  0  0  0  0  0  0  0
   -2.3723    1.9191    3.0874 H   0  0  0  0  0  0  0  0  0  0  0  0
   -0.6814   -0.2267   -0.6423 N   0  0  0  0  0  0  0  0  0  0  0  0
   -0.7444   -1.6337   -1.0714 C   0  0  2  0  0  0  0  0  0  0  0  0
    0.4593   -2.4944   -0.6367 C   0  0  0  0  0  0  0  0  0  0  0  0
    0.2643   -3.6962   -0.5221 O   0  0  0  0  0  0  0  0  0  0  0  0
   -0.9323   -1.7242   -2.5953 C   0  0  0  0  0  0  0  0  0  0  0  0
   -2.1784   -1.0118   -3.0737 C   0  0  0  0  0  0  0  0  0  0  0  0
   -3.3460   -0.7729   -2.3447 N   0  3  0  0  0  0  0  0  0  0  0  0
   -2.3663   -0.4784   -4.3246 C   0  0  0  0  0  0  0  0  0  0  0  0
   -4.2204   -0.1271   -3.0729 C   0  0  0  0  0  0  0  0  0  0  0  0
   -3.6443    0.0707   -4.3254 N   0  0  0  0  0  0  0  0  0  0  0  0
    0.0820    0.2792   -1.0871 H   0  0  0  0  0  0  0  0  0  0  0  0
   -1.6150   -2.0982   -0.5989 H   0  0  0  0  0  0  0  0  0  0  0  0
   -1.0092   -2.7823   -2.8728 H   0  0  0  0  0  0  0  0  0  0  0  0
   -0.0512   -1.3168   -3.1023 H   0  0  0  0  0  0  0  0  0  0  0  0
   -3.4564   -1.0320   -1.3522 H   0  0  0  0  0  0  0  0  0  0  0  0
   -1.6523   -0.4933   -5.1483 H   0  0  0  0  0  0  0  0  0  0  0  0
   -5.2099    0.1962   -2.7454 H   0  0  0  0  0  0  0  0  0  0  0  0
   -4.0875    0.5457   -5.1172 H   0  0  0  0  0  0  0  0  0  0  0  0
    1.7549   -2.0274   -0.7587 N   0  0  0  0  0  0  0  0  0  0  0  0
    2.8856   -2.8834   -0.3615 C   0  0  2  0  0  0  0  0  0  0  0  0
    2.9494   -3.1396    1.1640 C   0  0  0  0  0  0  0  0  0  0  0  0
    2.3975   -2.3764    1.9471 O   0  0  0  0  0  0  0  0  0  0  0  0
    4.1703   -2.1979   -0.8330 C   0  0  0  0  0  0  0  0  0  0  0  0
    1.8441   -1.0462   -0.4932 H   0  0  0  0  0  0  0  0  0  0  0  0
    2.8021   -3.8538   -0.8625 H   0  0  0  0  0  0  0  0  0  0  0  0
    4.2927   -1.2298   -0.3359 H   0  0  0  0  0  0  0  0  0  0  0  0
    5.0425   -2.8172   -0.6014 H   0  0  0  0  0  0  0  0  0  0  0  0
    4.1408   -2.0348   -1.9147 H   0  0  0  0  0  0  0  0  0  0  0  0
    3.6448   -4.2258    1.6626 N   0  0  0  0  0  0  0  0  0  0  0  0
    3.7124   -4.5438    3.0847 C   0  0  0  0  0  0  0  0  0  0  0  0
    4.0435   -4.8791    0.9951 H   0  0  0  0  0  0  0  0  0  0  0  0
    4.1502   -3.7099    3.6439 H   0  0  0  0  0  0  0  0  0  0  0  0
    2.7114   -4.7455    3.4807 H   0  0  0  0  0  0  0  0  0  0  0  0
    4.3331   -5.4304    3.2466 H   0  0  0  0  0  0  0  0  0  0  0  0
  1  2  2  0  0  0  0
  1  3  1  0  0  0  0
  1  7  1  0  0  0  0
  3  4  1  0  0  0  0
  3  5  1  0  0  0  0
  3  6  1  0  0  0  0
  7  8  1  0  0  0  0
  7 12  1  0  0  0  0
  8  9  1  0  0  0  0
  8 11  1  0  0  0  0
  8 13  1  0  0  0  0
  9 10  2  0  0  0  0
  9 17  1  0  0  0  0
 11 14  1  0  0  0  0
 11 15  1  0  0  0  0
 11 16  1  0  0  0  0
 17 18  1  0  0  0  0
 17 27  1  0  0  0  0
 18 19  1  0  0  0  0
 18 21  1  0  0  0  0
 18 28  1  0  0  0  0
 19 20  2  0  0  0  0
 19 35  1  0  0  0  0
 21 22  1  0  0  0  0
 21 29  1  0  0  0  0
 21 30  1  0  0  0  0
 22 23  1  0  0  0  0
 22 24  2  0  0  0  0
 23 25  2  0  0  0  0
 23 31  1  0  0  0  0
 24 26  1  0  0  0  0
 24 32  1  0  0  0  0
 25 26  1  0  0  0  0
 25 33  1  0  0  0  0
 26 34  1  0  0  0  0
 35 36  1  0  0  0  0
 35 40  1  0  0  0  0
 36 37  1  0  0  0  0
 36 39  1  0  0  0  0
 36 41  1  0  0  0  0
 37 38  2  0  0  0  0
 37 45  1  0  0  0  0
 39 42  1  0  0  0  0
 39 43  1  0  0  0  0
 39 44  1  0  0  0  0
 45 46  1  0  0  0  0
 45 47  1  0  0  0  0
 46 48  1  0  0  0  0
 46 49  1  0  0  0  0
 46 50  1  0  0  0  0
M  CHG  1  23   1
M  END
$$$$

  -OEChem-02062319093D

 50 50  0     1  0  0  0  0  0999 V2000
   -3.6180   -1.2290    1.3210 C   0  0  0  0  0  0  0  0  0  0  0  0
   -3.9591   -0.7425    0.2471 O   0  0  0  0  0  0  0  0  0  0  0  0
   -4.3605   -2.4214    1.8912 C   0  0  0  0  0  0  0  0  0  0  0  0
   -5.2300   -2.6591    1.2723 H   0  0  0  0  0  0  0  0  0  0  0  0
   -3.7008   -3.2928    1.9215 H   0  0  0  0  0  0  0  0  0  0  0  0
   -4.7026   -2.1994    2.9054 H   0  0  0  0  0  0  0  0  0  0  0  0
   -2.5007   -0.7433    1.9662 N   0  0  0  0  0  0  0  0  0  0  0  0
   -1.6778    0.3811    1.4967 C   0  0  2  0  0  0  0  0  0  0  0  0
   -0.4770   -0.0994    0.6467 C   0  0  0  0  0  0  0  0  0  0  0  0
    0.6646    0.2423    0.9062 O   0  0  0  0  0  0  0  0  0  0  0  0
   -1.2474    1.1689    2.7411 C   0  0  0  0  0  0  0  0  0  0  0  0
   -2.1941   -1.2430    2.8000 H   0  0  0  0  0  0  0  0  0  0  0  0
   -2.2746    1.0529    0.8714 H   0  0  0  0  0  0  0  0  0  0  0  0
   -0.6140    0.5527    3.3882 H   0  0  0  0  0  0  0  0  0  0  0  0
   -0.6799    2.0590    2.4509 H   0  0  0  0  0  0  0  0  0  0  0  0
   -2.1227    1.4916    3.3134 H   0  0  0  0  0  0  0  0  0  0  0  0
   -0.5749   -0.2998   -0.7090 N   0  0  0  0  0  0  0  0  0  0  0  0
   -0.9775   -1.6260   -1.2029 C   0  0  2  0  0  0  0  0  0  0  0  0
   -0.0336   -2.7654   -0.7804 C   0  0  0  0  0  0  0  0  0  0  0  0
   -0.5277   -3.8749   -0.6372 O   0  0  0  0  0  0  0  0  0  0  0  0
   -1.1543   -1.6022   -2.7289 C   0  0  0  0  0  0  0  0  0  0  0  0
   -2.2007   -0.6001   -3.1665 C   0  0  0  0  0  0  0  0  0  0  0  0
   -3.3155   -0.1736   -2.4387 N   0  3  0  0  0  0  0  0  0  0  0  0
   -2.2231    0.0653   -4.3672 C   0  0  0  0  0  0  0  0  0  0  0  0
   -4.0009    0.7083   -3.1199 C   0  0  0  0  0  0  0  0  0  0  0  0
   -3.3510    0.8789   -4.3398 N   0  0  0  0  0  0  0  0  0  0  0  0
    0.2737    0.0579   -1.1429 H   0  0  0  0  0  0  0  0  0  0  0  0
   -1.9435   -1.8835   -0.7648 H   0  0  0  0  0  0  0  0  0  0  0  0
   -1.4660   -2.6003   -3.0590 H   0  0  0  0  0  0  0  0  0  0  0  0
   -0.1967   -1.3813   -3.2123 H   0  0  0  0  0  0  0  0  0  0  0  0
   -3.5175   -0.4843   -1.4759 H   0  0  0  0  0  0  0  0  0  0  0  0
   -1.4991   -0.0336   -5.1762 H   0  0  0  0  0  0  0  0  0  0  0  0
   -4.9068    1.2139   -2.7801 H   0  0  0  0  0  0  0  0  0  0  0  0
   -3.6508    1.5061   -5.0920 H   0  0  0  0  0  0  0  0  0  0  0  0
    1.3404   -2.6325   -0.8540 N   0  0  0  0  0  0  0  0  0  0  0  0
    2.1943   -3.6797   -0.2688 C   0  0  2  0  0  0  0  0  0  0  0  0
    2.0276   -3.8180    1.2667 C   0  0  0  0  0  0  0  0  0  0  0  0
    1.4642   -2.9453    1.9186 O   0  0  0  0  0  0  0  0  0  0  0  0
    3.6454   -3.3351   -0.6131 C   0  0  0  0  0  0  0  0  0  0  0  0
    1.6606   -1.6775   -0.7018 H   0  0  0  0  0  0  0  0  0  0  0  0
    1.9452   -4.6455   -0.7216 H   0  0  0  0  0  0  0  0  0  0  0  0
    3.9313   -2.3812   -0.1572 H   0  0  0  0  0  0  0  0  0  0  0  0
    4.3224   -4.1114   -0.2431 H   0  0  0  0  0  0  0  0  0  0  0  0
    3.7724   -3.2569   -1.6975 H   0  0  0  0  0  0  0  0  0  0  0  0
    2.5074   -4.9369    1.9222 N   0  0  0  0  0  0  0  0  0  0  0  0
    2.3528   -5.1499    3.3570 C   0  0  0  0  0  0  0  0  0  0  0  0
    2.9253   -5.6724    1.3600 H   0  0  0  0  0  0  0  0  0  0  0  0
    2.8322   -4.3410    3.9189 H   0  0  0  0  0  0  0  0  0  0  0  0
    1.2920   -5.1854    3.6272 H   0  0  0  0  0  0  0  0  0  0  0  0
    2.8162   -6.0963    3.6529 H   0  0  0  0  0  0  0  0  0  0  0  0
  1  2  2  0  0  0  0
  1  3  1  0  0  0  0
  1  7  1  0  0  0  0
  3  4  1  0  0  0  0
  3  5  1  0  0  0  0
  3  6  1  0  0  0  0
  7  8  1  0  0  0  0
  7 12  1  0  0  0  0
  8  9  1  0  0  0  0
  8 11  1  0  0  0  0
  8 13  1  0  0  0  0
  9 10  2  0  0  0  0
  9 17  1  0  0  0  0
 11 14  1  0  0  0  0
 11 15  1  0  0  0  0
 11 16  1  0  0  0  0
 17 18  1  0  0  0  0
 17 27  1  0  0  0  0
 18 19  1  0  0  0  0
 18 21  1  0  0  0  0
 18 28  1  0  0  0  0
 19 20  2  0  0  0  0
 19 35  1  0  0  0  0
 21 22  1  0  0  0  0
 21 29  1  0  0  0  0
 21 30  1  0  0  0  0
 22 23  1  0  0  0  0
 22 24  2  0  0  0  0
 23 25  2  0  0  0  0
 23 31  1  0  0  0  0
 24 26  1  0  0  0  0
 24 32  1  0  0  0  0
 25 26  1  0  0  0  0
 25 33  1  0  0  0  0
 26 34  1  0  0  0  0
 35 36  1  0  0  0  0
 35 40  1  0  0  0  0
 36 37  1  0  0  0  0
 36 39  1  0  0  0  0
 36 41  1  0  0  0  0
 37 38  2  0  0  0  0
 37 45  1  0  0  0  0
 39 42  1  0  0  0  0
 39 43  1  0  0  0  0
 39 44  1  0  0  0  0
 45 46  1  0  0  0  0
 45 47  1  0  0  0  0
 46 48  1  0  0  0  0
 46 49  1  0  0  0  0
 46 50  1  0  0  0  0
M  CHG  1  23   1
M  END
$$$$

  -OEChem-02062319093D

 50 50  0     1  0  0  0  0  0999 V2000
   -3.6896   -1.0127    1.1370 C   0  0  0  0  0  0  0  0  0  0  0  0
   -3.9989   -0.2898    0.1931 O   0  0  0  0  0  0  0  0  0  0  0  0
   -4.5722   -2.1826    1.5242 C   0  0  0  0  0  0  0  0  0  0  0  0
   -5.5021   -2.1656    0.9492 H   0  0  0  0  0  0  0  0  0  0  0  0
   -4.0518   -3.1238    1.3257 H   0  0  0  0  0  0  0  0  0  0  0  0
   -4.8176   -2.1296    2.5880 H   0  0  0  0  0  0  0  0  0  0  0  0
   -2.4725   -0.8370    1.7617 N   0  0  0  0  0  0  0  0  0  0  0  0
   -1.5117    0.2365    1.4629 C   0  0  2  0  0  0  0  0  0  0  0  0
   -0.3445   -0.2458    0.5661 C   0  0  0  0  0  0  0  0  0  0  0  0
    0.8147    0.0358    0.8219 O   0  0  0  0  0  0  0  0  0  0  0  0
   -1.0285    0.7816    2.8137 C   0  0  0  0  0  0  0  0  0  0  0  0
   -2.1966   -1.5431    2.4444 H   0  0  0  0  0  0  0  0  0  0  0  0
   -2.0078    1.0562    0.9339 H   0  0  0  0  0  0  0  0  0  0  0  0
   -0.4903    0.0076    3.3710 H   0  0  0  0  0  0  0  0  0  0  0  0
   -0.3532    1.6305    2.6647 H   0  0  0  0  0  0  0  0  0  0  0  0
   -1.8768    1.1211    3.4159 H   0  0  0  0  0  0  0  0  0  0  0  0
   -0.4685   -0.4173   -0.7934 N   0  0  0  0  0  0  0  0  0  0  0  0
   -1.1979   -1.5708   -1.3426 C   0  0  2  0  0  0  0  0  0  0  0  0
   -0.6138   -2.9315   -0.9327 C   0  0  0  0  0  0  0  0  0  0  0  0
   -1.3999   -3.8496   -0.7438 O   0  0  0  0  0  0  0  0  0  0  0  0
   -1.3595   -1.4328   -2.8617 C   0  0  0  0  0  0  0  0  0  0  0  0
   -2.1719   -0.2025   -3.2117 C   0  0  0  0  0  0  0  0  0  0  0  0
   -3.2047    0.3665   -2.4564 N   0  3  0  0  0  0  0  0  0  0  0  0
   -2.0195    0.5723   -4.3349 C   0  0  0  0  0  0  0  0  0  0  0  0
   -3.6740    1.4340   -3.0496 C   0  0  0  0  0  0  0  0  0  0  0  0
   -2.9621    1.5909   -4.2362 N   0  0  0  0  0  0  0  0  0  0  0  0
    0.4319   -0.2293   -1.2292 H   0  0  0  0  0  0  0  0  0  0  0  0
   -2.2014   -1.5783   -0.9245 H   0  0  0  0  0  0  0  0  0  0  0  0
   -1.8797   -2.3197   -3.2424 H   0  0  0  0  0  0  0  0  0  0  0  0
   -0.3775   -1.3945   -3.3447 H   0  0  0  0  0  0  0  0  0  0  0  0
   -3.4964    0.0136   -1.5312 H   0  0  0  0  0  0  0  0  0  0  0  0
   -1.3005    0.4138   -5.1389 H   0  0  0  0  0  0  0  0  0  0  0  0
   -4.4693    2.0778   -2.6692 H   0  0  0  0  0  0  0  0  0  0  0  0
   -3.1016    2.3415   -4.9192 H   0  0  0  0  0  0  0  0  0  0  0  0
    0.7451   -3.1805   -0.9618 N   0  0  0  0  0  0  0  0  0  0  0  0
    1.2644   -4.3400   -0.2164 C   0  0  2  0  0  0  0  0  0  0  0  0
    1.0056   -4.2547    1.3128 C   0  0  0  0  0  0  0  0  0  0  0  0
    0.5502   -3.2350    1.8241 O   0  0  0  0  0  0  0  0  0  0  0  0
    2.7666   -4.4326   -0.5005 C   0  0  0  0  0  0  0  0  0  0  0  0
    1.3157   -2.3398   -0.9128 H   0  0  0  0  0  0  0  0  0  0  0  0
    0.7814   -5.2518   -0.5846 H   0  0  0  0  0  0  0  0  0  0  0  0
    3.2850   -3.5464   -0.1193 H   0  0  0  0  0  0  0  0  0  0  0  0
    3.1962   -5.3174   -0.0201 H   0  0  0  0  0  0  0  0  0  0  0  0
    2.9465   -4.5072   -1.5778 H   0  0  0  0  0  0  0  0  0  0  0  0
    1.2619   -5.3451    2.1232 N   0  0  0  0  0  0  0  0  0  0  0  0
    1.0213   -5.3485    3.5618 C   0  0  0  0  0  0  0  0  0  0  0  0
    1.6055   -6.1935    1.6825 H   0  0  0  0  0  0  0  0  0  0  0  0
    1.6019   -4.5586    4.0503 H   0  0  0  0  0  0  0  0  0  0  0  0
   -0.0410   -5.1869    3.7733 H   0  0  0  0  0  0  0  0  0  0  0  0
    1.3171   -6.3100    3.9929 H   0  0  0  0  0  0  0  0  0  0  0  0
  1  2  2  0  0  0  0
  1  3  1  0  0  0  0
  1  7  1  0  0  0  0
  3  4  1  0  0  0  0
  3  5  1  0  0  0  0
  3  6  1  0  0  0  0
  7  8  1  0  0  0  0
  7 12  1  0  0  0  0
  8  9  1  0  0  0  0
  8 11  1  0  0  0  0
  8 13  1  0  0  0  0
  9 10  2  0  0  0  0
  9 17  1  0  0  0  0
 11 14  1  0  0  0  0
 11 15  1  0  0  0  0
 11 16  1  0  0  0  0
 17 18  1  0  0  0  0
 17 27  1  0  0  0  0
 18 19  1  0  0  0  0
 18 21  1  0  0  0  0
 18 28  1  0  0  0  0
 19 20  2  0  0  0  0
 19 35  1  0  0  0  0
 21 22  1  0  0  0  0
 21 29  1  0  0  0  0
 21 30  1  0  0  0  0
 22 23  1  0  0  0  0
 22 24  2  0  0  0  0
 23 25  2  0  0  0  0
 23 31  1  0  0  0  0
 24 26  1  0  0  0  0
 24 32  1  0  0  0  0
 25 26  1  0  0  0  0
 25 33  1  0  0  0  0
 26 34  1  0  0  0  0
 35 36  1  0  0  0  0
 35 40  1  0  0  0  0
 36 37  1  0  0  0  0
 36 39  1  0  0  0  0
 36 41  1  0  0  0  0
 37 38  2  0  0  0  0
 37 45  1  0  0  0  0
 39 42  1  0  0  0  0
 39 43  1  0  0  0  0
 39 44  1  0  0  0  0
 45 46  1  0  0  0  0
 45 47  1  0  0  0  0
 46 48  1  0  0  0  0
 46 49  1  0  0  0  0
 46 50  1  0  0  0  0
M  CHG  1  23   1
M  END
$$$$

  -OEChem-02062319093D

 50 50  0     1  0  0  0  0  0999 V2000
   -3.6259   -0.7884    1.0297 C   0  0  0  0  0  0  0  0  0  0  0  0
   -3.8763    0.1029    0.2186 O   0  0  0  0  0  0  0  0  0  0  0  0
   -4.6320   -1.8913    1.2907 C   0  0  0  0  0  0  0  0  0  0  0  0
   -4.2319   -2.8495    0.9483 H   0  0  0  0  0  0  0  0  0  0  0  0
   -4.8431   -1.9570    2.3611 H   0  0  0  0  0  0  0  0  0  0  0  0
   -5.5661   -1.6887    0.7601 H   0  0  0  0  0  0  0  0  0  0  0  0
   -2.3694   -0.8637    1.5955 N   0  0  0  0  0  0  0  0  0  0  0  0
   -1.2949    0.1228    1.4096 C   0  0  2  0  0  0  0  0  0  0  0  0
   -0.1651   -0.3920    0.4838 C   0  0  0  0  0  0  0  0  0  0  0  0
    1.0141   -0.2800    0.7761 O   0  0  0  0  0  0  0  0  0  0  0  0
   -0.7822    0.4729    2.8122 C   0  0  0  0  0  0  0  0  0  0  0  0
   -2.1255   -1.7377    2.0702 H   0  0  0  0  0  0  0  0  0  0  0  0
   -1.6867    1.0398    0.9592 H   0  0  0  0  0  0  0  0  0  0  0  0
   -0.3466   -0.4096    3.2929 H   0  0  0  0  0  0  0  0  0  0  0  0
   -0.0136    1.2503    2.7556 H   0  0  0  0  0  0  0  0  0  0  0  0
   -1.6001    0.8435    3.4378 H   0  0  0  0  0  0  0  0  0  0  0  0
   -0.2921   -0.5353   -0.8800 N   0  0  0  0  0  0  0  0  0  0  0  0
   -1.3007   -1.4163   -1.4876 C   0  0  2  0  0  0  0  0  0  0  0  0
   -1.1681   -2.8900   -1.0798 C   0  0  0  0  0  0  0  0  0  0  0  0
   -2.1995   -3.5284   -0.9158 O   0  0  0  0  0  0  0  0  0  0  0  0
   -1.4304   -1.1697   -2.9928 C   0  0  0  0  0  0  0  0  0  0  0  0
   -2.0197    0.2075   -3.2363 C   0  0  0  0  0  0  0  0  0  0  0  0
   -2.9665    0.8717   -2.4404 N   0  3  0  0  0  0  0  0  0  0  0  0
   -1.7116    1.0445   -4.2797 C   0  0  0  0  0  0  0  0  0  0  0  0
   -3.2351    2.0518   -2.9378 C   0  0  0  0  0  0  0  0  0  0  0  0
   -2.4756    2.1927   -4.0968 N   0  0  0  0  0  0  0  0  0  0  0  0
    0.6304   -0.5435   -1.3098 H   0  0  0  0  0  0  0  0  0  0  0  0
   -2.2643   -1.1479   -1.0767 H   0  0  0  0  0  0  0  0  0  0  0  0
   -2.1027   -1.9225   -3.4212 H   0  0  0  0  0  0  0  0  0  0  0  0
   -0.4580   -1.2735   -3.4850 H   0  0  0  0  0  0  0  0  0  0  0  0
   -3.3376    0.4922   -1.5537 H   0  0  0  0  0  0  0  0  0  0  0  0
   -1.0070    0.8425   -5.0865 H   0  0  0  0  0  0  0  0  0  0  0  0
   -3.9217    2.7840   -2.5088 H   0  0  0  0  0  0  0  0  0  0  0  0
   -2.4698    3.0144   -4.7084 H   0  0  0  0  0  0  0  0  0  0  0  0
    0.0514   -3.5367   -1.0450 N   0  0  0  0  0  0  0  0  0  0  0  0
    0.1752   -4.7341   -0.1935 C   0  0  2  0  0  0  0  0  0  0  0  0
   -0.2027   -4.4982    1.2993 C   0  0  0  0  0  0  0  0  0  0  0  0
   -0.4633   -3.3762    1.7324 O   0  0  0  0  0  0  0  0  0  0  0  0
    1.6248   -5.2177   -0.3007 C   0  0  0  0  0  0  0  0  0  0  0  0
    0.8505   -2.9081   -1.0375 H   0  0  0  0  0  0  0  0  0  0  0  0
   -0.4871   -5.5159   -0.5816 H   0  0  0  0  0  0  0  0  0  0  0  0
    2.3108   -4.4680    0.1074 H   0  0  0  0  0  0  0  0  0  0  0  0
    1.7632   -6.1507    0.2545 H   0  0  0  0  0  0  0  0  0  0  0  0
    1.8892   -5.4012   -1.3470 H   0  0  0  0  0  0  0  0  0  0  0  0
   -0.2857   -5.5705    2.1684 N   0  0  0  0  0  0  0  0  0  0  0  0
   -0.6441   -5.4403    3.5768 C   0  0  0  0  0  0  0  0  0  0  0  0
   -0.0992   -6.4974    1.7959 H   0  0  0  0  0  0  0  0  0  0  0  0
   -1.6561   -5.0350    3.6799 H   0  0  0  0  0  0  0  0  0  0  0  0
   -0.6127   -6.4179    4.0679 H   0  0  0  0  0  0  0  0  0  0  0  0
    0.0568   -4.7742    4.0915 H   0  0  0  0  0  0  0  0  0  0  0  0
  1  2  2  0  0  0  0
  1  3  1  0  0  0  0
  1  7  1  0  0  0  0
  3  4  1  0  0  0  0
  3  5  1  0  0  0  0
  3  6  1  0  0  0  0
  7  8  1  0  0  0  0
  7 12  1  0  0  0  0
  8  9  1  0  0  0  0
  8 11  1  0  0  0  0
  8 13  1  0  0  0  0
  9 10  2  0  0  0  0
  9 17  1  0  0  0  0
 11 14  1  0  0  0  0
 11 15  1  0  0  0  0
 11 16  1  0  0  0  0
 17 18  1  0  0  0  0
 17 27  1  0  0  0  0
 18 19  1  0  0  0  0
 18 21  1  0  0  0  0
 18 28  1  0  0  0  0
 19 20  2  0  0  0  0
 19 35  1  0  0  0  0
 21 22  1  0  0  0  0
 21 29  1  0  0  0  0
 21 30  1  0  0  0  0
 22 23  1  0  0  0  0
 22 24  2  0  0  0  0
 23 25  2  0  0  0  0
 23 31  1  0  0  0  0
 24 26  1  0  0  0  0
 24 32  1  0  0  0  0
 25 26  1  0  0  0  0
 25 33  1  0  0  0  0
 26 34  1  0  0  0  0
 35 36  1  0  0  0  0
 35 40  1  0  0  0  0
 36 37  1  0  0  0  0
 36 39  1  0  0  0  0
 36 41  1  0  0  0  0
 37 38  2  0  0  0  0
 37 45  1  0  0  0  0
 39 42  1  0  0  0  0
 39 43  1  0  0  0  0
 39 44  1  0  0  0  0
 45 46  1  0  0  0  0
 45 47  1  0  0  0  0
 46 48  1  0  0  0  0
 46 49  1  0  0  0  0
 46 50  1  0  0  0  0
M  CHG  1  23   1
M  END
$$$$

  -OEChem-02062319093D

 50 50  0     1  0  0  0  0  0999 V2000
   -2.9034   -1.6386    2.7162 C   0  0  0  0  0  0  0  0  0  0  0  0
   -3.4464   -2.0399    1.6991 O   0  0  0  0  0  0  0  0  0  0  0  0
   -2.9196   -2.4721    3.9819 C   0  0  0  0  0  0  0  0  0  0  0  0
   -2.9316   -1.8260    4.8630 H   0  0  0  0  0  0  0  0  0  0  0  0
   -3.8116   -3.1033    4.0025 H   0  0  0  0  0  0  0  0  0  0  0  0
   -2.0310   -3.1079    4.0184 H   0  0  0  0  0  0  0  0  0  0  0  0
   -2.2337   -0.4338    2.6841 N   0  0  0  0  0  0  0  0  0  0  0  0
   -2.0211    0.3302    1.4494 C   0  0  2  0  0  0  0  0  0  0  0  0
   -0.7067   -0.0873    0.7542 C   0  0  0  0  0  0  0  0  0  0  0  0
    0.3660   -0.0056    1.3277 O   0  0  0  0  0  0  0  0  0  0  0  0
   -1.9981    1.8149    1.8220 C   0  0  0  0  0  0  0  0  0  0  0  0
   -1.6525   -0.2141    3.4905 H   0  0  0  0  0  0  0  0  0  0  0  0
   -2.8549    0.1736    0.7588 H   0  0  0  0  0  0  0  0  0  0  0  0
   -1.1841    2.0250    2.5239 H   0  0  0  0  0  0  0  0  0  0  0  0
   -1.8528    2.4307    0.9294 H   0  0  0  0  0  0  0  0  0  0  0  0
   -2.9443    2.1024    2.2912 H   0  0  0  0  0  0  0  0  0  0  0  0
   -0.5540   -0.3165   -0.5954 N   0  0  0  0  0  0  0  0  0  0  0  0
   -1.5031   -1.0998   -1.4053 C   0  0  2  0  0  0  0  0  0  0  0  0
   -1.6837   -2.5606   -0.9468 C   0  0  0  0  0  0  0  0  0  0  0  0
   -2.7160   -3.1275   -1.2763 O   0  0  0  0  0  0  0  0  0  0  0  0
   -1.0772   -1.0741   -2.8836 C   0  0  0  0  0  0  0  0  0  0  0  0
   -1.3391    0.2801   -3.4950 C   0  0  0  0  0  0  0  0  0  0  0  0
   -2.5934    0.7830   -3.8474 N   0  3  0  0  0  0  0  0  0  0  0  0
   -0.4035    1.2237   -3.8383 C   0  0  0  0  0  0  0  0  0  0  0  0
   -2.4718    1.9764   -4.3769 C   0  0  0  0  0  0  0  0  0  0  0  0
   -1.1134    2.2879   -4.3835 N   0  0  0  0  0  0  0  0  0  0  0  0
    0.4333   -0.4225   -0.8209 H   0  0  0  0  0  0  0  0  0  0  0  0
   -2.4937   -0.6401   -1.3236 H   0  0  0  0  0  0  0  0  0  0  0  0
   -1.6391   -1.8293   -3.4467 H   0  0  0  0  0  0  0  0  0  0  0  0
   -0.0169   -1.3356   -2.9675 H   0  0  0  0  0  0  0  0  0  0  0  0
   -3.4632    0.2577   -3.7141 H   0  0  0  0  0  0  0  0  0  0  0  0
    0.6763    1.1464   -3.7078 H   0  0  0  0  0  0  0  0  0  0  0  0
   -3.2829    2.6065   -4.7484 H   0  0  0  0  0  0  0  0  0  0  0  0
   -0.7013    3.1556   -4.7414 H   0  0  0  0  0  0  0  0  0  0  0  0
   -0.5833   -3.3305   -0.6162 N   0  0  0  0  0  0  0  0  0  0  0  0
   -0.6427   -4.7892   -0.4295 C   0  0  2  0  0  0  0  0  0  0  0  0
   -1.3617   -5.2080    0.8763 C   0  0  0  0  0  0  0  0  0  0  0  0
   -0.7470   -5.7013    1.8126 O   0  0  0  0  0  0  0  0  0  0  0  0
    0.7949   -5.3208   -0.5050 C   0  0  0  0  0  0  0  0  0  0  0  0
    0.2143   -2.8391   -0.2193 H   0  0  0  0  0  0  0  0  0  0  0  0
   -1.2032   -5.2397   -1.2555 H   0  0  0  0  0  0  0  0  0  0  0  0
    1.4055   -4.9015    0.3013 H   0  0  0  0  0  0  0  0  0  0  0  0
    0.7999   -6.4117   -0.4070 H   0  0  0  0  0  0  0  0  0  0  0  0
    1.2515   -5.0595   -1.4645 H   0  0  0  0  0  0  0  0  0  0  0  0
   -2.7291   -5.0542    0.9760 N   0  0  0  0  0  0  0  0  0  0  0  0
   -3.5247   -5.5179    2.1050 C   0  0  0  0  0  0  0  0  0  0  0  0
   -3.1796   -4.4929    0.2494 H   0  0  0  0  0  0  0  0  0  0  0  0
   -3.6631   -6.6025    2.0513 H   0  0  0  0  0  0  0  0  0  0  0  0
   -3.0370   -5.2751    3.0542 H   0  0  0  0  0  0  0  0  0  0  0  0
   -4.5083   -5.0385    2.0925 H   0  0  0  0  0  0  0  0  0  0  0  0
  1  2  2  0  0  0  0
  1  3  1  0  0  0  0
  1  7  1  0  0  0  0
  3  4  1  0  0  0  0
  3  5  1  0  0  0  0
  3  6  1  0  0  0  0
  7  8  1  0  0  0  0
  7 12  1  0  0  0  0
  8  9  1  0  0  0  0
  8 11  1  0  0  0  0
  8 13  1  0  0  0  0
  9 10  2  0  0  0  0
  9 17  1  0  0  0  0
 11 14  1  0  0  0  0
 11 15  1  0  0  0  0
 11 16  1  0  0  0  0
 17 18  1  0  0  0  0
 17 27  1  0  0  0  0
 18 19  1  0  0  0  0
 18 21  1  0  0  0  0
 18 28  1  0  0  0  0
 19 20  2  0  0  0  0
 19 35  1  0  0  0  0
 21 22  1  0  0  0  0
 21 29  1  0  0  0  0
 21 30  1  0  0  0  0
 22 23  1  0  0  0  0
 22 24  2  0  0  0  0
 23 25  2  0  0  0  0
 23 31  1  0  0  0  0
 24 26  1  0  0  0  0
 24 32  1  0  0  0  0
 25 26  1  0  0  0  0
 25 33  1  0  0  0  0
 26 34  1  0  0  0  0
 35 36  1  0  0  0  0
 35 40  1  0  0  0  0
 36 37  1  0  0  0  0
 36 39  1  0  0  0  0
 36 41  1  0  0  0  0
 37 38  2  0  0  0  0
 37 45  1  0  0  0  0
 39 42  1  0  0  0  0
 39 43  1  0  0  0  0
 39 44  1  0  0  0  0
 45 46  1  0  0  0  0
 45 47  1  0  0  0  0
 46 48  1  0  0  0  0
 46 49  1  0  0  0  0
 46 50  1  0  0  0  0
M  CHG  1  23   1
M  END
$$$$

  -OEChem-02062319093D

 50 50  0     1  0  0  0  0  0999 V2000
   -1.9079   -1.4609    2.8212 C   0  0  0  0  0  0  0  0  0  0  0  0
   -1.0867   -2.0133    2.1000 O   0  0  0  0  0  0  0  0  0  0  0  0
   -2.4231   -2.1941    4.0449 C   0  0  0  0  0  0  0  0  0  0  0  0
   -3.5107   -2.2870    3.9910 H   0  0  0  0  0  0  0  0  0  0  0  0
   -1.9924   -3.1983    4.0898 H   0  0  0  0  0  0  0  0  0  0  0  0
   -2.1505   -1.6513    4.9530 H   0  0  0  0  0  0  0  0  0  0  0  0
   -2.3713   -0.1743    2.5679 N   0  0  0  0  0  0  0  0  0  0  0  0
   -2.0362    0.7001    1.4212 C   0  0  2  0  0  0  0  0  0  0  0  0
   -0.7525    0.2828    0.6619 C   0  0  0  0  0  0  0  0  0  0  0  0
    0.3573    0.5984    1.0629 O   0  0  0  0  0  0  0  0  0  0  0  0
   -1.9125    2.1290    1.9627 C   0  0  0  0  0  0  0  0  0  0  0  0
   -3.0465    0.1766    3.2412 H   0  0  0  0  0  0  0  0  0  0  0  0
   -2.8686    0.6699    0.7142 H   0  0  0  0  0  0  0  0  0  0  0  0
   -1.1243    2.1849    2.7214 H   0  0  0  0  0  0  0  0  0  0  0  0
   -1.6632    2.8232    1.1545 H   0  0  0  0  0  0  0  0  0  0  0  0
   -2.8552    2.4495    2.4167 H   0  0  0  0  0  0  0  0  0  0  0  0
   -0.7000   -0.0775   -0.6643 N   0  0  0  0  0  0  0  0  0  0  0  0
   -1.7793   -0.7117   -1.4416 C   0  0  2  0  0  0  0  0  0  0  0  0
   -2.3195   -2.0785   -0.9676 C   0  0  0  0  0  0  0  0  0  0  0  0
   -3.4138   -2.3676   -1.4350 O   0  0  0  0  0  0  0  0  0  0  0  0
   -1.2886   -0.8661   -2.8944 C   0  0  0  0  0  0  0  0  0  0  0  0
   -0.9886    0.4741   -3.5219 C   0  0  0  0  0  0  0  0  0  0  0  0
   -1.9325    1.4245   -3.9143 N   0  3  0  0  0  0  0  0  0  0  0  0
    0.2530    0.9734   -3.8274 C   0  0  0  0  0  0  0  0  0  0  0  0
   -1.3350    2.4719   -4.4294 C   0  0  0  0  0  0  0  0  0  0  0  0
    0.0361    2.2259   -4.3895 N   0  0  0  0  0  0  0  0  0  0  0  0
    0.2586   -0.2717   -0.9421 H   0  0  0  0  0  0  0  0  0  0  0  0
   -2.6388   -0.0342   -1.4391 H   0  0  0  0  0  0  0  0  0  0  0  0
   -2.0514   -1.3775   -3.4935 H   0  0  0  0  0  0  0  0  0  0  0  0
   -0.3944   -1.4993   -2.9079 H   0  0  0  0  0  0  0  0  0  0  0  0
   -2.9413    1.2858   -3.8052 H   0  0  0  0  0  0  0  0  0  0  0  0
    1.2117    0.4833   -3.6545 H   0  0  0  0  0  0  0  0  0  0  0  0
   -1.8207    3.3690   -4.8187 H   0  0  0  0  0  0  0  0  0  0  0  0
    0.7682    2.8639   -4.7171 H   0  0  0  0  0  0  0  0  0  0  0  0
   -1.4870   -3.1048   -0.5659 N   0  0  0  0  0  0  0  0  0  0  0  0
   -1.9956   -4.4819   -0.4237 C   0  0  2  0  0  0  0  0  0  0  0  0
   -3.1469   -4.6792    0.6005 C   0  0  0  0  0  0  0  0  0  0  0  0
   -3.4137   -3.8417    1.4539 O   0  0  0  0  0  0  0  0  0  0  0  0
   -0.7992   -5.3480   -0.0208 C   0  0  0  0  0  0  0  0  0  0  0  0
   -0.8429   -2.8057    0.1725 H   0  0  0  0  0  0  0  0  0  0  0  0
   -2.3664   -4.8194   -1.3967 H   0  0  0  0  0  0  0  0  0  0  0  0
   -0.4165   -5.0368    0.9572 H   0  0  0  0  0  0  0  0  0  0  0  0
   -1.0883   -6.4015    0.0405 H   0  0  0  0  0  0  0  0  0  0  0  0
    0.0060   -5.2543   -0.7560 H   0  0  0  0  0  0  0  0  0  0  0  0
   -3.8930   -5.8442    0.5760 N   0  0  0  0  0  0  0  0  0  0  0  0
   -4.9893   -6.1128    1.5003 C   0  0  0  0  0  0  0  0  0  0  0  0
   -3.6897   -6.5212   -0.1526 H   0  0  0  0  0  0  0  0  0  0  0  0
   -4.6255   -6.1242    2.5333 H   0  0  0  0  0  0  0  0  0  0  0  0
   -5.7650   -5.3451    1.4086 H   0  0  0  0  0  0  0  0  0  0  0  0
   -5.4396   -7.0862    1.2826 H   0  0  0  0  0  0  0  0  0  0  0  0
  1  2  2  0  0  0  0
  1  3  1  0  0  0  0
  1  7  1  0  0  0  0
  3  4  1  0  0  0  0
  3  5  1  0  0  0  0
  3  6  1  0  0  0  0
  7  8  1  0  0  0  0
  7 12  1  0  0  0  0
  8  9  1  0  0  0  0
  8 11  1  0  0  0  0
  8 13  1  0  0  0  0
  9 10  2  0  0  0  0
  9 17  1  0  0  0  0
 11 14  1  0  0  0  0
 11 15  1  0  0  0  0
 11 16  1  0  0  0  0
 17 18  1  0  0  0  0
 17 27  1  0  0  0  0
 18 19  1  0  0  0  0
 18 21  1  0  0  0  0
 18 28  1  0  0  0  0
 19 20  2  0  0  0  0
 19 35  1  0  0  0  0
 21 22  1  0  0  0  0
 21 29  1  0  0  0  0
 21 30  1  0  0  0  0
 22 23  1  0  0  0  0
 22 24  2  0  0  0  0
 23 25  2  0  0  0  0
 23 31  1  0  0  0  0
 24 26  1  0  0  0  0
 24 32  1  0  0  0  0
 25 26  1  0  0  0  0
 25 33  1  0  0  0  0
 26 34  1  0  0  0  0
 35 36  1  0  0  0  0
 35 40  1  0  0  0  0
 36 37  1  0  0  0  0
 36 39  1  0  0  0  0
 36 41  1  0  0  0  0
 37 38  2  0  0  0  0
 37 45  1  0  0  0  0
 39 42  1  0  0  0  0
 39 43  1  0  0  0  0
 39 44  1  0  0  0  0
 45 46  1  0  0  0  0
 45 47  1  0  0  0  0
 46 48  1  0  0  0  0
 46 49  1  0  0  0  0
 46 50  1  0  0  0  0
M  CHG  1  23   1
M  END
$$$$

  -OEChem-02062319093D

 50 50  0     1  0  0  0  0  0999 V2000
   -1.9607   -1.5222    2.7840 C   0  0  0  0  0  0  0  0  0  0  0  0
   -1.2998   -2.1208    1.9427 O   0  0  0  0  0  0  0  0  0  0  0  0
   -2.3974   -2.2580    4.0357 C   0  0  0  0  0  0  0  0  0  0  0  0
   -3.4869   -2.3434    4.0512 H   0  0  0  0  0  0  0  0  0  0  0  0
   -1.9677   -3.2633    4.0513 H   0  0  0  0  0  0  0  0  0  0  0  0
   -2.0647   -1.7184    4.9255 H   0  0  0  0  0  0  0  0  0  0  0  0
   -2.3197   -0.1895    2.6286 N   0  0  0  0  0  0  0  0  0  0  0  0
   -2.0965    0.6465    1.4319 C   0  0  2  0  0  0  0  0  0  0  0  0
   -0.7987    0.2867    0.6680 C   0  0  0  0  0  0  0  0  0  0  0  0
    0.3080    0.5438    1.1168 O   0  0  0  0  0  0  0  0  0  0  0  0
   -2.0620    2.1080    1.8889 C   0  0  0  0  0  0  0  0  0  0  0  0
   -2.9072    0.1894    3.3655 H   0  0  0  0  0  0  0  0  0  0  0  0
   -2.9465    0.5113    0.7580 H   0  0  0  0  0  0  0  0  0  0  0  0
   -1.2458    2.2684    2.6016 H   0  0  0  0  0  0  0  0  0  0  0  0
   -1.9091    2.7715    1.0326 H   0  0  0  0  0  0  0  0  0  0  0  0
   -3.0050    2.3798    2.3729 H   0  0  0  0  0  0  0  0  0  0  0  0
   -0.7369   -0.0606   -0.6621 N   0  0  0  0  0  0  0  0  0  0  0  0
   -1.8517   -0.4473   -1.5428 C   0  0  2  0  0  0  0  0  0  0  0  0
   -2.6893   -1.6825   -1.1484 C   0  0  0  0  0  0  0  0  0  0  0  0
   -3.8019   -1.7239   -1.6572 O   0  0  0  0  0  0  0  0  0  0  0  0
   -1.2931   -0.6820   -2.9595 C   0  0  0  0  0  0  0  0  0  0  0  0
   -0.5752    0.5375   -3.4882 C   0  0  0  0  0  0  0  0  0  0  0  0
   -1.1553    1.7725   -3.7833 N   0  3  0  0  0  0  0  0  0  0  0  0
    0.7640    0.6314   -3.7758 C   0  0  0  0  0  0  0  0  0  0  0  0
   -0.2450    2.6101   -4.2184 C   0  0  0  0  0  0  0  0  0  0  0  0
    0.9710    1.9299   -4.2264 N   0  0  0  0  0  0  0  0  0  0  0  0
    0.2131   -0.2711   -0.9555 H   0  0  0  0  0  0  0  0  0  0  0  0
   -2.5517    0.3936   -1.5807 H   0  0  0  0  0  0  0  0  0  0  0  0
   -2.1138   -0.9386   -3.6399 H   0  0  0  0  0  0  0  0  0  0  0  0
   -0.6115   -1.5399   -2.9404 H   0  0  0  0  0  0  0  0  0  0  0  0
   -2.1547    1.9611   -3.6656 H   0  0  0  0  0  0  0  0  0  0  0  0
    1.5103   -0.1563   -3.6657 H   0  0  0  0  0  0  0  0  0  0  0  0
   -0.4083    3.6470   -4.5192 H   0  0  0  0  0  0  0  0  0  0  0  0
    1.8735    2.3222   -4.5130 H   0  0  0  0  0  0  0  0  0  0  0  0
   -2.1192   -2.8621   -0.7120 N   0  0  0  0  0  0  0  0  0  0  0  0
   -2.9420   -4.0725   -0.5337 C   0  0  2  0  0  0  0  0  0  0  0  0
   -4.0998   -3.9500    0.4946 C   0  0  0  0  0  0  0  0  0  0  0  0
   -4.1556   -3.0368    1.3107 O   0  0  0  0  0  0  0  0  0  0  0  0
   -1.9892   -5.1913   -0.1041 C   0  0  0  0  0  0  0  0  0  0  0  0
   -1.4117   -2.7102    0.0144 H   0  0  0  0  0  0  0  0  0  0  0  0
   -3.3896   -4.3379   -1.4971 H   0  0  0  0  0  0  0  0  0  0  0  0
   -1.5318   -4.9516    0.8621 H   0  0  0  0  0  0  0  0  0  0  0  0
   -2.5258   -6.1400   -0.0070 H   0  0  0  0  0  0  0  0  0  0  0  0
   -1.1936   -5.3200   -0.8443 H   0  0  0  0  0  0  0  0  0  0  0  0
   -5.1009   -4.9045    0.5130 N   0  0  0  0  0  0  0  0  0  0  0  0
   -6.2354   -4.8594    1.4286 C   0  0  0  0  0  0  0  0  0  0  0  0
   -5.0724   -5.6311   -0.1956 H   0  0  0  0  0  0  0  0  0  0  0  0
   -5.8896   -4.8637    2.4677 H   0  0  0  0  0  0  0  0  0  0  0  0
   -6.8292   -3.9552    1.2584 H   0  0  0  0  0  0  0  0  0  0  0  0
   -6.8804   -5.7302    1.2767 H   0  0  0  0  0  0  0  0  0  0  0  0
  1  2  2  0  0  0  0
  1  3  1  0  0  0  0
  1  7  1  0  0  0  0
  3  4  1  0  0  0  0
  3  5  1  0  0  0  0
  3  6  1  0  0  0  0
  7  8  1  0  0  0  0
  7 12  1  0  0  0  0
  8  9  1  0  0  0  0
  8 11  1  0  0  0  0
  8 13  1  0  0  0  0
  9 10  2  0  0  0  0
  9 17  1  0  0  0  0
 11 14  1  0  0  0  0
 11 15  1  0  0  0  0
 11 16  1  0  0  0  0
 17 18  1  0  0  0  0
 17 27  1  0  0  0  0
 18 19  1  0  0  0  0
 18 21  1  0  0  0  0
 18 28  1  0  0  0  0
 19 20  2  0  0  0  0
 19 35  1  0  0  0  0
 21 22  1  0  0  0  0
 21 29  1  0  0  0  0
 21 30  1  0  0  0  0
 22 23  1  0  0  0  0
 22 24  2  0  0  0  0
 23 25  2  0  0  0  0
 23 31  1  0  0  0  0
 24 26  1  0  0  0  0
 24 32  1  0  0  0  0
 25 26  1  0  0  0  0
 25 33  1  0  0  0  0
 26 34  1  0  0  0  0
 35 36  1  0  0  0  0
 35 40  1  0  0  0  0
 36 37  1  0  0  0  0
 36 39  1  0  0  0  0
 36 41  1  0  0  0  0
 37 38  2  0  0  0  0
 37 45  1  0  0  0  0
 39 42  1  0  0  0  0
 39 43  1  0  0  0  0
 39 44  1  0  0  0  0
 45 46  1  0  0  0  0
 45 47  1  0  0  0  0
 46 48  1  0  0  0  0
 46 49  1  0  0  0  0
 46 50  1  0  0  0  0
M  CHG  1  23   1
M  END
$$$$

  -OEChem-02062319093D

 50 50  0     1  0  0  0  0  0999 V2000
   -2.0300   -1.5747    2.7265 C   0  0  0  0  0  0  0  0  0  0  0  0
   -1.5364   -2.1939    1.7902 O   0  0  0  0  0  0  0  0  0  0  0  0
   -2.4693   -2.3302    3.9658 C   0  0  0  0  0  0  0  0  0  0  0  0
   -2.1590   -3.3765    3.9004 H   0  0  0  0  0  0  0  0  0  0  0  0
   -2.0201   -1.8852    4.8569 H   0  0  0  0  0  0  0  0  0  0  0  0
   -3.5582   -2.2917    4.0536 H   0  0  0  0  0  0  0  0  0  0  0  0
   -2.2088   -0.2010    2.6737 N   0  0  0  0  0  0  0  0  0  0  0  0
   -2.0206    0.6344    1.4743 C   0  0  2  0  0  0  0  0  0  0  0  0
   -0.7365    0.2776    0.6849 C   0  0  0  0  0  0  0  0  0  0  0  0
    0.3808    0.4432    1.1499 O   0  0  0  0  0  0  0  0  0  0  0  0
   -1.9736    2.0952    1.9309 C   0  0  0  0  0  0  0  0  0  0  0  0
   -2.6973    0.2080    3.4644 H   0  0  0  0  0  0  0  0  0  0  0  0
   -2.8886    0.5011    0.8239 H   0  0  0  0  0  0  0  0  0  0  0  0
   -1.1392    2.2541    2.6226 H   0  0  0  0  0  0  0  0  0  0  0  0
   -1.8428    2.7595    1.0716 H   0  0  0  0  0  0  0  0  0  0  0  0
   -2.9041    2.3669    2.4388 H   0  0  0  0  0  0  0  0  0  0  0  0
   -0.6928   -0.0751   -0.6457 N   0  0  0  0  0  0  0  0  0  0  0  0
   -1.8041   -0.1881   -1.6042 C   0  0  2  0  0  0  0  0  0  0  0  0
   -2.9287   -1.1922   -1.2795 C   0  0  0  0  0  0  0  0  0  0  0  0
   -4.0075   -0.9562   -1.8068 O   0  0  0  0  0  0  0  0  0  0  0  0
   -1.2259   -0.5463   -2.9855 C   0  0  0  0  0  0  0  0  0  0  0  0
   -0.2129    0.4751   -3.4470 C   0  0  0  0  0  0  0  0  0  0  0  0
   -0.4676    1.8169   -3.7368 N   0  3  0  0  0  0  0  0  0  0  0  0
    1.1243    0.2525   -3.6645 C   0  0  0  0  0  0  0  0  0  0  0  0
    0.6372    2.4204   -4.1034 C   0  0  0  0  0  0  0  0  0  0  0  0
    1.6563    1.4707   -4.0704 N   0  0  0  0  0  0  0  0  0  0  0  0
    0.2503   -0.2857   -0.9591 H   0  0  0  0  0  0  0  0  0  0  0  0
   -2.2848    0.7936   -1.6694 H   0  0  0  0  0  0  0  0  0  0  0  0
   -2.0385   -0.6057   -3.7195 H   0  0  0  0  0  0  0  0  0  0  0  0
   -0.7634   -1.5387   -2.9362 H   0  0  0  0  0  0  0  0  0  0  0  0
   -1.3976    2.2379   -3.6572 H   0  0  0  0  0  0  0  0  0  0  0  0
    1.6569   -0.6907   -3.5362 H   0  0  0  0  0  0  0  0  0  0  0  0
    0.7406    3.4712   -4.3820 H   0  0  0  0  0  0  0  0  0  0  0  0
    2.6403    1.6419   -4.3003 H   0  0  0  0  0  0  0  0  0  0  0  0
   -2.6756   -2.4707   -0.8242 N   0  0  0  0  0  0  0  0  0  0  0  0
   -3.7779   -3.4294   -0.6344 C   0  0  2  0  0  0  0  0  0  0  0  0
   -4.8437   -3.0036    0.4103 C   0  0  0  0  0  0  0  0  0  0  0  0
   -4.6206   -2.1361    1.2482 O   0  0  0  0  0  0  0  0  0  0  0  0
   -3.1460   -4.7602   -0.2169 C   0  0  0  0  0  0  0  0  0  0  0  0
   -1.9366   -2.5075   -0.1137 H   0  0  0  0  0  0  0  0  0  0  0  0
   -4.2924   -3.5685   -1.5908 H   0  0  0  0  0  0  0  0  0  0  0  0
   -2.6347   -4.6549    0.7461 H   0  0  0  0  0  0  0  0  0  0  0  0
   -3.9113   -5.5364   -0.1189 H   0  0  0  0  0  0  0  0  0  0  0  0
   -2.4169   -5.0876   -0.9645 H   0  0  0  0  0  0  0  0  0  0  0  0
   -6.0814   -3.6211    0.4177 N   0  0  0  0  0  0  0  0  0  0  0  0
   -7.1535   -3.2559    1.3368 C   0  0  0  0  0  0  0  0  0  0  0  0
   -6.2736   -4.2999   -0.3129 H   0  0  0  0  0  0  0  0  0  0  0  0
   -6.8393   -3.4129    2.3741 H   0  0  0  0  0  0  0  0  0  0  0  0
   -7.4276   -2.2035    1.2069 H   0  0  0  0  0  0  0  0  0  0  0  0
   -8.0401   -3.8693    1.1484 H   0  0  0  0  0  0  0  0  0  0  0  0
  1  2  2  0  0  0  0
  1  3  1  0  0  0  0
  1  7  1  0  0  0  0
  3  4  1  0  0  0  0
  3  5  1  0  0  0  0
  3  6  1  0  0  0  0
  7  8  1  0  0  0  0
  7 12  1  0  0  0  0
  8  9  1  0  0  0  0
  8 11  1  0  0  0  0
  8 13  1  0  0  0  0
  9 10  2  0  0  0  0
  9 17  1  0  0  0  0
 11 14  1  0  0  0  0
 11 15  1  0  0  0  0
 11 16  1  0  0  0  0
 17 18  1  0  0  0  0
 17 27  1  0  0  0  0
 18 19  1  0  0  0  0
 18 21  1  0  0  0  0
 18 28  1  0  0  0  0
 19 20  2  0  0  0  0
 19 35  1  0  0  0  0
 21 22  1  0  0  0  0
 21 29  1  0  0  0  0
 21 30  1  0  0  0  0
 22 23  1  0  0  0  0
 22 24  2  0  0  0  0
 23 25  2  0  0  0  0
 23 31  1  0  0  0  0
 24 26  1  0  0  0  0
 24 32  1  0  0  0  0
 25 26  1  0  0  0  0
 25 33  1  0  0  0  0
 26 34  1  0  0  0  0
 35 36  1  0  0  0  0
 35 40  1  0  0  0  0
 36 37  1  0  0  0  0
 36 39  1  0  0  0  0
 36 41  1  0  0  0  0
 37 38  2  0  0  0  0
 37 45  1  0  0  0  0
 39 42  1  0  0  0  0
 39 43  1  0  0  0  0
 39 44  1  0  0  0  0
 45 46  1  0  0  0  0
 45 47  1  0  0  0  0
 46 48  1  0  0  0  0
 46 49  1  0  0  0  0
 46 50  1  0  0  0  0
M  CHG  1  23   1
M  END
$$$$

  -OEChem-02062319093D

 50 50  0     1  0  0  0  0  0999 V2000
   -2.1304   -1.5317    2.6005 C   0  0  0  0  0  0  0  0  0  0  0  0
   -1.7451   -2.1201    1.5964 O   0  0  0  0  0  0  0  0  0  0  0  0
   -2.5990   -2.3334    3.7990 C   0  0  0  0  0  0  0  0  0  0  0  0
   -2.4526   -3.4020    3.6197 H   0  0  0  0  0  0  0  0  0  0  0  0
   -2.0331   -2.0452    4.6880 H   0  0  0  0  0  0  0  0  0  0  0  0
   -3.6620   -2.1485    3.9738 H   0  0  0  0  0  0  0  0  0  0  0  0
   -2.1678   -0.1489    2.6538 N   0  0  0  0  0  0  0  0  0  0  0  0
   -1.9806    0.7342    1.4911 C   0  0  2  0  0  0  0  0  0  0  0  0
   -0.7066    0.3935    0.6772 C   0  0  0  0  0  0  0  0  0  0  0  0
    0.4159    0.5113    1.1453 O   0  0  0  0  0  0  0  0  0  0  0  0
   -1.9078    2.1719    2.0125 C   0  0  0  0  0  0  0  0  0  0  0  0
   -2.6070    0.2453    3.4802 H   0  0  0  0  0  0  0  0  0  0  0  0
   -2.8584    0.6500    0.8473 H   0  0  0  0  0  0  0  0  0  0  0  0
   -1.0657    2.2884    2.7031 H   0  0  0  0  0  0  0  0  0  0  0  0
   -1.7754    2.8724    1.1824 H   0  0  0  0  0  0  0  0  0  0  0  0
   -2.8303    2.4329    2.5403 H   0  0  0  0  0  0  0  0  0  0  0  0
   -0.6714   -0.0032   -0.6428 N   0  0  0  0  0  0  0  0  0  0  0  0
   -1.7281    0.0865   -1.6646 C   0  0  2  0  0  0  0  0  0  0  0  0
   -3.0560   -0.6504   -1.3942 C   0  0  0  0  0  0  0  0  0  0  0  0
   -4.0499   -0.1850   -1.9341 O   0  0  0  0  0  0  0  0  0  0  0  0
   -1.1609   -0.4289   -2.9999 C   0  0  0  0  0  0  0  0  0  0  0  0
    0.1128    0.2886   -3.3822 C   0  0  0  0  0  0  0  0  0  0  0  0
    0.2486    1.6523   -3.6495 N   0  3  0  0  0  0  0  0  0  0  0  0
    1.3518   -0.2853   -3.5247 C   0  0  0  0  0  0  0  0  0  0  0  0
    1.4973    1.9381   -3.9293 C   0  0  0  0  0  0  0  0  0  0  0  0
    2.2183    0.7476   -3.8630 N   0  0  0  0  0  0  0  0  0  0  0  0
    0.2761   -0.2038   -0.9488 H   0  0  0  0  0  0  0  0  0  0  0  0
   -1.9867    1.1446   -1.7769 H   0  0  0  0  0  0  0  0  0  0  0  0
   -1.9070   -0.2916   -3.7916 H   0  0  0  0  0  0  0  0  0  0  0  0
   -0.9711   -1.5053   -2.9182 H   0  0  0  0  0  0  0  0  0  0  0  0
   -0.5351    2.3100   -3.6092 H   0  0  0  0  0  0  0  0  0  0  0  0
    1.6006   -1.3387   -3.3876 H   0  0  0  0  0  0  0  0  0  0  0  0
    1.8991    2.9253   -4.1673 H   0  0  0  0  0  0  0  0  0  0  0  0
    3.2260    0.6492   -4.0239 H   0  0  0  0  0  0  0  0  0  0  0  0
   -3.1020   -1.9400   -0.9036 N   0  0  0  0  0  0  0  0  0  0  0  0
   -4.3893   -2.6286   -0.7088 C   0  0  2  0  0  0  0  0  0  0  0  0
   -5.3057   -1.9859    0.3637 C   0  0  0  0  0  0  0  0  0  0  0  0
   -4.8504   -1.2791    1.2563 O   0  0  0  0  0  0  0  0  0  0  0  0
   -4.0757   -4.0767   -0.3242 C   0  0  0  0  0  0  0  0  0  0  0  0
   -2.3723   -2.1511   -0.2133 H   0  0  0  0  0  0  0  0  0  0  0  0
   -4.9376   -2.6290   -1.6565 H   0  0  0  0  0  0  0  0  0  0  0  0
   -3.5304   -4.1116    0.6249 H   0  0  0  0  0  0  0  0  0  0  0  0
   -4.9992   -4.6536   -0.2134 H   0  0  0  0  0  0  0  0  0  0  0  0
   -3.4624   -4.5520   -1.0959 H   0  0  0  0  0  0  0  0  0  0  0  0
   -6.6678   -2.2247    0.3427 N   0  0  0  0  0  0  0  0  0  0  0  0
   -7.6007   -1.6199    1.2875 C   0  0  0  0  0  0  0  0  0  0  0  0
   -7.0407   -2.7549   -0.4393 H   0  0  0  0  0  0  0  0  0  0  0  0
   -7.3267   -1.8772    2.3162 H   0  0  0  0  0  0  0  0  0  0  0  0
   -7.5975   -0.5296    1.1844 H   0  0  0  0  0  0  0  0  0  0  0  0
   -8.6169   -1.9820    1.1028 H   0  0  0  0  0  0  0  0  0  0  0  0
  1  2  2  0  0  0  0
  1  3  1  0  0  0  0
  1  7  1  0  0  0  0
  3  4  1  0  0  0  0
  3  5  1  0  0  0  0
  3  6  1  0  0  0  0
  7  8  1  0  0  0  0
  7 12  1  0  0  0  0
  8  9  1  0  0  0  0
  8 11  1  0  0  0  0
  8 13  1  0  0  0  0
  9 10  2  0  0  0  0
  9 17  1  0  0  0  0
 11 14  1  0  0  0  0
 11 15  1  0  0  0  0
 11 16  1  0  0  0  0
 17 18  1  0  0  0  0
 17 27  1  0  0  0  0
 18 19  1  0  0  0  0
 18 21  1  0  0  0  0
 18 28  1  0  0  0  0
 19 20  2  0  0  0  0
 19 35  1  0  0  0  0
 21 22  1  0  0  0  0
 21 29  1  0  0  0  0
 21 30  1  0  0  0  0
 22 23  1  0  0  0  0
 22 24  2  0  0  0  0
 23 25  2  0  0  0  0
 23 31  1  0  0  0  0
 24 26  1  0  0  0  0
 24 32  1  0  0  0  0
 25 26  1  0  0  0  0
 25 33  1  0  0  0  0
 26 34  1  0  0  0  0
 35 36  1  0  0  0  0
 35 40  1  0  0  0  0
 36 37  1  0  0  0  0
 36 39  1  0  0  0  0
 36 41  1  0  0  0  0
 37 38  2  0  0  0  0
 37 45  1  0  0  0  0
 39 42  1  0  0  0  0
 39 43  1  0  0  0  0
 39 44  1  0  0  0  0
 45 46  1  0  0  0  0
 45 47  1  0  0  0  0
 46 48  1  0  0  0  0
 46 49  1  0  0  0  0
 46 50  1  0  0  0  0
M  CHG  1  23   1
M  END
$$$$

  -OEChem-02062319093D

 50 50  0     1  0  0  0  0  0999 V2000
   -2.2192   -1.4567    2.4747 C   0  0  0  0  0  0  0  0  0  0  0  0
   -1.9308   -1.9984    1.4135 O   0  0  0  0  0  0  0  0  0  0  0  0
   -2.7501   -2.2944    3.6211 C   0  0  0  0  0  0  0  0  0  0  0  0
   -2.7503   -3.3530    3.3477 H   0  0  0  0  0  0  0  0  0  0  0  0
   -2.1234   -2.1589    4.5059 H   0  0  0  0  0  0  0  0  0  0  0  0
   -3.7737   -1.9915    3.8559 H   0  0  0  0  0  0  0  0  0  0  0  0
   -2.0940   -0.0888    2.6343 N   0  0  0  0  0  0  0  0  0  0  0  0
   -1.8598    0.8532    1.5287 C   0  0  2  0  0  0  0  0  0  0  0  0
   -0.6044    0.5025    0.6907 C   0  0  0  0  0  0  0  0  0  0  0  0
    0.5230    0.5513    1.1595 O   0  0  0  0  0  0  0  0  0  0  0  0
   -1.7174    2.2496    2.1404 C   0  0  0  0  0  0  0  0  0  0  0  0
   -2.4781    0.2862    3.4965 H   0  0  0  0  0  0  0  0  0  0  0  0
   -2.7392    0.8617    0.8844 H   0  0  0  0  0  0  0  0  0  0  0  0
   -0.8691    2.2831    2.8325 H   0  0  0  0  0  0  0  0  0  0  0  0
   -1.5547    2.9948    1.3557 H   0  0  0  0  0  0  0  0  0  0  0  0
   -2.6258    2.5196    2.6878 H   0  0  0  0  0  0  0  0  0  0  0  0
   -0.5926    0.0409   -0.6093 N   0  0  0  0  0  0  0  0  0  0  0  0
   -1.5612    0.3140   -1.6856 C   0  0  2  0  0  0  0  0  0  0  0  0
   -3.0304   -0.1003   -1.4646 C   0  0  0  0  0  0  0  0  0  0  0  0
   -3.8878    0.5809   -2.0083 O   0  0  0  0  0  0  0  0  0  0  0  0
   -1.0621   -0.3779   -2.9666 C   0  0  0  0  0  0  0  0  0  0  0  0
    0.3567    0.0218   -3.3005 C   0  0  0  0  0  0  0  0  0  0  0  0
    0.8061    1.3058   -3.6159 N   0  3  0  0  0  0  0  0  0  0  0  0
    1.4434   -0.8166   -3.3353 C   0  0  0  0  0  0  0  0  0  0  0  0
    2.1007    1.2948   -3.8249 C   0  0  0  0  0  0  0  0  0  0  0  0
    2.5342   -0.0195   -3.6617 N   0  0  0  0  0  0  0  0  0  0  0  0
    0.3475   -0.2257   -0.8860 H   0  0  0  0  0  0  0  0  0  0  0  0
   -1.5733    1.3967   -1.8494 H   0  0  0  0  0  0  0  0  0  0  0  0
   -1.7213   -0.1190   -3.8038 H   0  0  0  0  0  0  0  0  0  0  0  0
   -1.1198   -1.4644   -2.8330 H   0  0  0  0  0  0  0  0  0  0  0  0
    0.1877    2.1213   -3.6521 H   0  0  0  0  0  0  0  0  0  0  0  0
    1.4447   -1.8892   -3.1342 H   0  0  0  0  0  0  0  0  0  0  0  0
    2.7247    2.1550   -4.0766 H   0  0  0  0  0  0  0  0  0  0  0  0
    3.5022   -0.3449   -3.7504 H   0  0  0  0  0  0  0  0  0  0  0  0
   -3.3783   -1.3281   -0.9385 N   0  0  0  0  0  0  0  0  0  0  0  0
   -4.7849   -1.7248   -0.7664 C   0  0  2  0  0  0  0  0  0  0  0  0
   -5.5290   -0.9362    0.3379 C   0  0  0  0  0  0  0  0  0  0  0  0
   -4.9482   -0.5649    1.3514 O   0  0  0  0  0  0  0  0  0  0  0  0
   -4.8046   -3.2206   -0.4418 C   0  0  0  0  0  0  0  0  0  0  0  0
   -2.7047   -1.7207   -0.2707 H   0  0  0  0  0  0  0  0  0  0  0  0
   -5.3189   -1.5673   -1.7092 H   0  0  0  0  0  0  0  0  0  0  0  0
   -4.2822   -3.4157    0.5006 H   0  0  0  0  0  0  0  0  0  0  0  0
   -5.8347   -3.5781   -0.3460 H   0  0  0  0  0  0  0  0  0  0  0  0
   -4.3132   -3.7902   -1.2367 H   0  0  0  0  0  0  0  0  0  0  0  0
   -6.8811   -0.6757    0.2156 N   0  0  0  0  0  0  0  0  0  0  0  0
   -7.6395    0.0889    1.1999 C   0  0  0  0  0  0  0  0  0  0  0  0
   -7.3303   -0.9243   -0.6610 H   0  0  0  0  0  0  0  0  0  0  0  0
   -7.5704   -0.3792    2.1876 H   0  0  0  0  0  0  0  0  0  0  0  0
   -7.2562    1.1125    1.2684 H   0  0  0  0  0  0  0  0  0  0  0  0
   -8.6951    0.1326    0.9148 H   0  0  0  0  0  0  0  0  0  0  0  0
  1  2  2  0  0  0  0
  1  3  1  0  0  0  0
  1  7  1  0  0  0  0
  3  4  1  0  0  0  0
  3  5  1  0  0  0  0
  3  6  1  0  0  0  0
  7  8  1  0  0  0  0
  7 12  1  0  0  0  0
  8  9  1  0  0  0  0
  8 11  1  0  0  0  0
  8 13  1  0  0  0  0
  9 10  2  0  0  0  0
  9 17  1  0  0  0  0
 11 14  1  0  0  0  0
 11 15  1  0  0  0  0
 11 16  1  0  0  0  0
 17 18  1  0  0  0  0
 17 27  1  0  0  0  0
 18 19  1  0  0  0  0
 18 21  1  0  0  0  0
 18 28  1  0  0  0  0
 19 20  2  0  0  0  0
 19 35  1  0  0  0  0
 21 22  1  0  0  0  0
 21 29  1  0  0  0  0
 21 30  1  0  0  0  0
 22 23  1  0  0  0  0
 22 24  2  0  0  0  0
 23 25  2  0  0  0  0
 23 31  1  0  0  0  0
 24 26  1  0  0  0  0
 24 32  1  0  0  0  0
 25 26  1  0  0  0  0
 25 33  1  0  0  0  0
 26 34  1  0  0  0  0
 35 36  1  0  0  0  0
 35 40  1  0  0  0  0
 36 37  1  0  0  0  0
 36 39  1  0  0  0  0
 36 41  1  0  0  0  0
 37 38  2  0  0  0  0
 37 45  1  0  0  0  0
 39 42  1  0  0  0  0
 39 43  1  0  0  0  0
 39 44  1  0  0  0  0
 45 46  1  0  0  0  0
 45 47  1  0  0  0  0
 46 48  1  0  0  0  0
 46 49  1  0  0  0  0
 46 50  1  0  0  0  0
M  CHG  1  23   1
M  END
$$$$

  -OEChem-02062319093D

 50 50  0     1  0  0  0  0  0999 V2000
   -2.3440   -1.3521    2.3487 C   0  0  0  0  0  0  0  0  0  0  0  0
   -2.1525   -1.8416    1.2419 O   0  0  0  0  0  0  0  0  0  0  0  0
   -2.9662   -2.1952    3.4441 C   0  0  0  0  0  0  0  0  0  0  0  0
   -3.1484   -3.2104    3.0820 H   0  0  0  0  0  0  0  0  0  0  0  0
   -2.2980   -2.2426    4.3071 H   0  0  0  0  0  0  0  0  0  0  0  0
   -3.9189   -1.7561    3.7512 H   0  0  0  0  0  0  0  0  0  0  0  0
   -2.0206   -0.0337    2.6050 N   0  0  0  0  0  0  0  0  0  0  0  0
   -1.7096    0.9541    1.5609 C   0  0  2  0  0  0  0  0  0  0  0  0
   -0.4726    0.5773    0.7067 C   0  0  0  0  0  0  0  0  0  0  0  0
    0.6552    0.5647    1.1762 O   0  0  0  0  0  0  0  0  0  0  0  0
   -1.4863    2.2975    2.2615 C   0  0  0  0  0  0  0  0  0  0  0  0
   -2.3235    0.3210    3.5072 H   0  0  0  0  0  0  0  0  0  0  0  0
   -2.5776    1.0664    0.9126 H   0  0  0  0  0  0  0  0  0  0  0  0
   -0.6512    2.2316    2.9670 H   0  0  0  0  0  0  0  0  0  0  0  0
   -1.2601    3.0773    1.5278 H   0  0  0  0  0  0  0  0  0  0  0  0
   -2.3853    2.5937    2.8113 H   0  0  0  0  0  0  0  0  0  0  0  0
   -0.4906    0.0368   -0.5627 N   0  0  0  0  0  0  0  0  0  0  0  0
   -1.3284    0.4670   -1.6966 C   0  0  2  0  0  0  0  0  0  0  0  0
   -2.8606    0.4038   -1.5330 C   0  0  0  0  0  0  0  0  0  0  0  0
   -3.5284    1.2695   -2.0791 O   0  0  0  0  0  0  0  0  0  0  0  0
   -0.9448   -0.3805   -2.9217 C   0  0  0  0  0  0  0  0  0  0  0  0
    0.5364   -0.2983   -3.2103 C   0  0  0  0  0  0  0  0  0  0  0  0
    1.2492    0.8438   -3.5813 N   0  3  0  0  0  0  0  0  0  0  0  0
    1.4296   -1.3385   -3.1418 C   0  0  0  0  0  0  0  0  0  0  0  0
    2.5206    0.5580   -3.7274 C   0  0  0  0  0  0  0  0  0  0  0  0
    2.6710   -0.8020   -3.4633 N   0  0  0  0  0  0  0  0  0  0  0  0
    0.4314   -0.3208   -0.7951 H   0  0  0  0  0  0  0  0  0  0  0  0
   -1.0904    1.5159   -1.9025 H   0  0  0  0  0  0  0  0  0  0  0  0
   -1.5074   -0.0371   -3.7976 H   0  0  0  0  0  0  0  0  0  0  0  0
   -1.2303   -1.4235   -2.7407 H   0  0  0  0  0  0  0  0  0  0  0  0
    0.8124    1.7627   -3.6961 H   0  0  0  0  0  0  0  0  0  0  0  0
    1.2043   -2.3724   -2.8747 H   0  0  0  0  0  0  0  0  0  0  0  0
    3.3148    1.2556   -4.0011 H   0  0  0  0  0  0  0  0  0  0  0  0
    3.5545   -1.3214   -3.4865 H   0  0  0  0  0  0  0  0  0  0  0  0
   -3.4936   -0.6899   -0.9787 N   0  0  0  0  0  0  0  0  0  0  0  0
   -4.9540   -0.7652   -0.8231 C   0  0  2  0  0  0  0  0  0  0  0  0
   -5.4977    0.1106    0.3291 C   0  0  0  0  0  0  0  0  0  0  0  0
   -4.9638    0.0959    1.4324 O   0  0  0  0  0  0  0  0  0  0  0  0
   -5.3152   -2.2329   -0.5816 C   0  0  0  0  0  0  0  0  0  0  0  0
   -2.9253   -1.2555   -0.3376 H   0  0  0  0  0  0  0  0  0  0  0  0
   -5.4347   -0.4408   -1.7518 H   0  0  0  0  0  0  0  0  0  0  0  0
   -4.8498   -2.5955    0.3412 H   0  0  0  0  0  0  0  0  0  0  0  0
   -6.3998   -2.3492   -0.4908 H   0  0  0  0  0  0  0  0  0  0  0  0
   -4.9689   -2.8535   -1.4137 H   0  0  0  0  0  0  0  0  0  0  0  0
   -6.6261    0.8875    0.1449 N   0  0  0  0  0  0  0  0  0  0  0  0
   -7.1860    1.7442    1.1848 C   0  0  0  0  0  0  0  0  0  0  0  0
   -7.0005    0.9549   -0.7975 H   0  0  0  0  0  0  0  0  0  0  0  0
   -7.4077    1.1608    2.0851 H   0  0  0  0  0  0  0  0  0  0  0  0
   -6.4813    2.5406    1.4459 H   0  0  0  0  0  0  0  0  0  0  0  0
   -8.1164    2.2042    0.8373 H   0  0  0  0  0  0  0  0  0  0  0  0
  1  2  2  0  0  0  0
  1  3  1  0  0  0  0
  1  7  1  0  0  0  0
  3  4  1  0  0  0  0
  3  5  1  0  0  0  0
  3  6  1  0  0  0  0
  7  8  1  0  0  0  0
  7 12  1  0  0  0  0
  8  9  1  0  0  0  0
  8 11  1  0  0  0  0
  8 13  1  0  0  0  0
  9 10  2  0  0  0  0
  9 17  1  0  0  0  0
 11 14  1  0  0  0  0
 11 15  1  0  0  0  0
 11 16  1  0  0  0  0
 17 18  1  0  0  0  0
 17 27  1  0  0  0  0
 18 19  1  0  0  0  0
 18 21  1  0  0  0  0
 18 28  1  0  0  0  0
 19 20  2  0  0  0  0
 19 35  1  0  0  0  0
 21 22  1  0  0  0  0
 21 29  1  0  0  0  0
 21 30  1  0  0  0  0
 22 23  1  0  0  0  0
 22 24  2  0  0  0  0
 23 25  2  0  0  0  0
 23 31  1  0  0  0  0
 24 26  1  0  0  0  0
 24 32  1  0  0  0  0
 25 26  1  0  0  0  0
 25 33  1  0  0  0  0
 26 34  1  0  0  0  0
 35 36  1  0  0  0  0
 35 40  1  0  0  0  0
 36 37  1  0  0  0  0
 36 39  1  0  0  0  0
 36 41  1  0  0  0  0
 37 38  2  0  0  0  0
 37 45  1  0  0  0  0
 39 42  1  0  0  0  0
 39 43  1  0  0  0  0
 39 44  1  0  0  0  0
 45 46  1  0  0  0  0
 45 47  1  0  0  0  0
 46 48  1  0  0  0  0
 46 49  1  0  0  0  0
 46 50  1  0  0  0  0
M  CHG  1  23   1
M  END
$$$$

  -OEChem-02062319093D

 50 50  0     1  0  0  0  0  0999 V2000
   -2.5145   -1.2304    2.1763 C   0  0  0  0  0  0  0  0  0  0  0  0
   -2.3297   -1.6589    1.0446 O   0  0  0  0  0  0  0  0  0  0  0  0
   -3.1776   -2.1111    3.2162 C   0  0  0  0  0  0  0  0  0  0  0  0
   -3.3439   -3.1139    2.8133 H   0  0  0  0  0  0  0  0  0  0  0  0
   -2.5441   -2.1888    4.1030 H   0  0  0  0  0  0  0  0  0  0  0  0
   -4.1420   -1.6815    3.5005 H   0  0  0  0  0  0  0  0  0  0  0  0
   -2.1442    0.0568    2.5107 N   0  0  0  0  0  0  0  0  0  0  0  0
   -1.7910    1.1056    1.5416 C   0  0  2  0  0  0  0  0  0  0  0  0
   -0.5372    0.7984    0.6790 C   0  0  0  0  0  0  0  0  0  0  0  0
    0.5894    0.8580    1.1471 O   0  0  0  0  0  0  0  0  0  0  0  0
   -1.5810    2.3908    2.3494 C   0  0  0  0  0  0  0  0  0  0  0  0
   -2.4144    0.3565    3.4436 H   0  0  0  0  0  0  0  0  0  0  0  0
   -2.6384    1.2787    0.8825 H   0  0  0  0  0  0  0  0  0  0  0  0
   -2.4840    2.6375    2.9166 H   0  0  0  0  0  0  0  0  0  0  0  0
   -1.3550    3.2278    1.6814 H   0  0  0  0  0  0  0  0  0  0  0  0
   -0.7494    2.2743    3.0528 H   0  0  0  0  0  0  0  0  0  0  0  0
   -0.5216    0.1534   -0.5414 N   0  0  0  0  0  0  0  0  0  0  0  0
   -1.2270    0.6182   -1.7498 C   0  0  2  0  0  0  0  0  0  0  0  0
   -2.7603    0.7486   -1.6557 C   0  0  0  0  0  0  0  0  0  0  0  0
   -3.3042    1.7357   -2.1297 O   0  0  0  0  0  0  0  0  0  0  0  0
   -0.8904   -0.3446   -2.9018 C   0  0  0  0  0  0  0  0  0  0  0  0
    0.6032   -0.4909   -3.0864 C   0  0  0  0  0  0  0  0  0  0  0  0
    1.5060    0.5175   -3.4327 N   0  3  0  0  0  0  0  0  0  0  0  0
    1.3220   -1.6499   -2.9271 C   0  0  0  0  0  0  0  0  0  0  0  0
    2.7259    0.0384   -3.4807 C   0  0  0  0  0  0  0  0  0  0  0  0
    2.6494   -1.3182   -3.1723 N   0  0  0  0  0  0  0  0  0  0  0  0
    0.4082   -0.2237   -0.7010 H   0  0  0  0  0  0  0  0  0  0  0  0
   -0.8477    1.6158   -1.9966 H   0  0  0  0  0  0  0  0  0  0  0  0
   -1.3398    0.0223   -3.8320 H   0  0  0  0  0  0  0  0  0  0  0  0
   -1.3334   -1.3251   -2.6913 H   0  0  0  0  0  0  0  0  0  0  0  0
    1.2247    1.4874   -3.6034 H   0  0  0  0  0  0  0  0  0  0  0  0
    0.9246   -2.6278   -2.6500 H   0  0  0  0  0  0  0  0  0  0  0  0
    3.6338    0.5982   -3.7154 H   0  0  0  0  0  0  0  0  0  0  0  0
    3.4424   -1.9659   -3.1227 H   0  0  0  0  0  0  0  0  0  0  0  0
   -3.5269   -0.2408   -1.0747 N   0  0  0  0  0  0  0  0  0  0  0  0
   -4.9697   -0.1124   -0.8325 C   0  0  2  0  0  0  0  0  0  0  0  0
   -5.2659    0.8437    0.3440 C   0  0  0  0  0  0  0  0  0  0  0  0
   -5.3217    0.4390    1.4996 O   0  0  0  0  0  0  0  0  0  0  0  0
   -5.5291   -1.5182   -0.5877 C   0  0  0  0  0  0  0  0  0  0  0  0
   -3.0176   -0.9211   -0.4987 H   0  0  0  0  0  0  0  0  0  0  0  0
   -5.4623    0.2917   -1.7232 H   0  0  0  0  0  0  0  0  0  0  0  0
   -5.0538   -1.9788    0.2843 H   0  0  0  0  0  0  0  0  0  0  0  0
   -6.6075   -1.4704   -0.4072 H   0  0  0  0  0  0  0  0  0  0  0  0
   -5.3516   -2.1565   -1.4583 H   0  0  0  0  0  0  0  0  0  0  0  0
   -5.3485    2.2005    0.1024 N   0  0  0  0  0  0  0  0  0  0  0  0
   -5.5547    3.1963    1.1470 C   0  0  0  0  0  0  0  0  0  0  0  0
   -5.1017    2.5107   -0.8380 H   0  0  0  0  0  0  0  0  0  0  0  0
   -6.4593    2.9675    1.7211 H   0  0  0  0  0  0  0  0  0  0  0  0
   -4.7007    3.2191    1.8311 H   0  0  0  0  0  0  0  0  0  0  0  0
   -5.6725    4.1903    0.7042 H   0  0  0  0  0  0  0  0  0  0  0  0
  1  2  2  0  0  0  0
  1  3  1  0  0  0  0
  1  7  1  0  0  0  0
  3  4  1  0  0  0  0
  3  5  1  0  0  0  0
  3  6  1  0  0  0  0
  7  8  1  0  0  0  0
  7 12  1  0  0  0  0
  8  9  1  0  0  0  0
  8 11  1  0  0  0  0
  8 13  1  0  0  0  0
  9 10  2  0  0  0  0
  9 17  1  0  0  0  0
 11 14  1  0  0  0  0
 11 15  1  0  0  0  0
 11 16  1  0  0  0  0
 17 18  1  0  0  0  0
 17 27  1  0  0  0  0
 18 19  1  0  0  0  0
 18 21  1  0  0  0  0
 18 28  1  0  0  0  0
 19 20  2  0  0  0  0
 19 35  1  0  0  0  0
 21 22  1  0  0  0  0
 21 29  1  0  0  0  0
 21 30  1  0  0  0  0
 22 23  1  0  0  0  0
 22 24  2  0  0  0  0
 23 25  2  0  0  0  0
 23 31  1  0  0  0  0
 24 26  1  0  0  0  0
 24 32  1  0  0  0  0
 25 26  1  0  0  0  0
 25 33  1  0  0  0  0
 26 34  1  0  0  0  0
 35 36  1  0  0  0  0
 35 40  1  0  0  0  0
 36 37  1  0  0  0  0
 36 39  1  0  0  0  0
 36 41  1  0  0  0  0
 37 38  2  0  0  0  0
 37 45  1  0  0  0  0
 39 42  1  0  0  0  0
 39 43  1  0  0  0  0
 39 44  1  0  0  0  0
 45 46  1  0  0  0  0
 45 47  1  0  0  0  0
 46 48  1  0  0  0  0
 46 49  1  0  0  0  0
 46 50  1  0  0  0  0
M  CHG  1  23   1
M  END
$$$$

  -OEChem-02062319093D

 50 50  0     1  0  0  0  0  0999 V2000
   -2.9795   -1.2692    1.8335 C   0  0  0  0  0  0  0  0  0  0  0  0
   -2.9381   -1.4084    0.6182 O   0  0  0  0  0  0  0  0  0  0  0  0
   -3.8216   -2.2095    2.6731 C   0  0  0  0  0  0  0  0  0  0  0  0
   -4.2695   -2.9829    2.0429 H   0  0  0  0  0  0  0  0  0  0  0  0
   -3.2020   -2.6906    3.4339 H   0  0  0  0  0  0  0  0  0  0  0  0
   -4.6224   -1.6505    3.1644 H   0  0  0  0  0  0  0  0  0  0  0  0
   -2.2570   -0.2664    2.4477 N   0  0  0  0  0  0  0  0  0  0  0  0
   -1.6278    0.8586    1.7405 C   0  0  2  0  0  0  0  0  0  0  0  0
   -0.3869    0.4674    0.8966 C   0  0  0  0  0  0  0  0  0  0  0  0
    0.6990    0.2664    1.4183 O   0  0  0  0  0  0  0  0  0  0  0  0
   -1.2663    1.9053    2.8001 C   0  0  0  0  0  0  0  0  0  0  0  0
   -2.3862   -0.1763    3.4519 H   0  0  0  0  0  0  0  0  0  0  0  0
   -2.3597    1.3183    1.0819 H   0  0  0  0  0  0  0  0  0  0  0  0
   -0.8248    2.7884    2.3276 H   0  0  0  0  0  0  0  0  0  0  0  0
   -2.1623    2.2192    3.3453 H   0  0  0  0  0  0  0  0  0  0  0  0
   -0.5453    1.5004    3.5181 H   0  0  0  0  0  0  0  0  0  0  0  0
   -0.4254   -0.0793   -0.3689 N   0  0  0  0  0  0  0  0  0  0  0  0
   -0.7499    0.7163   -1.5670 C   0  0  2  0  0  0  0  0  0  0  0  0
   -2.1343    1.3950   -1.5986 C   0  0  0  0  0  0  0  0  0  0  0  0
   -2.2211    2.5508   -1.9881 O   0  0  0  0  0  0  0  0  0  0  0  0
   -0.6330   -0.2010   -2.7957 C   0  0  0  0  0  0  0  0  0  0  0  0
    0.7326   -0.8427   -2.8781 C   0  0  0  0  0  0  0  0  0  0  0  0
    1.9528   -0.1890   -3.0644 N   0  3  0  0  0  0  0  0  0  0  0  0
    0.9955   -2.1858   -2.7734 C   0  0  0  0  0  0  0  0  0  0  0  0
    2.9365   -1.0563   -3.0672 C   0  0  0  0  0  0  0  0  0  0  0  0
    2.3744   -2.3191   -2.8897 N   0  0  0  0  0  0  0  0  0  0  0  0
    0.3879   -0.6784   -0.4783 H   0  0  0  0  0  0  0  0  0  0  0  0
   -0.0103    1.5204   -1.6490 H   0  0  0  0  0  0  0  0  0  0  0  0
   -0.8214    0.3772   -3.7079 H   0  0  0  0  0  0  0  0  0  0  0  0
   -1.4043   -0.9782   -2.7376 H   0  0  0  0  0  0  0  0  0  0  0  0
    2.0341    0.8264   -3.1712 H   0  0  0  0  0  0  0  0  0  0  0  0
    0.2631   -2.9802   -2.6195 H   0  0  0  0  0  0  0  0  0  0  0  0
    3.9989   -0.8319   -3.1854 H   0  0  0  0  0  0  0  0  0  0  0  0
    2.8918   -3.2030   -2.8450 H   0  0  0  0  0  0  0  0  0  0  0  0
   -3.2755    0.7145   -1.2258 N   0  0  0  0  0  0  0  0  0  0  0  0
   -4.5976    1.3435   -1.1111 C   0  0  2  0  0  0  0  0  0  0  0  0
   -4.6951    2.2298    0.1500 C   0  0  0  0  0  0  0  0  0  0  0  0
   -5.0610    1.7720    1.2260 O   0  0  0  0  0  0  0  0  0  0  0  0
   -5.6470    0.2265   -1.1158 C   0  0  0  0  0  0  0  0  0  0  0  0
   -3.1328   -0.1713   -0.7272 H   0  0  0  0  0  0  0  0  0  0  0  0
   -4.7837    1.9810   -1.9822 H   0  0  0  0  0  0  0  0  0  0  0  0
   -5.4910   -0.4563   -0.2743 H   0  0  0  0  0  0  0  0  0  0  0  0
   -6.6524    0.6514   -1.0330 H   0  0  0  0  0  0  0  0  0  0  0  0
   -5.5888   -0.3474   -2.0453 H   0  0  0  0  0  0  0  0  0  0  0  0
   -4.2243    3.5265    0.0975 N   0  0  0  0  0  0  0  0  0  0  0  0
   -4.1743    4.4126    1.2541 C   0  0  0  0  0  0  0  0  0  0  0  0
   -3.7385    3.7979   -0.7582 H   0  0  0  0  0  0  0  0  0  0  0  0
   -5.1675    4.5089    1.7061 H   0  0  0  0  0  0  0  0  0  0  0  0
   -3.4824    4.0226    2.0071 H   0  0  0  0  0  0  0  0  0  0  0  0
   -3.8365    5.4093    0.9539 H   0  0  0  0  0  0  0  0  0  0  0  0
  1  2  2  0  0  0  0
  1  3  1  0  0  0  0
  1  7  1  0  0  0  0
  3  4  1  0  0  0  0
  3  5  1  0  0  0  0
  3  6  1  0  0  0  0
  7  8  1  0  0  0  0
  7 12  1  0  0  0  0
  8  9  1  0  0  0  0
  8 11  1  0  0  0  0
  8 13  1  0  0  0  0
  9 10  2  0  0  0  0
  9 17  1  0  0  0  0
 11 14  1  0  0  0  0
 11 15  1  0  0  0  0
 11 16  1  0  0  0  0
 17 18  1  0  0  0  0
 17 27  1  0  0  0  0
 18 19  1  0  0  0  0
 18 21  1  0  0  0  0
 18 28  1  0  0  0  0
 19 20  2  0  0  0  0
 19 35  1  0  0  0  0
 21 22  1  0  0  0  0
 21 29  1  0  0  0  0
 21 30  1  0  0  0  0
 22 23  1  0  0  0  0
 22 24  2  0  0  0  0
 23 25  2  0  0  0  0
 23 31  1  0  0  0  0
 24 26  1  0  0  0  0
 24 32  1  0  0  0  0
 25 26  1  0  0  0  0
 25 33  1  0  0  0  0
 26 34  1  0  0  0  0
 35 36  1  0  0  0  0
 35 40  1  0  0  0  0
 36 37  1  0  0  0  0
 36 39  1  0  0  0  0
 36 41  1  0  0  0  0
 37 38  2  0  0  0  0
 37 45  1  0  0  0  0
 39 42  1  0  0  0  0
 39 43  1  0  0  0  0
 39 44  1  0  0  0  0
 45 46  1  0  0  0  0
 45 47  1  0  0  0  0
 46 48  1  0  0  0  0
 46 49  1  0  0  0  0
 46 50  1  0  0  0  0
M  CHG  1  23   1
M  END
$$$$

  -OEChem-02062319093D

 50 50  0     1  0  0  0  0  0999 V2000
   -2.5888   -0.6963    2.0436 C   0  0  0  0  0  0  0  0  0  0  0  0
   -2.6587   -0.9387    0.8448 O   0  0  0  0  0  0  0  0  0  0  0  0
   -3.6252   -1.2627    2.9934 C   0  0  0  0  0  0  0  0  0  0  0  0
   -4.3561   -1.8618    2.4432 H   0  0  0  0  0  0  0  0  0  0  0  0
   -3.1439   -1.8952    3.7433 H   0  0  0  0  0  0  0  0  0  0  0  0
   -4.1502   -0.4465    3.4965 H   0  0  0  0  0  0  0  0  0  0  0  0
   -1.5377    0.0526    2.5364 N   0  0  0  0  0  0  0  0  0  0  0  0
   -0.7327    0.9883    1.7303 C   0  0  2  0  0  0  0  0  0  0  0  0
    0.2227    0.3212    0.7056 C   0  0  0  0  0  0  0  0  0  0  0  0
    1.3951    0.6499    0.5829 O   0  0  0  0  0  0  0  0  0  0  0  0
    0.0254    1.8725    2.7285 C   0  0  0  0  0  0  0  0  0  0  0  0
   -1.6030    0.2607    3.5300 H   0  0  0  0  0  0  0  0  0  0  0  0
   -1.4001    1.6439    1.1693 H   0  0  0  0  0  0  0  0  0  0  0  0
    0.7274    1.2751    3.3195 H   0  0  0  0  0  0  0  0  0  0  0  0
    0.5903    2.6472    2.1996 H   0  0  0  0  0  0  0  0  0  0  0  0
   -0.6744    2.3684    3.4086 H   0  0  0  0  0  0  0  0  0  0  0  0
   -0.2179   -0.4198   -0.3721 N   0  0  0  0  0  0  0  0  0  0  0  0
   -0.4681    0.2743   -1.6539 C   0  0  2  0  0  0  0  0  0  0  0  0
   -1.5373    1.3896   -1.6587 C   0  0  0  0  0  0  0  0  0  0  0  0
   -1.3401    2.3893   -2.3304 O   0  0  0  0  0  0  0  0  0  0  0  0
   -0.7042   -0.7755   -2.7490 C   0  0  0  0  0  0  0  0  0  0  0  0
    0.5801   -1.5308   -3.0276 C   0  0  0  0  0  0  0  0  0  0  0  0
    1.6848   -1.6061   -2.1737 N   0  3  0  0  0  0  0  0  0  0  0  0
    0.9001   -2.2213   -4.1691 C   0  0  0  0  0  0  0  0  0  0  0  0
    2.6505   -2.2947   -2.7274 C   0  0  0  0  0  0  0  0  0  0  0  0
    2.1910   -2.7054   -3.9777 N   0  0  0  0  0  0  0  0  0  0  0  0
   -1.0434   -0.9532   -0.0793 H   0  0  0  0  0  0  0  0  0  0  0  0
    0.4539    0.8083   -1.9168 H   0  0  0  0  0  0  0  0  0  0  0  0
   -1.0447   -0.2835   -3.6675 H   0  0  0  0  0  0  0  0  0  0  0  0
   -1.4902   -1.4696   -2.4323 H   0  0  0  0  0  0  0  0  0  0  0  0
    1.6981   -1.1335   -1.2580 H   0  0  0  0  0  0  0  0  0  0  0  0
    0.2673   -2.3486   -5.0479 H   0  0  0  0  0  0  0  0  0  0  0  0
    3.6300   -2.4964   -2.2901 H   0  0  0  0  0  0  0  0  0  0  0  0
    2.7251   -3.2558   -4.6566 H   0  0  0  0  0  0  0  0  0  0  0  0
   -2.7617    1.2177   -1.0394 N   0  0  0  0  0  0  0  0  0  0  0  0
   -3.8297    2.2297   -0.9912 C   0  0  2  0  0  0  0  0  0  0  0  0
   -3.9966    2.8615    0.4072 C   0  0  0  0  0  0  0  0  0  0  0  0
   -3.8503    2.1820    1.4180 O   0  0  0  0  0  0  0  0  0  0  0  0
   -5.1302    1.5407   -1.4099 C   0  0  0  0  0  0  0  0  0  0  0  0
   -2.8577    0.4127   -0.4138 H   0  0  0  0  0  0  0  0  0  0  0  0
   -3.6232    3.0383   -1.7001 H   0  0  0  0  0  0  0  0  0  0  0  0
   -5.3761    0.7308   -0.7149 H   0  0  0  0  0  0  0  0  0  0  0  0
   -5.9585    2.2563   -1.4143 H   0  0  0  0  0  0  0  0  0  0  0  0
   -5.0312    1.1206   -2.4154 H   0  0  0  0  0  0  0  0  0  0  0  0
   -4.3471    4.1919    0.5350 N   0  0  0  0  0  0  0  0  0  0  0  0
   -4.5339    4.8540    1.8212 C   0  0  0  0  0  0  0  0  0  0  0  0
   -4.4398    4.7403   -0.3161 H   0  0  0  0  0  0  0  0  0  0  0  0
   -4.8321    5.8964    1.6709 H   0  0  0  0  0  0  0  0  0  0  0  0
   -5.3160    4.3527    2.4017 H   0  0  0  0  0  0  0  0  0  0  0  0
   -3.6031    4.8407    2.3982 H   0  0  0  0  0  0  0  0  0  0  0  0
  1  2  2  0  0  0  0
  1  3  1  0  0  0  0
  1  7  1  0  0  0  0
  3  4  1  0  0  0  0
  3  5  1  0  0  0  0
  3  6  1  0  0  0  0
  7  8  1  0  0  0  0
  7 12  1  0  0  0  0
  8  9  1  0  0  0  0
  8 11  1  0  0  0  0
  8 13  1  0  0  0  0
  9 10  2  0  0  0  0
  9 17  1  0  0  0  0
 11 14  1  0  0  0  0
 11 15  1  0  0  0  0
 11 16  1  0  0  0  0
 17 18  1  0  0  0  0
 17 27  1  0  0  0  0
 18 19  1  0  0  0  0
 18 21  1  0  0  0  0
 18 28  1  0  0  0  0
 19 20  2  0  0  0  0
 19 35  1  0  0  0  0
 21 22  1  0  0  0  0
 21 29  1  0  0  0  0
 21 30  1  0  0  0  0
 22 23  1  0  0  0  0
 22 24  2  0  0  0  0
 23 25  2  0  0  0  0
 23 31  1  0  0  0  0
 24 26  1  0  0  0  0
 24 32  1  0  0  0  0
 25 26  1  0  0  0  0
 25 33  1  0  0  0  0
 26 34  1  0  0  0  0
 35 36  1  0  0  0  0
 35 40  1  0  0  0  0
 36 37  1  0  0  0  0
 36 39  1  0  0  0  0
 36 41  1  0  0  0  0
 37 38  2  0  0  0  0
 37 45  1  0  0  0  0
 39 42  1  0  0  0  0
 39 43  1  0  0  0  0
 39 44  1  0  0  0  0
 45 46  1  0  0  0  0
 45 47  1  0  0  0  0
 46 48  1  0  0  0  0
 46 49  1  0  0  0  0
 46 50  1  0  0  0  0
M  CHG  1  23   1
M  END
$$$$

  -OEChem-02062319093D

 50 50  0     1  0  0  0  0  0999 V2000
   -2.6333   -0.5200    2.0420 C   0  0  0  0  0  0  0  0  0  0  0  0
   -2.7753   -0.5415    0.8261 O   0  0  0  0  0  0  0  0  0  0  0  0
   -3.7243   -1.0605    2.9452 C   0  0  0  0  0  0  0  0  0  0  0  0
   -4.5859   -1.3761    2.3500 H   0  0  0  0  0  0  0  0  0  0  0  0
   -3.3537   -1.9182    3.5118 H   0  0  0  0  0  0  0  0  0  0  0  0
   -4.0479   -0.2835    3.6425 H   0  0  0  0  0  0  0  0  0  0  0  0
   -1.4432   -0.0750    2.5836 N   0  0  0  0  0  0  0  0  0  0  0  0
   -0.5140    0.8377    1.8922 C   0  0  2  0  0  0  0  0  0  0  0  0
    0.3356    0.2018    0.7617 C   0  0  0  0  0  0  0  0  0  0  0  0
    1.5244    0.4465    0.6097 O   0  0  0  0  0  0  0  0  0  0  0  0
    0.3660    1.4675    2.9799 C   0  0  0  0  0  0  0  0  0  0  0  0
   -1.4278   -0.0448    3.6005 H   0  0  0  0  0  0  0  0  0  0  0  0
   -1.0854    1.6454    1.4320 H   0  0  0  0  0  0  0  0  0  0  0  0
    0.9959    0.7083    3.4548 H   0  0  0  0  0  0  0  0  0  0  0  0
    1.0165    2.2349    2.5470 H   0  0  0  0  0  0  0  0  0  0  0  0
   -0.2529    1.9428    3.7477 H   0  0  0  0  0  0  0  0  0  0  0  0
   -0.2219   -0.4991   -0.2895 N   0  0  0  0  0  0  0  0  0  0  0  0
   -0.2766    0.1633   -1.6111 C   0  0  2  0  0  0  0  0  0  0  0  0
   -1.0899    1.4747   -1.6698 C   0  0  0  0  0  0  0  0  0  0  0  0
   -0.6886    2.3901   -2.3705 O   0  0  0  0  0  0  0  0  0  0  0  0
   -0.7181   -0.8522   -2.6743 C   0  0  0  0  0  0  0  0  0  0  0  0
    0.3925   -1.8519   -2.9181 C   0  0  0  0  0  0  0  0  0  0  0  0
    1.4205   -2.1575   -2.0228 N   0  3  0  0  0  0  0  0  0  0  0  0
    0.6182   -2.5746   -4.0620 C   0  0  0  0  0  0  0  0  0  0  0  0
    2.2564   -3.0127   -2.5551 C   0  0  0  0  0  0  0  0  0  0  0  0
    1.7783   -3.3079   -3.8309 N   0  0  0  0  0  0  0  0  0  0  0  0
   -1.1405   -0.8542   -0.0045 H   0  0  0  0  0  0  0  0  0  0  0  0
    0.7419    0.4794   -1.8699 H   0  0  0  0  0  0  0  0  0  0  0  0
   -0.9538   -0.3318   -3.6099 H   0  0  0  0  0  0  0  0  0  0  0  0
   -1.6263   -1.3664   -2.3415 H   0  0  0  0  0  0  0  0  0  0  0  0
    1.4979   -1.6949   -1.1066 H   0  0  0  0  0  0  0  0  0  0  0  0
    0.0144   -2.5570   -4.9697 H   0  0  0  0  0  0  0  0  0  0  0  0
    3.1617   -3.4051   -2.0883 H   0  0  0  0  0  0  0  0  0  0  0  0
    2.2264   -3.9369   -4.5039 H   0  0  0  0  0  0  0  0  0  0  0  0
   -2.3328    1.5696   -1.0715 N   0  0  0  0  0  0  0  0  0  0  0  0
   -3.1687    2.7792   -1.0692 C   0  0  2  0  0  0  0  0  0  0  0  0
   -3.1038    3.5304    0.2765 C   0  0  0  0  0  0  0  0  0  0  0  0
   -3.1905    2.9117    1.3321 O   0  0  0  0  0  0  0  0  0  0  0  0
   -4.6067    2.3469   -1.3649 C   0  0  0  0  0  0  0  0  0  0  0  0
   -2.5989    0.8215   -0.4250 H   0  0  0  0  0  0  0  0  0  0  0  0
   -2.8494    3.4675   -1.8586 H   0  0  0  0  0  0  0  0  0  0  0  0
   -4.9674    1.6594   -0.5924 H   0  0  0  0  0  0  0  0  0  0  0  0
   -5.2690    3.2180   -1.3901 H   0  0  0  0  0  0  0  0  0  0  0  0
   -4.6617    1.8428   -2.3346 H   0  0  0  0  0  0  0  0  0  0  0  0
   -2.9607    4.9042    0.3073 N   0  0  0  0  0  0  0  0  0  0  0  0
   -2.8454    5.6697    1.5433 C   0  0  0  0  0  0  0  0  0  0  0  0
   -2.8375    5.3855   -0.5797 H   0  0  0  0  0  0  0  0  0  0  0  0
   -2.7615    6.7380    1.3208 H   0  0  0  0  0  0  0  0  0  0  0  0
   -3.7282    5.5182    2.1736 H   0  0  0  0  0  0  0  0  0  0  0  0
   -1.9557    5.3625    2.1031 H   0  0  0  0  0  0  0  0  0  0  0  0
  1  2  2  0  0  0  0
  1  3  1  0  0  0  0
  1  7  1  0  0  0  0
  3  4  1  0  0  0  0
  3  5  1  0  0  0  0
  3  6  1  0  0  0  0
  7  8  1  0  0  0  0
  7 12  1  0  0  0  0
  8  9  1  0  0  0  0
  8 11  1  0  0  0  0
  8 13  1  0  0  0  0
  9 10  2  0  0  0  0
  9 17  1  0  0  0  0
 11 14  1  0  0  0  0
 11 15  1  0  0  0  0
 11 16  1  0  0  0  0
 17 18  1  0  0  0  0
 17 27  1  0  0  0  0
 18 19  1  0  0  0  0
 18 21  1  0  0  0  0
 18 28  1  0  0  0  0
 19 20  2  0  0  0  0
 19 35  1  0  0  0  0
 21 22  1  0  0  0  0
 21 29  1  0  0  0  0
 21 30  1  0  0  0  0
 22 23  1  0  0  0  0
 22 24  2  0  0  0  0
 23 25  2  0  0  0  0
 23 31  1  0  0  0  0
 24 26  1  0  0  0  0
 24 32  1  0  0  0  0
 25 26  1  0  0  0  0
 25 33  1  0  0  0  0
 26 34  1  0  0  0  0
 35 36  1  0  0  0  0
 35 40  1  0  0  0  0
 36 37  1  0  0  0  0
 36 39  1  0  0  0  0
 36 41  1  0  0  0  0
 37 38  2  0  0  0  0
 37 45  1  0  0  0  0
 39 42  1  0  0  0  0
 39 43  1  0  0  0  0
 39 44  1  0  0  0  0
 45 46  1  0  0  0  0
 45 47  1  0  0  0  0
 46 48  1  0  0  0  0
 46 49  1  0  0  0  0
 46 50  1  0  0  0  0
M  CHG  1  23   1
M  END
$$$$

  -OEChem-02062319093D

 50 50  0     1  0  0  0  0  0999 V2000
   -2.9214   -0.5321    1.7650 C   0  0  0  0  0  0  0  0  0  0  0  0
   -2.9785   -0.2595    0.5727 O   0  0  0  0  0  0  0  0  0  0  0  0
   -4.0611   -1.2736    2.4358 C   0  0  0  0  0  0  0  0  0  0  0  0
   -4.8551   -1.4820    1.7128 H   0  0  0  0  0  0  0  0  0  0  0  0
   -3.7033   -2.2202    2.8482 H   0  0  0  0  0  0  0  0  0  0  0  0
   -4.4771   -0.6665    3.2442 H   0  0  0  0  0  0  0  0  0  0  0  0
   -1.7756   -0.2254    2.4723 N   0  0  0  0  0  0  0  0  0  0  0  0
   -0.8100    0.8070    2.0511 C   0  0  2  0  0  0  0  0  0  0  0  0
    0.1627    0.3821    0.9183 C   0  0  0  0  0  0  0  0  0  0  0  0
    1.3227    0.7644    0.8696 O   0  0  0  0  0  0  0  0  0  0  0  0
   -0.0620    1.2555    3.3131 C   0  0  0  0  0  0  0  0  0  0  0  0
   -1.8168   -0.4297    3.4687 H   0  0  0  0  0  0  0  0  0  0  0  0
   -1.3659    1.6713    1.6782 H   0  0  0  0  0  0  0  0  0  0  0  0
    0.5329    0.4337    3.7243 H   0  0  0  0  0  0  0  0  0  0  0  0
    0.6114    2.0875    3.0823 H   0  0  0  0  0  0  0  0  0  0  0  0
   -0.7685    1.5959    4.0770 H   0  0  0  0  0  0  0  0  0  0  0  0
   -0.2840   -0.3077   -0.1949 N   0  0  0  0  0  0  0  0  0  0  0  0
   -0.0940    0.3053   -1.5271 C   0  0  2  0  0  0  0  0  0  0  0  0
   -0.8061    1.6655   -1.6732 C   0  0  0  0  0  0  0  0  0  0  0  0
   -0.2219    2.6026   -2.1977 O   0  0  0  0  0  0  0  0  0  0  0  0
   -0.5109   -0.6881   -2.6213 C   0  0  0  0  0  0  0  0  0  0  0  0
    0.5056   -1.8035   -2.7275 C   0  0  0  0  0  0  0  0  0  0  0  0
    1.4090   -2.1832   -1.7322 N   0  3  0  0  0  0  0  0  0  0  0  0
    0.7519   -2.5884   -3.8253 C   0  0  0  0  0  0  0  0  0  0  0  0
    2.1901   -3.1429   -2.1616 C   0  0  0  0  0  0  0  0  0  0  0  0
    1.7993   -3.4321   -3.4682 N   0  0  0  0  0  0  0  0  0  0  0  0
   -1.2400   -0.6397   -0.0366 H   0  0  0  0  0  0  0  0  0  0  0  0
    0.9714    0.5283   -1.6675 H   0  0  0  0  0  0  0  0  0  0  0  0
   -0.5819   -0.1686   -3.5841 H   0  0  0  0  0  0  0  0  0  0  0  0
   -1.5003   -1.0995   -2.3921 H   0  0  0  0  0  0  0  0  0  0  0  0
    1.4507   -1.7041   -0.8236 H   0  0  0  0  0  0  0  0  0  0  0  0
    0.2353   -2.5425   -4.7845 H   0  0  0  0  0  0  0  0  0  0  0  0
    3.0004   -3.6153   -1.6025 H   0  0  0  0  0  0  0  0  0  0  0  0
    2.2311   -4.1333   -4.0781 H   0  0  0  0  0  0  0  0  0  0  0  0
   -2.1043    1.8373   -1.2286 N   0  0  0  0  0  0  0  0  0  0  0  0
   -2.7196    3.1618   -1.0726 C   0  0  2  0  0  0  0  0  0  0  0  0
   -2.1025    3.9170    0.1268 C   0  0  0  0  0  0  0  0  0  0  0  0
   -2.6147    3.8694    1.2387 O   0  0  0  0  0  0  0  0  0  0  0  0
   -4.2321    2.9594   -0.9229 C   0  0  0  0  0  0  0  0  0  0  0  0
   -2.5134    1.0702   -0.6882 H   0  0  0  0  0  0  0  0  0  0  0  0
   -2.5483    3.7652   -1.9707 H   0  0  0  0  0  0  0  0  0  0  0  0
   -4.4563    2.3370   -0.0502 H   0  0  0  0  0  0  0  0  0  0  0  0
   -4.7320    3.9251   -0.7954 H   0  0  0  0  0  0  0  0  0  0  0  0
   -4.6416    2.4725   -1.8132 H   0  0  0  0  0  0  0  0  0  0  0  0
   -0.8657    4.5130   -0.0192 N   0  0  0  0  0  0  0  0  0  0  0  0
   -0.1049    5.0751    1.0900 C   0  0  0  0  0  0  0  0  0  0  0  0
   -0.3823    4.3271   -0.9005 H   0  0  0  0  0  0  0  0  0  0  0  0
   -0.7142    5.7908    1.6523 H   0  0  0  0  0  0  0  0  0  0  0  0
    0.2248    4.2826    1.7693 H   0  0  0  0  0  0  0  0  0  0  0  0
    0.7782    5.6003    0.7132 H   0  0  0  0  0  0  0  0  0  0  0  0
  1  2  2  0  0  0  0
  1  3  1  0  0  0  0
  1  7  1  0  0  0  0
  3  4  1  0  0  0  0
  3  5  1  0  0  0  0
  3  6  1  0  0  0  0
  7  8  1  0  0  0  0
  7 12  1  0  0  0  0
  8  9  1  0  0  0  0
  8 11  1  0  0  0  0
  8 13  1  0  0  0  0
  9 10  2  0  0  0  0
  9 17  1  0  0  0  0
 11 14  1  0  0  0  0
 11 15  1  0  0  0  0
 11 16  1  0  0  0  0
 17 18  1  0  0  0  0
 17 27  1  0  0  0  0
 18 19  1  0  0  0  0
 18 21  1  0  0  0  0
 18 28  1  0  0  0  0
 19 20  2  0  0  0  0
 19 35  1  0  0  0  0
 21 22  1  0  0  0  0
 21 29  1  0  0  0  0
 21 30  1  0  0  0  0
 22 23  1  0  0  0  0
 22 24  2  0  0  0  0
 23 25  2  0  0  0  0
 23 31  1  0  0  0  0
 24 26  1  0  0  0  0
 24 32  1  0  0  0  0
 25 26  1  0  0  0  0
 25 33  1  0  0  0  0
 26 34  1  0  0  0  0
 35 36  1  0  0  0  0
 35 40  1  0  0  0  0
 36 37  1  0  0  0  0
 36 39  1  0  0  0  0
 36 41  1  0  0  0  0
 37 38  2  0  0  0  0
 37 45  1  0  0  0  0
 39 42  1  0  0  0  0
 39 43  1  0  0  0  0
 39 44  1  0  0  0  0
 45 46  1  0  0  0  0
 45 47  1  0  0  0  0
 46 48  1  0  0  0  0
 46 49  1  0  0  0  0
 46 50  1  0  0  0  0
M  CHG  1  23   1
M  END
$$$$

  -OEChem-02062319093D

 50 50  0     1  0  0  0  0  0999 V2000
   -2.3442   -1.5227    1.8031 C   0  0  0  0  0  0  0  0  0  0  0  0
   -2.3078   -1.5856    0.5758 O   0  0  0  0  0  0  0  0  0  0  0  0
   -3.1441   -2.5522    2.5777 C   0  0  0  0  0  0  0  0  0  0  0  0
   -3.6565   -3.2336    1.8929 H   0  0  0  0  0  0  0  0  0  0  0  0
   -2.4820   -3.1336    3.2244 H   0  0  0  0  0  0  0  0  0  0  0  0
   -3.8941   -2.0520    3.1963 H   0  0  0  0  0  0  0  0  0  0  0  0
   -1.6288   -0.5673    2.5017 N   0  0  0  0  0  0  0  0  0  0  0  0
   -0.9989    0.6518    1.9545 C   0  0  2  0  0  0  0  0  0  0  0  0
    0.1625    0.3876    0.9604 C   0  0  0  0  0  0  0  0  0  0  0  0
    1.2764    0.8688    1.1023 O   0  0  0  0  0  0  0  0  0  0  0  0
   -0.5413    1.4705    3.1691 C   0  0  0  0  0  0  0  0  0  0  0  0
   -1.7211   -0.6080    3.5149 H   0  0  0  0  0  0  0  0  0  0  0  0
   -1.7544    1.2396    1.4231 H   0  0  0  0  0  0  0  0  0  0  0  0
    0.2144    0.9238    3.7425 H   0  0  0  0  0  0  0  0  0  0  0  0
   -0.1061    2.4210    2.8472 H   0  0  0  0  0  0  0  0  0  0  0  0
   -1.3890    1.6944    3.8239 H   0  0  0  0  0  0  0  0  0  0  0  0
   -0.1682   -0.1164   -0.2820 N   0  0  0  0  0  0  0  0  0  0  0  0
    0.3942    0.3774   -1.5484 C   0  0  2  0  0  0  0  0  0  0  0  0
    0.1003    1.8675   -1.7996 C   0  0  0  0  0  0  0  0  0  0  0  0
    0.9763    2.6041   -2.2277 O   0  0  0  0  0  0  0  0  0  0  0  0
   -0.1634   -0.4644   -2.7110 C   0  0  0  0  0  0  0  0  0  0  0  0
    0.0420   -1.9478   -2.4922 C   0  0  0  0  0  0  0  0  0  0  0  0
   -0.6453   -2.7625   -1.5844 N   0  3  0  0  0  0  0  0  0  0  0  0
    0.9284   -2.7455   -3.1706 C   0  0  0  0  0  0  0  0  0  0  0  0
   -0.2059   -3.9944   -1.6591 C   0  0  0  0  0  0  0  0  0  0  0  0
    0.7740   -4.0248   -2.6493 N   0  0  0  0  0  0  0  0  0  0  0  0
   -1.1327   -0.4458   -0.3080 H   0  0  0  0  0  0  0  0  0  0  0  0
    1.4840    0.2586   -1.5168 H   0  0  0  0  0  0  0  0  0  0  0  0
    0.3383   -0.1553   -3.6355 H   0  0  0  0  0  0  0  0  0  0  0  0
   -1.2325   -0.2648   -2.8417 H   0  0  0  0  0  0  0  0  0  0  0  0
   -1.3362   -2.4000   -0.9115 H   0  0  0  0  0  0  0  0  0  0  0  0
    1.6193   -2.4272   -3.9520 H   0  0  0  0  0  0  0  0  0  0  0  0
   -0.5402   -4.8354   -1.0496 H   0  0  0  0  0  0  0  0  0  0  0  0
    1.3124   -4.8492   -2.9323 H   0  0  0  0  0  0  0  0  0  0  0  0
   -1.1686    2.3725   -1.5776 N   0  0  0  0  0  0  0  0  0  0  0  0
   -1.3731    3.8096   -1.3675 C   0  0  2  0  0  0  0  0  0  0  0  0
   -0.8323    4.1990    0.0233 C   0  0  0  0  0  0  0  0  0  0  0  0
   -1.4669    3.8930    1.0268 O   0  0  0  0  0  0  0  0  0  0  0  0
   -2.8680    4.1137   -1.5132 C   0  0  0  0  0  0  0  0  0  0  0  0
   -1.8070    1.7536   -1.0884 H   0  0  0  0  0  0  0  0  0  0  0  0
   -0.8356    4.3917   -2.1245 H   0  0  0  0  0  0  0  0  0  0  0  0
   -3.4560    3.5390   -0.7902 H   0  0  0  0  0  0  0  0  0  0  0  0
   -3.0552    5.1783   -1.3402 H   0  0  0  0  0  0  0  0  0  0  0  0
   -3.2104    3.8618   -2.5215 H   0  0  0  0  0  0  0  0  0  0  0  0
    0.4500    4.6985    0.1359 N   0  0  0  0  0  0  0  0  0  0  0  0
    1.1512    4.8140    1.4092 C   0  0  0  0  0  0  0  0  0  0  0  0
    1.0146    4.6519   -0.7120 H   0  0  0  0  0  0  0  0  0  0  0  0
    0.5006    5.2457    2.1772 H   0  0  0  0  0  0  0  0  0  0  0  0
    1.4918    3.8301    1.7472 H   0  0  0  0  0  0  0  0  0  0  0  0
    2.0240    5.4650    1.2999 H   0  0  0  0  0  0  0  0  0  0  0  0
  1  2  2  0  0  0  0
  1  3  1  0  0  0  0
  1  7  1  0  0  0  0
  3  4  1  0  0  0  0
  3  5  1  0  0  0  0
  3  6  1  0  0  0  0
  7  8  1  0  0  0  0
  7 12  1  0  0  0  0
  8  9  1  0  0  0  0
  8 11  1  0  0  0  0
  8 13  1  0  0  0  0
  9 10  2  0  0  0  0
  9 17  1  0  0  0  0
 11 14  1  0  0  0  0
 11 15  1  0  0  0  0
 11 16  1  0  0  0  0
 17 18  1  0  0  0  0
 17 27  1  0  0  0  0
 18 19  1  0  0  0  0
 18 21  1  0  0  0  0
 18 28  1  0  0  0  0
 19 20  2  0  0  0  0
 19 35  1  0  0  0  0
 21 22  1  0  0  0  0
 21 29  1  0  0  0  0
 21 30  1  0  0  0  0
 22 23  1  0  0  0  0
 22 24  2  0  0  0  0
 23 25  2  0  0  0  0
 23 31  1  0  0  0  0
 24 26  1  0  0  0  0
 24 32  1  0  0  0  0
 25 26  1  0  0  0  0
 25 33  1  0  0  0  0
 26 34  1  0  0  0  0
 35 36  1  0  0  0  0
 35 40  1  0  0  0  0
 36 37  1  0  0  0  0
 36 39  1  0  0  0  0
 36 41  1  0  0  0  0
 37 38  2  0  0  0  0
 37 45  1  0  0  0  0
 39 42  1  0  0  0  0
 39 43  1  0  0  0  0
 39 44  1  0  0  0  0
 45 46  1  0  0  0  0
 45 47  1  0  0  0  0
 46 48  1  0  0  0  0
 46 49  1  0  0  0  0
 46 50  1  0  0  0  0
M  CHG  1  23   1
M  END
$$$$

  -OEChem-02062319093D

 50 50  0     1  0  0  0  0  0999 V2000
   -2.2432   -1.7125    2.0472 C   0  0  0  0  0  0  0  0  0  0  0  0
   -2.4219   -1.6429    0.8332 O   0  0  0  0  0  0  0  0  0  0  0  0
   -3.0451   -2.7071    2.8640 C   0  0  0  0  0  0  0  0  0  0  0  0
   -3.8204   -3.1693    2.2468 H   0  0  0  0  0  0  0  0  0  0  0  0
   -2.3882   -3.4896    3.2521 H   0  0  0  0  0  0  0  0  0  0  0  0
   -3.5261   -2.1987    3.7036 H   0  0  0  0  0  0  0  0  0  0  0  0
   -1.2835   -0.9405    2.6744 N   0  0  0  0  0  0  0  0  0  0  0  0
   -0.5399    0.1771    2.0653 C   0  0  2  0  0  0  0  0  0  0  0  0
    0.3844   -0.2562    0.9005 C   0  0  0  0  0  0  0  0  0  0  0  0
    1.6032   -0.2596    0.9837 O   0  0  0  0  0  0  0  0  0  0  0  0
    0.2412    0.8687    3.1898 C   0  0  0  0  0  0  0  0  0  0  0  0
   -1.1891   -1.0666    3.6800 H   0  0  0  0  0  0  0  0  0  0  0  0
   -1.2545    0.9033    1.6643 H   0  0  0  0  0  0  0  0  0  0  0  0
    0.9582    0.1781    3.6461 H   0  0  0  0  0  0  0  0  0  0  0  0
    0.7944    1.7267    2.7937 H   0  0  0  0  0  0  0  0  0  0  0  0
   -0.4411    1.2311    3.9647 H   0  0  0  0  0  0  0  0  0  0  0  0
   -0.1935   -0.4600   -0.3376 N   0  0  0  0  0  0  0  0  0  0  0  0
    0.4953   -0.2558   -1.6218 C   0  0  2  0  0  0  0  0  0  0  0  0
    0.9857    1.1902   -1.8172 C   0  0  0  0  0  0  0  0  0  0  0  0
    2.0331    1.4049   -2.4065 O   0  0  0  0  0  0  0  0  0  0  0  0
   -0.4333   -0.6750   -2.7718 C   0  0  0  0  0  0  0  0  0  0  0  0
   -0.7865   -2.1443   -2.6933 C   0  0  0  0  0  0  0  0  0  0  0  0
   -1.5124   -2.7852   -1.6829 N   0  3  0  0  0  0  0  0  0  0  0  0
   -0.4554   -3.0964   -3.6244 C   0  0  0  0  0  0  0  0  0  0  0  0
   -1.6205   -4.0643   -1.9412 C   0  0  0  0  0  0  0  0  0  0  0  0
   -0.9781   -4.2960   -3.1554 N   0  0  0  0  0  0  0  0  0  0  0  0
   -1.2100   -0.3840   -0.3202 H   0  0  0  0  0  0  0  0  0  0  0  0
    1.3869   -0.8945   -1.6432 H   0  0  0  0  0  0  0  0  0  0  0  0
    0.0712   -0.4694   -3.7234 H   0  0  0  0  0  0  0  0  0  0  0  0
   -1.3489   -0.0747   -2.7530 H   0  0  0  0  0  0  0  0  0  0  0  0
   -1.8420   -2.3057   -0.8315 H   0  0  0  0  0  0  0  0  0  0  0  0
    0.1131   -2.9349   -4.5409 H   0  0  0  0  0  0  0  0  0  0  0  0
   -2.1144   -4.8071   -1.3127 H   0  0  0  0  0  0  0  0  0  0  0  0
   -0.8859   -5.2050   -3.6186 H   0  0  0  0  0  0  0  0  0  0  0  0
    0.1450    2.2401   -1.5050 N   0  0  0  0  0  0  0  0  0  0  0  0
    0.6548    3.5852   -1.2115 C   0  0  2  0  0  0  0  0  0  0  0  0
    0.2765    3.9767    0.2337 C   0  0  0  0  0  0  0  0  0  0  0  0
   -0.5483    3.3010    0.8466 O   0  0  0  0  0  0  0  0  0  0  0  0
    0.0545    4.5612   -2.2255 C   0  0  0  0  0  0  0  0  0  0  0  0
   -0.6555    1.9765   -0.9337 H   0  0  0  0  0  0  0  0  0  0  0  0
    1.7475    3.6159   -1.2895 H   0  0  0  0  0  0  0  0  0  0  0  0
   -1.0380    4.5657   -2.1565 H   0  0  0  0  0  0  0  0  0  0  0  0
    0.4187    5.5769   -2.0435 H   0  0  0  0  0  0  0  0  0  0  0  0
    0.3392    4.2705   -3.2416 H   0  0  0  0  0  0  0  0  0  0  0  0
    0.8614    5.0633    0.8549 N   0  0  0  0  0  0  0  0  0  0  0  0
    0.5634    5.4592    2.2270 C   0  0  0  0  0  0  0  0  0  0  0  0
    1.5670    5.5813    0.3375 H   0  0  0  0  0  0  0  0  0  0  0  0
   -0.5033    5.6798    2.3410 H   0  0  0  0  0  0  0  0  0  0  0  0
    0.8345    4.6595    2.9244 H   0  0  0  0  0  0  0  0  0  0  0  0
    1.1299    6.3569    2.4944 H   0  0  0  0  0  0  0  0  0  0  0  0
  1  2  2  0  0  0  0
  1  3  1  0  0  0  0
  1  7  1  0  0  0  0
  3  4  1  0  0  0  0
  3  5  1  0  0  0  0
  3  6  1  0  0  0  0
  7  8  1  0  0  0  0
  7 12  1  0  0  0  0
  8  9  1  0  0  0  0
  8 11  1  0  0  0  0
  8 13  1  0  0  0  0
  9 10  2  0  0  0  0
  9 17  1  0  0  0  0
 11 14  1  0  0  0  0
 11 15  1  0  0  0  0
 11 16  1  0  0  0  0
 17 18  1  0  0  0  0
 17 27  1  0  0  0  0
 18 19  1  0  0  0  0
 18 21  1  0  0  0  0
 18 28  1  0  0  0  0
 19 20  2  0  0  0  0
 19 35  1  0  0  0  0
 21 22  1  0  0  0  0
 21 29  1  0  0  0  0
 21 30  1  0  0  0  0
 22 23  1  0  0  0  0
 22 24  2  0  0  0  0
 23 25  2  0  0  0  0
 23 31  1  0  0  0  0
 24 26  1  0  0  0  0
 24 32  1  0  0  0  0
 25 26  1  0  0  0  0
 25 33  1  0  0  0  0
 26 34  1  0  0  0  0
 35 36  1  0  0  0  0
 35 40  1  0  0  0  0
 36 37  1  0  0  0  0
 36 39  1  0  0  0  0
 36 41  1  0  0  0  0
 37 38  2  0  0  0  0
 37 45  1  0  0  0  0
 39 42  1  0  0  0  0
 39 43  1  0  0  0  0
 39 44  1  0  0  0  0
 45 46  1  0  0  0  0
 45 47  1  0  0  0  0
 46 48  1  0  0  0  0
 46 49  1  0  0  0  0
 46 50  1  0  0  0  0
M  CHG  1  23   1
M  END
$$$$

  -OEChem-02062319093D

 50 50  0     1  0  0  0  0  0999 V2000
   -2.5025   -1.6782    1.9514 C   0  0  0  0  0  0  0  0  0  0  0  0
   -2.6560   -1.5132    0.7440 O   0  0  0  0  0  0  0  0  0  0  0  0
   -3.3965   -2.6522    2.6948 C   0  0  0  0  0  0  0  0  0  0  0  0
   -4.1809   -3.0308    2.0337 H   0  0  0  0  0  0  0  0  0  0  0  0
   -2.8071   -3.4949    3.0651 H   0  0  0  0  0  0  0  0  0  0  0  0
   -3.8695   -2.1509    3.5434 H   0  0  0  0  0  0  0  0  0  0  0  0
   -1.4904   -1.0337    2.6340 N   0  0  0  0  0  0  0  0  0  0  0  0
   -0.6652    0.0704    2.1130 C   0  0  2  0  0  0  0  0  0  0  0  0
    0.2680   -0.3300    0.9428 C   0  0  0  0  0  0  0  0  0  0  0  0
    1.4692   -0.5056    1.0858 O   0  0  0  0  0  0  0  0  0  0  0  0
    0.1243    0.6269    3.3050 C   0  0  0  0  0  0  0  0  0  0  0  0
   -1.4162   -1.2374    3.6283 H   0  0  0  0  0  0  0  0  0  0  0  0
   -1.3185    0.8700    1.7467 H   0  0  0  0  0  0  0  0  0  0  0  0
    0.7780   -0.1419    3.7297 H   0  0  0  0  0  0  0  0  0  0  0  0
    0.7473    1.4686    2.9875 H   0  0  0  0  0  0  0  0  0  0  0  0
   -0.5559    0.9813    4.0855 H   0  0  0  0  0  0  0  0  0  0  0  0
   -0.2740   -0.4604   -0.3237 N   0  0  0  0  0  0  0  0  0  0  0  0
    0.5145   -0.5215   -1.5674 C   0  0  2  0  0  0  0  0  0  0  0  0
    1.3621    0.7443   -1.7828 C   0  0  0  0  0  0  0  0  0  0  0  0
    2.4734    0.6637   -2.2828 O   0  0  0  0  0  0  0  0  0  0  0  0
   -0.4080   -0.7660   -2.7694 C   0  0  0  0  0  0  0  0  0  0  0  0
   -0.9956   -2.1575   -2.7274 C   0  0  0  0  0  0  0  0  0  0  0  0
   -1.8239   -2.6946   -1.7375 N   0  3  0  0  0  0  0  0  0  0  0  0
   -0.8035   -3.1333   -3.6730 C   0  0  0  0  0  0  0  0  0  0  0  0
   -2.1291   -3.9357   -2.0232 C   0  0  0  0  0  0  0  0  0  0  0  0
   -1.5136   -4.2445   -3.2340 N   0  0  0  0  0  0  0  0  0  0  0  0
   -1.2741   -0.2723   -0.3750 H   0  0  0  0  0  0  0  0  0  0  0  0
    1.2206   -1.3573   -1.4933 H   0  0  0  0  0  0  0  0  0  0  0  0
    0.1717   -0.6439   -3.6920 H   0  0  0  0  0  0  0  0  0  0  0  0
   -1.2093   -0.0199   -2.7886 H   0  0  0  0  0  0  0  0  0  0  0  0
   -2.0932   -2.1822   -0.8841 H   0  0  0  0  0  0  0  0  0  0  0  0
   -0.2018   -3.0464   -4.5784 H   0  0  0  0  0  0  0  0  0  0  0  0
   -2.7447   -4.6013   -1.4166 H   0  0  0  0  0  0  0  0  0  0  0  0
   -1.5582   -5.1483   -3.7142 H   0  0  0  0  0  0  0  0  0  0  0  0
    0.7836    1.9794   -1.5703 N   0  0  0  0  0  0  0  0  0  0  0  0
    1.5920    3.1357   -1.1704 C   0  0  2  0  0  0  0  0  0  0  0  0
    1.2860    3.4840    0.3025 C   0  0  0  0  0  0  0  0  0  0  0  0
    0.2587    3.0536    0.8257 O   0  0  0  0  0  0  0  0  0  0  0  0
    1.2528    4.3044   -2.0973 C   0  0  0  0  0  0  0  0  0  0  0  0
   -0.1057    1.9268   -1.0769 H   0  0  0  0  0  0  0  0  0  0  0  0
    2.6624    2.9164   -1.2516 H   0  0  0  0  0  0  0  0  0  0  0  0
    0.1909    4.5601   -2.0216 H   0  0  0  0  0  0  0  0  0  0  0  0
    1.8430    5.1876   -1.8334 H   0  0  0  0  0  0  0  0  0  0  0  0
    1.4754    4.0384   -3.1357 H   0  0  0  0  0  0  0  0  0  0  0  0
    2.1592    4.2559    1.0438 N   0  0  0  0  0  0  0  0  0  0  0  0
    1.9659    4.5511    2.4588 C   0  0  0  0  0  0  0  0  0  0  0  0
    3.0303    4.5367    0.6010 H   0  0  0  0  0  0  0  0  0  0  0  0
    0.9730    4.9799    2.6322 H   0  0  0  0  0  0  0  0  0  0  0  0
    2.0659    3.6395    3.0572 H   0  0  0  0  0  0  0  0  0  0  0  0
    2.7143    5.2731    2.8000 H   0  0  0  0  0  0  0  0  0  0  0  0
  1  2  2  0  0  0  0
  1  3  1  0  0  0  0
  1  7  1  0  0  0  0
  3  4  1  0  0  0  0
  3  5  1  0  0  0  0
  3  6  1  0  0  0  0
  7  8  1  0  0  0  0
  7 12  1  0  0  0  0
  8  9  1  0  0  0  0
  8 11  1  0  0  0  0
  8 13  1  0  0  0  0
  9 10  2  0  0  0  0
  9 17  1  0  0  0  0
 11 14  1  0  0  0  0
 11 15  1  0  0  0  0
 11 16  1  0  0  0  0
 17 18  1  0  0  0  0
 17 27  1  0  0  0  0
 18 19  1  0  0  0  0
 18 21  1  0  0  0  0
 18 28  1  0  0  0  0
 19 20  2  0  0  0  0
 19 35  1  0  0  0  0
 21 22  1  0  0  0  0
 21 29  1  0  0  0  0
 21 30  1  0  0  0  0
 22 23  1  0  0  0  0
 22 24  2  0  0  0  0
 23 25  2  0  0  0  0
 23 31  1  0  0  0  0
 24 26  1  0  0  0  0
 24 32  1  0  0  0  0
 25 26  1  0  0  0  0
 25 33  1  0  0  0  0
 26 34  1  0  0  0  0
 35 36  1  0  0  0  0
 35 40  1  0  0  0  0
 36 37  1  0  0  0  0
 36 39  1  0  0  0  0
 36 41  1  0  0  0  0
 37 38  2  0  0  0  0
 37 45  1  0  0  0  0
 39 42  1  0  0  0  0
 39 43  1  0  0  0  0
 39 44  1  0  0  0  0
 45 46  1  0  0  0  0
 45 47  1  0  0  0  0
 46 48  1  0  0  0  0
 46 49  1  0  0  0  0
 46 50  1  0  0  0  0
M  CHG  1  23   1
M  END
$$$$
