
  -OEChem-02062319033D

 50 50  0     1  0  0  0  0  0999 V2000
   -1.6938    0.4865    3.8080 C   0  0  0  0  0  0  0  0  0  0  0  0
   -0.7464   -0.1282    3.3323 O   0  0  0  0  0  0  0  0  0  0  0  0
   -2.1257    0.2041    5.2087 C   0  0  0  0  0  0  0  0  0  0  0  0
   -2.8853   -0.5922    5.2621 H   0  0  0  0  0  0  0  0  0  0  0  0
   -1.2944   -0.1435    5.8430 H   0  0  0  0  0  0  0  0  0  0  0  0
   -2.5637    1.0590    5.7483 H   0  0  0  0  0  0  0  0  0  0  0  0
   -2.4435    1.4589    3.1669 N   0  0  0  0  0  0  0  0  0  0  0  0
   -2.1966    1.8850    1.8145 C   0  0  2  0  0  0  0  0  0  0  0  0
   -0.8617    1.2996    1.3733 C   0  0  0  0  0  0  0  0  0  0  0  0
    0.0104    0.9468    2.1646 O   0  0  0  0  0  0  0  0  0  0  0  0
   -2.1879    3.4017    1.7050 C   0  0  0  0  0  0  0  0  0  0  0  0
   -3.2085    1.8948    3.6787 H   0  0  0  0  0  0  0  0  0  0  0  0
   -3.0007    1.4665    1.1994 H   0  0  0  0  0  0  0  0  0  0  0  0
   -1.3888    3.8390    2.3147 H   0  0  0  0  0  0  0  0  0  0  0  0
   -2.0284    3.7240    0.6708 H   0  0  0  0  0  0  0  0  0  0  0  0
   -3.1380    3.8230    2.0508 H   0  0  0  0  0  0  0  0  0  0  0  0
   -0.7390    1.2565   -0.0101 N   0  0  0  0  0  0  0  0  0  0  0  0
    0.4335    0.7446   -0.6738 C   0  0  2  0  0  0  0  0  0  0  0  0
    1.6142    1.5987   -0.2261 C   0  0  0  0  0  0  0  0  0  0  0  0
    2.7083    1.1242    0.0721 O   0  0  0  0  0  0  0  0  0  0  0  0
    0.2973    0.7819   -2.2004 C   0  0  0  0  0  0  0  0  0  0  0  0
   -0.8056   -0.1134   -2.7100 C   0  0  0  0  0  0  0  0  0  0  0  0
   -0.6674   -1.4797   -2.7579 N   0  3  0  0  0  0  0  0  0  0  0  0
   -2.0520    0.1730   -3.1908 C   0  0  0  0  0  0  0  0  0  0  0  0
   -1.7850   -2.0237   -3.2501 C   0  0  0  0  0  0  0  0  0  0  0  0
   -2.6354   -1.0274   -3.5178 N   0  0  0  0  0  0  0  0  0  0  0  0
   -1.5190    1.5615   -0.5874 H   0  0  0  0  0  0  0  0  0  0  0  0
    0.5746   -0.2807   -0.3122 H   0  0  0  0  0  0  0  0  0  0  0  0
    1.2483    0.5028   -2.6740 H   0  0  0  0  0  0  0  0  0  0  0  0
    0.0949    1.8055   -2.5425 H   0  0  0  0  0  0  0  0  0  0  0  0
    0.1552   -2.0006   -2.4666 H   0  0  0  0  0  0  0  0  0  0  0  0
   -2.6263    1.0627   -3.3561 H   0  0  0  0  0  0  0  0  0  0  0  0
   -1.9669   -3.0743   -3.4040 H   0  0  0  0  0  0  0  0  0  0  0  0
   -3.5681   -1.1429   -3.9040 H   0  0  0  0  0  0  0  0  0  0  0  0
    1.3135    2.9535   -0.2482 N   0  0  0  0  0  0  0  0  0  0  0  0
    2.2631    3.9831    0.1082 C   0  0  2  0  0  0  0  0  0  0  0  0
    2.8800    3.6099    1.4497 C   0  0  0  0  0  0  0  0  0  0  0  0
    2.3347    2.8548    2.2520 O   0  0  0  0  0  0  0  0  0  0  0  0
    1.5983    5.3492    0.1768 C   0  0  0  0  0  0  0  0  0  0  0  0
    0.3790    3.2356   -0.5290 H   0  0  0  0  0  0  0  0  0  0  0  0
    3.0391    3.9790   -0.6650 H   0  0  0  0  0  0  0  0  0  0  0  0
    0.8179    5.3725    0.9461 H   0  0  0  0  0  0  0  0  0  0  0  0
    2.3246    6.1321    0.4189 H   0  0  0  0  0  0  0  0  0  0  0  0
    1.1295    5.6029   -0.7801 H   0  0  0  0  0  0  0  0  0  0  0  0
    4.0909    4.2532    1.6643 N   0  0  0  0  0  0  0  0  0  0  0  0
    4.8662    4.0737    2.8696 C   0  0  0  0  0  0  0  0  0  0  0  0
    4.4770    4.8473    0.9365 H   0  0  0  0  0  0  0  0  0  0  0  0
    4.5957    4.8509    3.5994 H   0  0  0  0  0  0  0  0  0  0  0  0
    4.6566    3.0815    3.2959 H   0  0  0  0  0  0  0  0  0  0  0  0
    5.9373    4.1515    2.6313 H   0  0  0  0  0  0  0  0  0  0  0  0
 22 24  2  0  0  0  0
 24 26  1  0  0  0  0
 25 26  1  0  0  0  0
 23 25  2  0  0  0  0
 21 22  1  0  0  0  0
 22 23  1  0  0  0  0
  1  3  1  0  0  0  0
  1  7  1  0  0  0  0
  1  2  2  0  0  0  0
 36 37  1  0  0  0  0
 37 45  1  0  0  0  0
 37 38  2  0  0  0  0
  8  9  1  0  0  0  0
  9 17  1  0  0  0  0
  9 10  2  0  0  0  0
 18 19  1  0  0  0  0
 19 35  1  0  0  0  0
 19 20  2  0  0  0  0
 36 39  1  0  0  0  0
  8 11  1  0  0  0  0
 45 46  1  0  0  0  0
 18 21  1  0  0  0  0
 35 36  1  0  0  0  0
  7  8  1  0  0  0  0
 17 18  1  0  0  0  0
 24 32  1  0  0  0  0
 25 33  1  0  0  0  0
  3  4  1  0  0  0  0
  3  5  1  0  0  0  0
  3  6  1  0  0  0  0
 39 42  1  0  0  0  0
 39 43  1  0  0  0  0
 39 44  1  0  0  0  0
 11 14  1  0  0  0  0
 11 15  1  0  0  0  0
 11 16  1  0  0  0  0
 46 48  1  0  0  0  0
 46 49  1  0  0  0  0
 46 50  1  0  0  0  0
 21 29  1  0  0  0  0
 21 30  1  0  0  0  0
 36 41  1  0  0  0  0
  8 13  1  0  0  0  0
 18 28  1  0  0  0  0
 26 34  1  0  0  0  0
 23 31  1  0  0  0  0
 45 47  1  0  0  0  0
  7 12  1  0  0  0  0
 35 40  1  0  0  0  0
 17 27  1  0  0  0  0
M  CHG  1  23   1
M  END
$$$$

  -OEChem-02062319033D

 50 50  0     1  0  0  0  0  0999 V2000
   -1.6938    0.4865    3.8080 C   0  0  0  0  0  0  0  0  0  0  0  0
   -0.7464   -0.1282    3.3323 O   0  0  0  0  0  0  0  0  0  0  0  0
   -2.1257    0.2041    5.2087 C   0  0  0  0  0  0  0  0  0  0  0  0
   -2.8853   -0.5922    5.2621 H   0  0  0  0  0  0  0  0  0  0  0  0
   -1.2944   -0.1435    5.8430 H   0  0  0  0  0  0  0  0  0  0  0  0
   -2.5637    1.0590    5.7483 H   0  0  0  0  0  0  0  0  0  0  0  0
   -2.4435    1.4589    3.1669 N   0  0  0  0  0  0  0  0  0  0  0  0
   -2.1966    1.8850    1.8145 C   0  0  2  0  0  0  0  0  0  0  0  0
   -0.8617    1.2996    1.3733 C   0  0  0  0  0  0  0  0  0  0  0  0
    0.0104    0.9468    2.1646 O   0  0  0  0  0  0  0  0  0  0  0  0
   -2.1879    3.4017    1.7050 C   0  0  0  0  0  0  0  0  0  0  0  0
   -3.2085    1.8948    3.6787 H   0  0  0  0  0  0  0  0  0  0  0  0
   -3.0007    1.4665    1.1994 H   0  0  0  0  0  0  0  0  0  0  0  0
   -1.3888    3.8390    2.3147 H   0  0  0  0  0  0  0  0  0  0  0  0
   -2.0284    3.7240    0.6708 H   0  0  0  0  0  0  0  0  0  0  0  0
   -3.1380    3.8230    2.0508 H   0  0  0  0  0  0  0  0  0  0  0  0
   -0.7390    1.2565   -0.0101 N   0  0  0  0  0  0  0  0  0  0  0  0
    0.2693    0.4743   -0.6800 C   0  0  2  0  0  0  0  0  0  0  0  0
    1.6252    0.9851   -0.2060 C   0  0  0  0  0  0  0  0  0  0  0  0
    2.5567    0.2383    0.0863 O   0  0  0  0  0  0  0  0  0  0  0  0
    0.1642    0.5787   -2.2058 C   0  0  0  0  0  0  0  0  0  0  0  0
   -1.1264    0.0092   -2.7422 C   0  0  0  0  0  0  0  0  0  0  0  0
   -1.3444   -1.3451   -2.8221 N   0  3  0  0  0  0  0  0  0  0  0  0
   -2.2517    0.6176   -3.2223 C   0  0  0  0  0  0  0  0  0  0  0  0
   -2.5589   -1.5718   -3.3328 C   0  0  0  0  0  0  0  0  0  0  0  0
   -3.1209   -0.3843   -3.5808 N   0  0  0  0  0  0  0  0  0  0  0  0
   -1.4077    1.7647   -0.5838 H   0  0  0  0  0  0  0  0  0  0  0  0
    0.1376   -0.5604   -0.3422 H   0  0  0  0  0  0  0  0  0  0  0  0
    1.0163    0.0742   -2.6812 H   0  0  0  0  0  0  0  0  0  0  0  0
    0.2361    1.6270   -2.5244 H   0  0  0  0  0  0  0  0  0  0  0  0
   -0.6870   -2.0667   -2.5392 H   0  0  0  0  0  0  0  0  0  0  0  0
   -2.5756    1.6287   -3.3693 H   0  0  0  0  0  0  0  0  0  0  0  0
   -3.0035   -2.5364   -3.5126 H   0  0  0  0  0  0  0  0  0  0  0  0
   -4.0476   -0.2471   -3.9744 H   0  0  0  0  0  0  0  0  0  0  0  0
    1.6839    2.3718   -0.1972 N   0  0  0  0  0  0  0  0  0  0  0  0
    2.8626    3.1138    0.1885 C   0  0  2  0  0  0  0  0  0  0  0  0
    3.3477    2.5651    1.5238 C   0  0  0  0  0  0  0  0  0  0  0  0
    2.6175    1.9588    2.3050 O   0  0  0  0  0  0  0  0  0  0  0  0
    2.5715    4.6032    0.2863 C   0  0  0  0  0  0  0  0  0  0  0  0
    0.8567    2.8913   -0.4759 H   0  0  0  0  0  0  0  0  0  0  0  0
    3.6198    2.9267   -0.5807 H   0  0  0  0  0  0  0  0  0  0  0  0
    1.8149    4.8103    1.0520 H   0  0  0  0  0  0  0  0  0  0  0  0
    3.4722    5.1671    0.5507 H   0  0  0  0  0  0  0  0  0  0  0  0
    2.1944    4.9901   -0.6665 H   0  0  0  0  0  0  0  0  0  0  0  0
    4.6811    2.8697    1.7598 N   0  0  0  0  0  0  0  0  0  0  0  0
    5.3707    2.4701    2.9643 C   0  0  0  0  0  0  0  0  0  0  0  0
    5.2151    3.3598    1.0483 H   0  0  0  0  0  0  0  0  0  0  0  0
    5.3014    3.2747    3.7111 H   0  0  0  0  0  0  0  0  0  0  0  0
    4.9078    1.5565    3.3657 H   0  0  0  0  0  0  0  0  0  0  0  0
    6.4282    2.2744    2.7334 H   0  0  0  0  0  0  0  0  0  0  0  0
 22 24  2  0  0  0  0
 24 26  1  0  0  0  0
 25 26  1  0  0  0  0
 23 25  2  0  0  0  0
 21 22  1  0  0  0  0
 22 23  1  0  0  0  0
  1  3  1  0  0  0  0
  1  7  1  0  0  0  0
  1  2  2  0  0  0  0
 36 37  1  0  0  0  0
 37 45  1  0  0  0  0
 37 38  2  0  0  0  0
  8  9  1  0  0  0  0
  9 17  1  0  0  0  0
  9 10  2  0  0  0  0
 18 19  1  0  0  0  0
 19 35  1  0  0  0  0
 19 20  2  0  0  0  0
 36 39  1  0  0  0  0
  8 11  1  0  0  0  0
 45 46  1  0  0  0  0
 18 21  1  0  0  0  0
 35 36  1  0  0  0  0
  7  8  1  0  0  0  0
 17 18  1  0  0  0  0
 24 32  1  0  0  0  0
 25 33  1  0  0  0  0
  3  4  1  0  0  0  0
  3  5  1  0  0  0  0
  3  6  1  0  0  0  0
 39 42  1  0  0  0  0
 39 43  1  0  0  0  0
 39 44  1  0  0  0  0
 11 14  1  0  0  0  0
 11 15  1  0  0  0  0
 11 16  1  0  0  0  0
 46 48  1  0  0  0  0
 46 49  1  0  0  0  0
 46 50  1  0  0  0  0
 21 29  1  0  0  0  0
 21 30  1  0  0  0  0
 36 41  1  0  0  0  0
  8 13  1  0  0  0  0
 18 28  1  0  0  0  0
 26 34  1  0  0  0  0
 23 31  1  0  0  0  0
 45 47  1  0  0  0  0
  7 12  1  0  0  0  0
 35 40  1  0  0  0  0
 17 27  1  0  0  0  0
M  CHG  1  23   1
M  END
$$$$

  -OEChem-02062319033D

 50 50  0     1  0  0  0  0  0999 V2000
   -1.6938    0.4865    3.8080 C   0  0  0  0  0  0  0  0  0  0  0  0
   -0.7464   -0.1282    3.3323 O   0  0  0  0  0  0  0  0  0  0  0  0
   -2.1257    0.2041    5.2087 C   0  0  0  0  0  0  0  0  0  0  0  0
   -2.8853   -0.5922    5.2621 H   0  0  0  0  0  0  0  0  0  0  0  0
   -1.2944   -0.1435    5.8430 H   0  0  0  0  0  0  0  0  0  0  0  0
   -2.5637    1.0590    5.7483 H   0  0  0  0  0  0  0  0  0  0  0  0
   -2.4435    1.4589    3.1669 N   0  0  0  0  0  0  0  0  0  0  0  0
   -2.1966    1.8850    1.8145 C   0  0  2  0  0  0  0  0  0  0  0  0
   -0.8617    1.2996    1.3733 C   0  0  0  0  0  0  0  0  0  0  0  0
    0.0104    0.9468    2.1646 O   0  0  0  0  0  0  0  0  0  0  0  0
   -2.1879    3.4017    1.7050 C   0  0  0  0  0  0  0  0  0  0  0  0
   -3.2085    1.8948    3.6787 H   0  0  0  0  0  0  0  0  0  0  0  0
   -3.0007    1.4665    1.1994 H   0  0  0  0  0  0  0  0  0  0  0  0
   -1.3888    3.8390    2.3147 H   0  0  0  0  0  0  0  0  0  0  0  0
   -2.0284    3.7240    0.6708 H   0  0  0  0  0  0  0  0  0  0  0  0
   -3.1380    3.8230    2.0508 H   0  0  0  0  0  0  0  0  0  0  0  0
   -0.7390    1.2565   -0.0101 N   0  0  0  0  0  0  0  0  0  0  0  0
    0.0411    0.2556   -0.6934 C   0  0  2  0  0  0  0  0  0  0  0  0
    1.4775    0.3892   -0.2005 C   0  0  0  0  0  0  0  0  0  0  0  0
    2.1820   -0.5787    0.0785 O   0  0  0  0  0  0  0  0  0  0  0  0
   -0.0167    0.4168   -2.2168 C   0  0  0  0  0  0  0  0  0  0  0  0
   -1.4045    0.2111   -2.7732 C   0  0  0  0  0  0  0  0  0  0  0  0
   -1.9630   -1.0392   -2.8865 N   0  3  0  0  0  0  0  0  0  0  0  0
   -2.3297    1.0993   -3.2442 C   0  0  0  0  0  0  0  0  0  0  0  0
   -3.1893   -0.9340   -3.4086 C   0  0  0  0  0  0  0  0  0  0  0  0
   -3.4237    0.3634   -3.6310 N   0  0  0  0  0  0  0  0  0  0  0  0
   -1.2478    1.9323   -0.5749 H   0  0  0  0  0  0  0  0  0  0  0  0
   -0.3564   -0.7173   -0.3811 H   0  0  0  0  0  0  0  0  0  0  0  0
    0.6819   -0.2798   -2.6998 H   0  0  0  0  0  0  0  0  0  0  0  0
    0.3263    1.4179   -2.5099 H   0  0  0  0  0  0  0  0  0  0  0  0
   -1.5169   -1.9119   -2.6176 H   0  0  0  0  0  0  0  0  0  0  0  0
   -2.3806    2.1627   -3.3686 H   0  0  0  0  0  0  0  0  0  0  0  0
   -3.8654   -1.7472   -3.6136 H   0  0  0  0  0  0  0  0  0  0  0  0
   -4.2794    0.7434   -4.0258 H   0  0  0  0  0  0  0  0  0  0  0  0
    1.8913    1.7134   -0.1583 N   0  0  0  0  0  0  0  0  0  0  0  0
    3.2171    2.1179    0.2509 C   0  0  2  0  0  0  0  0  0  0  0  0
    3.5298    1.4337    1.5752 C   0  0  0  0  0  0  0  0  0  0  0  0
    2.6594    1.0192    2.3380 O   0  0  0  0  0  0  0  0  0  0  0  0
    3.3184    3.6295    0.3829 C   0  0  0  0  0  0  0  0  0  0  0  0
    1.2290    2.4345   -0.4287 H   0  0  0  0  0  0  0  0  0  0  0  0
    3.9090    1.7587   -0.5187 H   0  0  0  0  0  0  0  0  0  0  0  0
    2.6323    4.0078    1.1495 H   0  0  0  0  0  0  0  0  0  0  0  0
    4.3309    3.9362    0.6652 H   0  0  0  0  0  0  0  0  0  0  0  0
    3.0642    4.1211   -0.5623 H   0  0  0  0  0  0  0  0  0  0  0  0
    4.8938    1.3790    1.8251 N   0  0  0  0  0  0  0  0  0  0  0  0
    5.4439    0.7890    3.0231 C   0  0  0  0  0  0  0  0  0  0  0  0
    5.5440    1.7303    1.1282 H   0  0  0  0  0  0  0  0  0  0  0  0
    5.5760    1.5678    3.7887 H   0  0  0  0  0  0  0  0  0  0  0  0
    4.7570    0.0171    3.4003 H   0  0  0  0  0  0  0  0  0  0  0  0
    6.4178    0.3324    2.7930 H   0  0  0  0  0  0  0  0  0  0  0  0
 22 24  2  0  0  0  0
 24 26  1  0  0  0  0
 25 26  1  0  0  0  0
 23 25  2  0  0  0  0
 21 22  1  0  0  0  0
 22 23  1  0  0  0  0
  1  3  1  0  0  0  0
  1  7  1  0  0  0  0
  1  2  2  0  0  0  0
 36 37  1  0  0  0  0
 37 45  1  0  0  0  0
 37 38  2  0  0  0  0
  8  9  1  0  0  0  0
  9 17  1  0  0  0  0
  9 10  2  0  0  0  0
 18 19  1  0  0  0  0
 19 35  1  0  0  0  0
 19 20  2  0  0  0  0
 36 39  1  0  0  0  0
  8 11  1  0  0  0  0
 45 46  1  0  0  0  0
 18 21  1  0  0  0  0
 35 36  1  0  0  0  0
  7  8  1  0  0  0  0
 17 18  1  0  0  0  0
 24 32  1  0  0  0  0
 25 33  1  0  0  0  0
  3  4  1  0  0  0  0
  3  5  1  0  0  0  0
  3  6  1  0  0  0  0
 39 42  1  0  0  0  0
 39 43  1  0  0  0  0
 39 44  1  0  0  0  0
 11 14  1  0  0  0  0
 11 15  1  0  0  0  0
 11 16  1  0  0  0  0
 46 48  1  0  0  0  0
 46 49  1  0  0  0  0
 46 50  1  0  0  0  0
 21 29  1  0  0  0  0
 21 30  1  0  0  0  0
 36 41  1  0  0  0  0
  8 13  1  0  0  0  0
 18 28  1  0  0  0  0
 26 34  1  0  0  0  0
 23 31  1  0  0  0  0
 45 47  1  0  0  0  0
  7 12  1  0  0  0  0
 35 40  1  0  0  0  0
 17 27  1  0  0  0  0
M  CHG  1  23   1
M  END
$$$$

  -OEChem-02062319033D

 50 50  0     1  0  0  0  0  0999 V2000
   -1.6938    0.4865    3.8080 C   0  0  0  0  0  0  0  0  0  0  0  0
   -0.7464   -0.1282    3.3323 O   0  0  0  0  0  0  0  0  0  0  0  0
   -2.1257    0.2041    5.2087 C   0  0  0  0  0  0  0  0  0  0  0  0
   -2.8853   -0.5922    5.2621 H   0  0  0  0  0  0  0  0  0  0  0  0
   -1.2944   -0.1435    5.8430 H   0  0  0  0  0  0  0  0  0  0  0  0
   -2.5637    1.0590    5.7483 H   0  0  0  0  0  0  0  0  0  0  0  0
   -2.4435    1.4589    3.1669 N   0  0  0  0  0  0  0  0  0  0  0  0
   -2.1966    1.8850    1.8145 C   0  0  2  0  0  0  0  0  0  0  0  0
   -0.8617    1.2996    1.3733 C   0  0  0  0  0  0  0  0  0  0  0  0
    0.0104    0.9468    2.1646 O   0  0  0  0  0  0  0  0  0  0  0  0
   -2.1879    3.4017    1.7050 C   0  0  0  0  0  0  0  0  0  0  0  0
   -3.2085    1.8948    3.6787 H   0  0  0  0  0  0  0  0  0  0  0  0
   -3.0007    1.4665    1.1994 H   0  0  0  0  0  0  0  0  0  0  0  0
   -1.3888    3.8390    2.3147 H   0  0  0  0  0  0  0  0  0  0  0  0
   -2.0284    3.7240    0.6708 H   0  0  0  0  0  0  0  0  0  0  0  0
   -3.1380    3.8230    2.0508 H   0  0  0  0  0  0  0  0  0  0  0  0
   -0.7390    1.2565   -0.0101 N   0  0  0  0  0  0  0  0  0  0  0  0
   -0.2356    0.1034   -0.7132 C   0  0  2  0  0  0  0  0  0  0  0  0
    1.1813   -0.1485   -0.2100 C   0  0  0  0  0  0  0  0  0  0  0  0
    1.6095   -1.2711    0.0493 O   0  0  0  0  0  0  0  0  0  0  0  0
   -0.2331    0.3073   -2.2326 C   0  0  0  0  0  0  0  0  0  0  0  0
   -1.6208    0.4784   -2.8007 C   0  0  0  0  0  0  0  0  0  0  0  0
   -2.4813   -0.5828   -2.9466 N   0  3  0  0  0  0  0  0  0  0  0  0
   -2.2807    1.5852   -3.2550 C   0  0  0  0  0  0  0  0  0  0  0  0
   -3.6332   -0.1537   -3.4723 C   0  0  0  0  0  0  0  0  0  0  0  0
   -3.5231    1.1647   -3.6648 N   0  0  0  0  0  0  0  0  0  0  0  0
   -1.0503    2.0528   -0.5611 H   0  0  0  0  0  0  0  0  0  0  0  0
   -0.8737   -0.7406   -0.4262 H   0  0  0  0  0  0  0  0  0  0  0  0
    0.2678   -0.5352   -2.7286 H   0  0  0  0  0  0  0  0  0  0  0  0
    0.3594    1.1923   -2.4999 H   0  0  0  0  0  0  0  0  0  0  0  0
   -2.2780   -1.5467   -2.6965 H   0  0  0  0  0  0  0  0  0  0  0  0
   -2.0546    2.6282   -3.3542 H   0  0  0  0  0  0  0  0  0  0  0  0
   -4.4936   -0.7605   -3.7001 H   0  0  0  0  0  0  0  0  0  0  0  0
   -4.2476    1.7610   -4.0547 H   0  0  0  0  0  0  0  0  0  0  0  0
    1.9217    1.0230   -0.1341 N   0  0  0  0  0  0  0  0  0  0  0  0
    3.3024    1.0631    0.2914 C   0  0  2  0  0  0  0  0  0  0  0  0
    3.4136    0.2927    1.6004 C   0  0  0  0  0  0  0  0  0  0  0  0
    2.4575    0.1001    2.3487 O   0  0  0  0  0  0  0  0  0  0  0  0
    3.7881    2.4942    0.4599 C   0  0  0  0  0  0  0  0  0  0  0  0
    1.4705    1.8962   -0.3905 H   0  0  0  0  0  0  0  0  0  0  0  0
    3.8868    0.5545   -0.4831 H   0  0  0  0  0  0  0  0  0  0  0  0
    3.2142    3.0198    1.2319 H   0  0  0  0  0  0  0  0  0  0  0  0
    4.8423    2.5233    0.7546 H   0  0  0  0  0  0  0  0  0  0  0  0
    3.6796    3.0553   -0.4746 H   0  0  0  0  0  0  0  0  0  0  0  0
    4.7147   -0.1172    1.8558 N   0  0  0  0  0  0  0  0  0  0  0  0
    5.0810   -0.8550    3.0422 C   0  0  0  0  0  0  0  0  0  0  0  0
    5.4411    0.0698    1.1708 H   0  0  0  0  0  0  0  0  0  0  0  0
    5.4008   -0.1534    3.8268 H   0  0  0  0  0  0  0  0  0  0  0  0
    4.2143   -1.4318    3.3973 H   0  0  0  0  0  0  0  0  0  0  0  0
    5.9069   -1.5421    2.8061 H   0  0  0  0  0  0  0  0  0  0  0  0
 22 24  2  0  0  0  0
 24 26  1  0  0  0  0
 25 26  1  0  0  0  0
 23 25  2  0  0  0  0
 21 22  1  0  0  0  0
 22 23  1  0  0  0  0
  1  3  1  0  0  0  0
  1  7  1  0  0  0  0
  1  2  2  0  0  0  0
 36 37  1  0  0  0  0
 37 45  1  0  0  0  0
 37 38  2  0  0  0  0
  8  9  1  0  0  0  0
  9 17  1  0  0  0  0
  9 10  2  0  0  0  0
 18 19  1  0  0  0  0
 19 35  1  0  0  0  0
 19 20  2  0  0  0  0
 36 39  1  0  0  0  0
  8 11  1  0  0  0  0
 45 46  1  0  0  0  0
 18 21  1  0  0  0  0
 35 36  1  0  0  0  0
  7  8  1  0  0  0  0
 17 18  1  0  0  0  0
 24 32  1  0  0  0  0
 25 33  1  0  0  0  0
  3  4  1  0  0  0  0
  3  5  1  0  0  0  0
  3  6  1  0  0  0  0
 39 42  1  0  0  0  0
 39 43  1  0  0  0  0
 39 44  1  0  0  0  0
 11 14  1  0  0  0  0
 11 15  1  0  0  0  0
 11 16  1  0  0  0  0
 46 48  1  0  0  0  0
 46 49  1  0  0  0  0
 46 50  1  0  0  0  0
 21 29  1  0  0  0  0
 21 30  1  0  0  0  0
 36 41  1  0  0  0  0
  8 13  1  0  0  0  0
 18 28  1  0  0  0  0
 26 34  1  0  0  0  0
 23 31  1  0  0  0  0
 45 47  1  0  0  0  0
  7 12  1  0  0  0  0
 35 40  1  0  0  0  0
 17 27  1  0  0  0  0
M  CHG  1  23   1
M  END
$$$$

  -OEChem-02062319033D

 50 50  0     1  0  0  0  0  0999 V2000
   -1.6938    0.4865    3.8080 C   0  0  0  0  0  0  0  0  0  0  0  0
   -0.7464   -0.1282    3.3323 O   0  0  0  0  0  0  0  0  0  0  0  0
   -2.1257    0.2041    5.2087 C   0  0  0  0  0  0  0  0  0  0  0  0
   -2.8853   -0.5922    5.2621 H   0  0  0  0  0  0  0  0  0  0  0  0
   -1.2944   -0.1435    5.8430 H   0  0  0  0  0  0  0  0  0  0  0  0
   -2.5637    1.0590    5.7483 H   0  0  0  0  0  0  0  0  0  0  0  0
   -2.4435    1.4589    3.1669 N   0  0  0  0  0  0  0  0  0  0  0  0
   -2.1966    1.8850    1.8145 C   0  0  2  0  0  0  0  0  0  0  0  0
   -0.8617    1.2996    1.3733 C   0  0  0  0  0  0  0  0  0  0  0  0
    0.0104    0.9468    2.1646 O   0  0  0  0  0  0  0  0  0  0  0  0
   -2.1879    3.4017    1.7050 C   0  0  0  0  0  0  0  0  0  0  0  0
   -3.2085    1.8948    3.6787 H   0  0  0  0  0  0  0  0  0  0  0  0
   -3.0007    1.4665    1.1994 H   0  0  0  0  0  0  0  0  0  0  0  0
   -1.3888    3.8390    2.3147 H   0  0  0  0  0  0  0  0  0  0  0  0
   -2.0284    3.7240    0.6708 H   0  0  0  0  0  0  0  0  0  0  0  0
   -3.1380    3.8230    2.0508 H   0  0  0  0  0  0  0  0  0  0  0  0
   -0.7390    1.2565   -0.0101 N   0  0  0  0  0  0  0  0  0  0  0  0
   -0.5419    0.0282   -0.7380 C   0  0  2  0  0  0  0  0  0  0  0  0
    0.7567   -0.5913   -0.2338 C   0  0  0  0  0  0  0  0  0  0  0  0
    0.8784   -1.7918    0.0007 O   0  0  0  0  0  0  0  0  0  0  0  0
   -0.4702    0.2576   -2.2521 C   0  0  0  0  0  0  0  0  0  0  0  0
   -1.7606    0.7931   -2.8229 C   0  0  0  0  0  0  0  0  0  0  0  0
   -2.8638   -0.0071   -2.9985 N   0  3  0  0  0  0  0  0  0  0  0  0
   -2.1082    2.0422   -3.2540 C   0  0  0  0  0  0  0  0  0  0  0  0
   -3.8605    0.7158   -3.5195 C   0  0  0  0  0  0  0  0  0  0  0  0
   -3.4123    1.9652   -3.6799 N   0  0  0  0  0  0  0  0  0  0  0  0
   -0.8286    2.1179   -0.5435 H   0  0  0  0  0  0  0  0  0  0  0  0
   -1.3790   -0.6289   -0.4745 H   0  0  0  0  0  0  0  0  0  0  0  0
   -0.1978   -0.6744   -2.7655 H   0  0  0  0  0  0  0  0  0  0  0  0
    0.3331    0.9656   -2.4952 H   0  0  0  0  0  0  0  0  0  0  0  0
   -2.9184   -0.9960   -2.7704 H   0  0  0  0  0  0  0  0  0  0  0  0
   -1.6199    2.9935   -3.3271 H   0  0  0  0  0  0  0  0  0  0  0  0
   -4.8456    0.3565   -3.7661 H   0  0  0  0  0  0  0  0  0  0  0  0
   -3.9544    2.7364   -4.0591 H   0  0  0  0  0  0  0  0  0  0  0  0
    1.7730    0.3478   -0.1262 N   0  0  0  0  0  0  0  0  0  0  0  0
    3.1126    0.0213    0.3070 C   0  0  2  0  0  0  0  0  0  0  0  0
    3.0072   -0.7800    1.5978 C   0  0  0  0  0  0  0  0  0  0  0  0
    2.0256   -0.7360    2.3365 O   0  0  0  0  0  0  0  0  0  0  0  0
    3.9487    1.2749    0.5122 C   0  0  0  0  0  0  0  0  0  0  0  0
    1.5648    1.3132   -0.3639 H   0  0  0  0  0  0  0  0  0  0  0  0
    3.5548   -0.6037   -0.4765 H   0  0  0  0  0  0  0  0  0  0  0  0
    3.5211    1.9137    1.2936 H   0  0  0  0  0  0  0  0  0  0  0  0
    4.9715    1.0248    0.8128 H   0  0  0  0  0  0  0  0  0  0  0  0
    3.9987    1.8651   -0.4092 H   0  0  0  0  0  0  0  0  0  0  0  0
    4.1559   -1.5169    1.8499 N   0  0  0  0  0  0  0  0  0  0  0  0
    4.3067   -2.3499    3.0201 C   0  0  0  0  0  0  0  0  0  0  0  0
    4.9134   -1.5086    1.1732 H   0  0  0  0  0  0  0  0  0  0  0  0
    4.7877   -1.7718    3.8229 H   0  0  0  0  0  0  0  0  0  0  0  0
    3.3168   -2.6914    3.3570 H   0  0  0  0  0  0  0  0  0  0  0  0
    4.9303   -3.2214    2.7718 H   0  0  0  0  0  0  0  0  0  0  0  0
 22 24  2  0  0  0  0
 24 26  1  0  0  0  0
 25 26  1  0  0  0  0
 23 25  2  0  0  0  0
 21 22  1  0  0  0  0
 22 23  1  0  0  0  0
  1  3  1  0  0  0  0
  1  7  1  0  0  0  0
  1  2  2  0  0  0  0
 36 37  1  0  0  0  0
 37 45  1  0  0  0  0
 37 38  2  0  0  0  0
  8  9  1  0  0  0  0
  9 17  1  0  0  0  0
  9 10  2  0  0  0  0
 18 19  1  0  0  0  0
 19 35  1  0  0  0  0
 19 20  2  0  0  0  0
 36 39  1  0  0  0  0
  8 11  1  0  0  0  0
 45 46  1  0  0  0  0
 18 21  1  0  0  0  0
 35 36  1  0  0  0  0
  7  8  1  0  0  0  0
 17 18  1  0  0  0  0
 24 32  1  0  0  0  0
 25 33  1  0  0  0  0
  3  4  1  0  0  0  0
  3  5  1  0  0  0  0
  3  6  1  0  0  0  0
 39 42  1  0  0  0  0
 39 43  1  0  0  0  0
 39 44  1  0  0  0  0
 11 14  1  0  0  0  0
 11 15  1  0  0  0  0
 11 16  1  0  0  0  0
 46 48  1  0  0  0  0
 46 49  1  0  0  0  0
 46 50  1  0  0  0  0
 21 29  1  0  0  0  0
 21 30  1  0  0  0  0
 36 41  1  0  0  0  0
  8 13  1  0  0  0  0
 18 28  1  0  0  0  0
 26 34  1  0  0  0  0
 23 31  1  0  0  0  0
 45 47  1  0  0  0  0
  7 12  1  0  0  0  0
 35 40  1  0  0  0  0
 17 27  1  0  0  0  0
M  CHG  1  23   1
M  END
$$$$

  -OEChem-02062319033D

 50 50  0     1  0  0  0  0  0999 V2000
   -1.6938    0.4865    3.8080 C   0  0  0  0  0  0  0  0  0  0  0  0
   -0.7464   -0.1282    3.3323 O   0  0  0  0  0  0  0  0  0  0  0  0
   -2.1257    0.2041    5.2087 C   0  0  0  0  0  0  0  0  0  0  0  0
   -2.8853   -0.5922    5.2621 H   0  0  0  0  0  0  0  0  0  0  0  0
   -1.2944   -0.1435    5.8430 H   0  0  0  0  0  0  0  0  0  0  0  0
   -2.5637    1.0590    5.7483 H   0  0  0  0  0  0  0  0  0  0  0  0
   -2.4435    1.4589    3.1669 N   0  0  0  0  0  0  0  0  0  0  0  0
   -2.1966    1.8850    1.8145 C   0  0  2  0  0  0  0  0  0  0  0  0
   -0.8617    1.2996    1.3733 C   0  0  0  0  0  0  0  0  0  0  0  0
    0.0104    0.9468    2.1646 O   0  0  0  0  0  0  0  0  0  0  0  0
   -2.1879    3.4017    1.7050 C   0  0  0  0  0  0  0  0  0  0  0  0
   -3.2085    1.8948    3.6787 H   0  0  0  0  0  0  0  0  0  0  0  0
   -3.0007    1.4665    1.1994 H   0  0  0  0  0  0  0  0  0  0  0  0
   -1.3888    3.8390    2.3147 H   0  0  0  0  0  0  0  0  0  0  0  0
   -2.0284    3.7240    0.6708 H   0  0  0  0  0  0  0  0  0  0  0  0
   -3.1380    3.8230    2.0508 H   0  0  0  0  0  0  0  0  0  0  0  0
   -0.7390    1.2565   -0.0101 N   0  0  0  0  0  0  0  0  0  0  0  0
   -0.8569    0.0351   -0.7661 C   0  0  2  0  0  0  0  0  0  0  0  0
    0.2326   -0.9091   -0.2704 C   0  0  0  0  0  0  0  0  0  0  0  0
    0.0384   -2.1052   -0.0640 O   0  0  0  0  0  0  0  0  0  0  0  0
   -0.7119    0.2712   -2.2739 C   0  0  0  0  0  0  0  0  0  0  0  0
   -1.8145    1.1335   -2.8383 C   0  0  0  0  0  0  0  0  0  0  0  0
   -3.0845    0.6488   -3.0385 N   0  3  0  0  0  0  0  0  0  0  0  0
   -1.8237    2.4391   -3.2411 C   0  0  0  0  0  0  0  0  0  0  0  0
   -3.8555    1.6153   -3.5471 C   0  0  0  0  0  0  0  0  0  0  0  0
   -3.0989    2.7101   -3.6753 N   0  0  0  0  0  0  0  0  0  0  0  0
   -0.5978    2.1233   -0.5232 H   0  0  0  0  0  0  0  0  0  0  0  0
   -1.8379   -0.3896   -0.5227 H   0  0  0  0  0  0  0  0  0  0  0  0
   -0.6831   -0.6882   -2.8081 H   0  0  0  0  0  0  0  0  0  0  0  0
    0.2493    0.7533   -2.4960 H   0  0  0  0  0  0  0  0  0  0  0  0
   -3.3945   -0.2974   -2.8344 H   0  0  0  0  0  0  0  0  0  0  0  0
   -1.1061    3.2338   -3.2890 H   0  0  0  0  0  0  0  0  0  0  0  0
   -4.8972    1.5275   -3.8072 H   0  0  0  0  0  0  0  0  0  0  0  0
   -3.4198    3.6031   -4.0387 H   0  0  0  0  0  0  0  0  0  0  0  0
    1.4553   -0.2663   -0.1353 N   0  0  0  0  0  0  0  0  0  0  0  0
    2.6607   -0.9364    0.2968 C   0  0  2  0  0  0  0  0  0  0  0  0
    2.3382   -1.7114    1.5675 C   0  0  0  0  0  0  0  0  0  0  0  0
    1.3930   -1.4319    2.3021 O   0  0  0  0  0  0  0  0  0  0  0  0
    3.7892    0.0545    0.5361 C   0  0  0  0  0  0  0  0  0  0  0  0
    1.5054    0.7251   -0.3509 H   0  0  0  0  0  0  0  0  0  0  0  0
    2.9356   -1.6371   -0.4991 H   0  0  0  0  0  0  0  0  0  0  0  0
    3.5320    0.7647    1.3303 H   0  0  0  0  0  0  0  0  0  0  0  0
    4.7097   -0.4573    0.8357 H   0  0  0  0  0  0  0  0  0  0  0  0
    3.9997    0.6318   -0.3707 H   0  0  0  0  0  0  0  0  0  0  0  0
    3.2555   -2.7248    1.8077 N   0  0  0  0  0  0  0  0  0  0  0  0
    3.1737   -3.5938    2.9585 C   0  0  0  0  0  0  0  0  0  0  0  0
    3.9970   -2.8974    1.1353 H   0  0  0  0  0  0  0  0  0  0  0  0
    3.7786   -3.1769    3.7772 H   0  0  0  0  0  0  0  0  0  0  0  0
    2.1256   -3.6759    3.2821 H   0  0  0  0  0  0  0  0  0  0  0  0
    3.5545   -4.5910    2.6925 H   0  0  0  0  0  0  0  0  0  0  0  0
 22 24  2  0  0  0  0
 24 26  1  0  0  0  0
 25 26  1  0  0  0  0
 23 25  2  0  0  0  0
 21 22  1  0  0  0  0
 22 23  1  0  0  0  0
  1  3  1  0  0  0  0
  1  7  1  0  0  0  0
  1  2  2  0  0  0  0
 36 37  1  0  0  0  0
 37 45  1  0  0  0  0
 37 38  2  0  0  0  0
  8  9  1  0  0  0  0
  9 17  1  0  0  0  0
  9 10  2  0  0  0  0
 18 19  1  0  0  0  0
 19 35  1  0  0  0  0
 19 20  2  0  0  0  0
 36 39  1  0  0  0  0
  8 11  1  0  0  0  0
 45 46  1  0  0  0  0
 18 21  1  0  0  0  0
 35 36  1  0  0  0  0
  7  8  1  0  0  0  0
 17 18  1  0  0  0  0
 24 32  1  0  0  0  0
 25 33  1  0  0  0  0
  3  4  1  0  0  0  0
  3  5  1  0  0  0  0
  3  6  1  0  0  0  0
 39 42  1  0  0  0  0
 39 43  1  0  0  0  0
 39 44  1  0  0  0  0
 11 14  1  0  0  0  0
 11 15  1  0  0  0  0
 11 16  1  0  0  0  0
 46 48  1  0  0  0  0
 46 49  1  0  0  0  0
 46 50  1  0  0  0  0
 21 29  1  0  0  0  0
 21 30  1  0  0  0  0
 36 41  1  0  0  0  0
  8 13  1  0  0  0  0
 18 28  1  0  0  0  0
 26 34  1  0  0  0  0
 23 31  1  0  0  0  0
 45 47  1  0  0  0  0
  7 12  1  0  0  0  0
 35 40  1  0  0  0  0
 17 27  1  0  0  0  0
M  CHG  1  23   1
M  END
$$$$

  -OEChem-02062319033D

 50 50  0     1  0  0  0  0  0999 V2000
   -1.6938    0.4865    3.8080 C   0  0  0  0  0  0  0  0  0  0  0  0
   -0.7464   -0.1282    3.3323 O   0  0  0  0  0  0  0  0  0  0  0  0
   -2.1257    0.2041    5.2087 C   0  0  0  0  0  0  0  0  0  0  0  0
   -2.8853   -0.5922    5.2621 H   0  0  0  0  0  0  0  0  0  0  0  0
   -1.2944   -0.1435    5.8430 H   0  0  0  0  0  0  0  0  0  0  0  0
   -2.5637    1.0590    5.7483 H   0  0  0  0  0  0  0  0  0  0  0  0
   -2.4435    1.4589    3.1669 N   0  0  0  0  0  0  0  0  0  0  0  0
   -2.1966    1.8850    1.8145 C   0  0  2  0  0  0  0  0  0  0  0  0
   -0.8617    1.2996    1.3733 C   0  0  0  0  0  0  0  0  0  0  0  0
    0.0104    0.9468    2.1646 O   0  0  0  0  0  0  0  0  0  0  0  0
   -2.1879    3.4017    1.7050 C   0  0  0  0  0  0  0  0  0  0  0  0
   -3.2085    1.8948    3.6787 H   0  0  0  0  0  0  0  0  0  0  0  0
   -3.0007    1.4665    1.1994 H   0  0  0  0  0  0  0  0  0  0  0  0
   -1.3888    3.8390    2.3147 H   0  0  0  0  0  0  0  0  0  0  0  0
   -2.0284    3.7240    0.6708 H   0  0  0  0  0  0  0  0  0  0  0  0
   -3.1380    3.8230    2.0508 H   0  0  0  0  0  0  0  0  0  0  0  0
   -0.7390    1.2565   -0.0101 N   0  0  0  0  0  0  0  0  0  0  0  0
   -1.1592    0.1235   -0.7957 C   0  0  2  0  0  0  0  0  0  0  0  0
   -0.3552   -1.0801   -0.3172 C   0  0  0  0  0  0  0  0  0  0  0  0
   -0.8532   -2.1899   -0.1404 O   0  0  0  0  0  0  0  0  0  0  0  0
   -0.9417    0.3471   -2.2967 C   0  0  0  0  0  0  0  0  0  0  0  0
   -1.7786    1.4766   -2.8458 C   0  0  0  0  0  0  0  0  0  0  0  0
   -3.1284    1.3401   -3.0639 N   0  3  0  0  0  0  0  0  0  0  0  0
   -1.4468    2.7488   -3.2174 C   0  0  0  0  0  0  0  0  0  0  0  0
   -3.6187    2.4836   -3.5532 C   0  0  0  0  0  0  0  0  0  0  0  0
   -2.6043    3.3489   -3.6514 N   0  0  0  0  0  0  0  0  0  0  0  0
   -0.3736    2.0686   -0.5016 H   0  0  0  0  0  0  0  0  0  0  0  0
   -2.2191   -0.0391   -0.5674 H   0  0  0  0  0  0  0  0  0  0  0  0
   -1.1551   -0.5754   -2.8535 H   0  0  0  0  0  0  0  0  0  0  0  0
    0.1137    0.5698   -2.5023 H   0  0  0  0  0  0  0  0  0  0  0  0
   -3.6738    0.5016   -2.8841 H   0  0  0  0  0  0  0  0  0  0  0  0
   -0.5482    3.3325   -3.2426 H   0  0  0  0  0  0  0  0  0  0  0  0
   -4.6449    2.6729   -3.8205 H   0  0  0  0  0  0  0  0  0  0  0  0
   -2.6803    4.3021   -3.9949 H   0  0  0  0  0  0  0  0  0  0  0  0
    0.9902   -0.7773   -0.1606 N   0  0  0  0  0  0  0  0  0  0  0  0
    1.9775   -1.7448    0.2614 C   0  0  2  0  0  0  0  0  0  0  0  0
    1.4523   -2.4380    1.5116 C   0  0  0  0  0  0  0  0  0  0  0  0
    0.6029   -1.9404    2.2479 O   0  0  0  0  0  0  0  0  0  0  0  0
    3.3205   -1.0838    0.5300 C   0  0  0  0  0  0  0  0  0  0  0  0
    1.2964    0.1720   -0.3522 H   0  0  0  0  0  0  0  0  0  0  0  0
    2.0714   -2.4751   -0.5496 H   0  0  0  0  0  0  0  0  0  0  0  0
    3.2461   -0.3487    1.3397 H   0  0  0  0  0  0  0  0  0  0  0  0
    4.0747   -1.8219    0.8220 H   0  0  0  0  0  0  0  0  0  0  0  0
    3.6826   -0.5606   -0.3616 H   0  0  0  0  0  0  0  0  0  0  0  0
    2.0749   -3.6586    1.7322 N   0  0  0  0  0  0  0  0  0  0  0  0
    1.7593   -4.5020    2.8614 C   0  0  0  0  0  0  0  0  0  0  0  0
    2.7543   -4.0017    1.0595 H   0  0  0  0  0  0  0  0  0  0  0  0
    2.4421   -4.2730    3.6928 H   0  0  0  0  0  0  0  0  0  0  0  0
    0.7220   -4.3182    3.1776 H   0  0  0  0  0  0  0  0  0  0  0  0
    1.8733   -5.5576    2.5736 H   0  0  0  0  0  0  0  0  0  0  0  0
 22 24  2  0  0  0  0
 24 26  1  0  0  0  0
 25 26  1  0  0  0  0
 23 25  2  0  0  0  0
 21 22  1  0  0  0  0
 22 23  1  0  0  0  0
  1  3  1  0  0  0  0
  1  7  1  0  0  0  0
  1  2  2  0  0  0  0
 36 37  1  0  0  0  0
 37 45  1  0  0  0  0
 37 38  2  0  0  0  0
  8  9  1  0  0  0  0
  9 17  1  0  0  0  0
  9 10  2  0  0  0  0
 18 19  1  0  0  0  0
 19 35  1  0  0  0  0
 19 20  2  0  0  0  0
 36 39  1  0  0  0  0
  8 11  1  0  0  0  0
 45 46  1  0  0  0  0
 18 21  1  0  0  0  0
 35 36  1  0  0  0  0
  7  8  1  0  0  0  0
 17 18  1  0  0  0  0
 24 32  1  0  0  0  0
 25 33  1  0  0  0  0
  3  4  1  0  0  0  0
  3  5  1  0  0  0  0
  3  6  1  0  0  0  0
 39 42  1  0  0  0  0
 39 43  1  0  0  0  0
 39 44  1  0  0  0  0
 11 14  1  0  0  0  0
 11 15  1  0  0  0  0
 11 16  1  0  0  0  0
 46 48  1  0  0  0  0
 46 49  1  0  0  0  0
 46 50  1  0  0  0  0
 21 29  1  0  0  0  0
 21 30  1  0  0  0  0
 36 41  1  0  0  0  0
  8 13  1  0  0  0  0
 18 28  1  0  0  0  0
 26 34  1  0  0  0  0
 23 31  1  0  0  0  0
 45 47  1  0  0  0  0
  7 12  1  0  0  0  0
 35 40  1  0  0  0  0
 17 27  1  0  0  0  0
M  CHG  1  23   1
M  END
$$$$

  -OEChem-02062319033D

 50 50  0     1  0  0  0  0  0999 V2000
   -1.6938    0.4865    3.8080 C   0  0  0  0  0  0  0  0  0  0  0  0
   -0.7464   -0.1282    3.3323 O   0  0  0  0  0  0  0  0  0  0  0  0
   -2.1257    0.2041    5.2087 C   0  0  0  0  0  0  0  0  0  0  0  0
   -2.8853   -0.5922    5.2621 H   0  0  0  0  0  0  0  0  0  0  0  0
   -1.2944   -0.1435    5.8430 H   0  0  0  0  0  0  0  0  0  0  0  0
   -2.5637    1.0590    5.7483 H   0  0  0  0  0  0  0  0  0  0  0  0
   -2.4435    1.4589    3.1669 N   0  0  0  0  0  0  0  0  0  0  0  0
   -2.1966    1.8850    1.8145 C   0  0  2  0  0  0  0  0  0  0  0  0
   -0.8617    1.2996    1.3733 C   0  0  0  0  0  0  0  0  0  0  0  0
    0.0104    0.9468    2.1646 O   0  0  0  0  0  0  0  0  0  0  0  0
   -2.1879    3.4017    1.7050 C   0  0  0  0  0  0  0  0  0  0  0  0
   -3.2085    1.8948    3.6787 H   0  0  0  0  0  0  0  0  0  0  0  0
   -3.0007    1.4665    1.1994 H   0  0  0  0  0  0  0  0  0  0  0  0
   -1.3888    3.8390    2.3147 H   0  0  0  0  0  0  0  0  0  0  0  0
   -2.0284    3.7240    0.6708 H   0  0  0  0  0  0  0  0  0  0  0  0
   -3.1380    3.8230    2.0508 H   0  0  0  0  0  0  0  0  0  0  0  0
   -0.7390    1.2565   -0.0101 N   0  0  0  0  0  0  0  0  0  0  0  0
   -1.4282    0.2875   -0.8247 C   0  0  2  0  0  0  0  0  0  0  0  0
   -0.9667   -1.0928   -0.3710 C   0  0  0  0  0  0  0  0  0  0  0  0
   -1.7357   -2.0403   -0.2233 O   0  0  0  0  0  0  0  0  0  0  0  0
   -1.1439    0.4801   -2.3187 C   0  0  0  0  0  0  0  0  0  0  0  0
   -1.6555    1.7989   -2.8449 C   0  0  0  0  0  0  0  0  0  0  0  0
   -2.9924    2.0197   -3.0731 N   0  3  0  0  0  0  0  0  0  0  0  0
   -1.0031    2.9504   -3.1843 C   0  0  0  0  0  0  0  0  0  0  0  0
   -3.1662    3.2614   -3.5373 C   0  0  0  0  0  0  0  0  0  0  0  0
   -1.9621    3.8378   -3.6097 N   0  0  0  0  0  0  0  0  0  0  0  0
   -0.1714    1.9575   -0.4802 H   0  0  0  0  0  0  0  0  0  0  0  0
   -2.4967    0.3987   -0.6056 H   0  0  0  0  0  0  0  0  0  0  0  0
   -1.5815   -0.3438   -2.8985 H   0  0  0  0  0  0  0  0  0  0  0  0
   -0.0645    0.4277   -2.5137 H   0  0  0  0  0  0  0  0  0  0  0  0
   -3.7374    1.3465   -2.9161 H   0  0  0  0  0  0  0  0  0  0  0  0
    0.0157    3.2831   -3.1911 H   0  0  0  0  0  0  0  0  0  0  0  0
   -4.1060    3.7146   -3.8052 H   0  0  0  0  0  0  0  0  0  0  0  0
   -1.7862    4.7857   -3.9307 H   0  0  0  0  0  0  0  0  0  0  0  0
    0.4095   -1.1506   -0.2004 N   0  0  0  0  0  0  0  0  0  0  0  0
    1.1095   -2.3488    0.2033 C   0  0  2  0  0  0  0  0  0  0  0  0
    0.4097   -2.9103    1.4339 C   0  0  0  0  0  0  0  0  0  0  0  0
   -0.2908   -2.2267    2.1775 O   0  0  0  0  0  0  0  0  0  0  0  0
    2.5744   -2.0623    0.4943 C   0  0  0  0  0  0  0  0  0  0  0  0
    0.9520   -0.3083   -0.3677 H   0  0  0  0  0  0  0  0  0  0  0  0
    1.0211   -3.0608   -0.6245 H   0  0  0  0  0  0  0  0  0  0  0  0
    2.6830   -1.3508    1.3210 H   0  0  0  0  0  0  0  0  0  0  0  0
    3.1098   -2.9762    0.7724 H   0  0  0  0  0  0  0  0  0  0  0  0
    3.0689   -1.6308   -0.3827 H   0  0  0  0  0  0  0  0  0  0  0  0
    0.6944   -4.2546    1.6283 N   0  0  0  0  0  0  0  0  0  0  0  0
    0.1599   -5.0126    2.7355 C   0  0  0  0  0  0  0  0  0  0  0  0
    1.2699   -4.7465    0.9511 H   0  0  0  0  0  0  0  0  0  0  0  0
    0.8694   -4.9855    3.5756 H   0  0  0  0  0  0  0  0  0  0  0  0
   -0.7986   -4.5745    3.0508 H   0  0  0  0  0  0  0  0  0  0  0  0
    0.0012   -6.0553    2.4231 H   0  0  0  0  0  0  0  0  0  0  0  0
 22 24  2  0  0  0  0
 24 26  1  0  0  0  0
 25 26  1  0  0  0  0
 23 25  2  0  0  0  0
 21 22  1  0  0  0  0
 22 23  1  0  0  0  0
  1  3  1  0  0  0  0
  1  7  1  0  0  0  0
  1  2  2  0  0  0  0
 36 37  1  0  0  0  0
 37 45  1  0  0  0  0
 37 38  2  0  0  0  0
  8  9  1  0  0  0  0
  9 17  1  0  0  0  0
  9 10  2  0  0  0  0
 18 19  1  0  0  0  0
 19 35  1  0  0  0  0
 19 20  2  0  0  0  0
 36 39  1  0  0  0  0
  8 11  1  0  0  0  0
 45 46  1  0  0  0  0
 18 21  1  0  0  0  0
 35 36  1  0  0  0  0
  7  8  1  0  0  0  0
 17 18  1  0  0  0  0
 24 32  1  0  0  0  0
 25 33  1  0  0  0  0
  3  4  1  0  0  0  0
  3  5  1  0  0  0  0
  3  6  1  0  0  0  0
 39 42  1  0  0  0  0
 39 43  1  0  0  0  0
 39 44  1  0  0  0  0
 11 14  1  0  0  0  0
 11 15  1  0  0  0  0
 11 16  1  0  0  0  0
 46 48  1  0  0  0  0
 46 49  1  0  0  0  0
 46 50  1  0  0  0  0
 21 29  1  0  0  0  0
 21 30  1  0  0  0  0
 36 41  1  0  0  0  0
  8 13  1  0  0  0  0
 18 28  1  0  0  0  0
 26 34  1  0  0  0  0
 23 31  1  0  0  0  0
 45 47  1  0  0  0  0
  7 12  1  0  0  0  0
 35 40  1  0  0  0  0
 17 27  1  0  0  0  0
M  CHG  1  23   1
M  END
$$$$

  -OEChem-02062319033D

 50 50  0     1  0  0  0  0  0999 V2000
   -1.6938    0.4865    3.8080 C   0  0  0  0  0  0  0  0  0  0  0  0
   -0.7464   -0.1282    3.3323 O   0  0  0  0  0  0  0  0  0  0  0  0
   -2.1257    0.2041    5.2087 C   0  0  0  0  0  0  0  0  0  0  0  0
   -2.8853   -0.5922    5.2621 H   0  0  0  0  0  0  0  0  0  0  0  0
   -1.2944   -0.1435    5.8430 H   0  0  0  0  0  0  0  0  0  0  0  0
   -2.5637    1.0590    5.7483 H   0  0  0  0  0  0  0  0  0  0  0  0
   -2.4435    1.4589    3.1669 N   0  0  0  0  0  0  0  0  0  0  0  0
   -2.1966    1.8850    1.8145 C   0  0  2  0  0  0  0  0  0  0  0  0
   -0.8617    1.2996    1.3733 C   0  0  0  0  0  0  0  0  0  0  0  0
    0.0104    0.9468    2.1646 O   0  0  0  0  0  0  0  0  0  0  0  0
   -2.1879    3.4017    1.7050 C   0  0  0  0  0  0  0  0  0  0  0  0
   -3.2085    1.8948    3.6787 H   0  0  0  0  0  0  0  0  0  0  0  0
   -3.0007    1.4665    1.1994 H   0  0  0  0  0  0  0  0  0  0  0  0
   -1.3888    3.8390    2.3147 H   0  0  0  0  0  0  0  0  0  0  0  0
   -2.0284    3.7240    0.6708 H   0  0  0  0  0  0  0  0  0  0  0  0
   -3.1380    3.8230    2.0508 H   0  0  0  0  0  0  0  0  0  0  0  0
   -0.7390    1.2565   -0.0101 N   0  0  0  0  0  0  0  0  0  0  0  0
   -1.6455    0.5159   -0.8510 C   0  0  2  0  0  0  0  0  0  0  0  0
   -1.5602   -0.9463   -0.4282 C   0  0  0  0  0  0  0  0  0  0  0  0
   -2.5489   -1.6665   -0.3070 O   0  0  0  0  0  0  0  0  0  0  0  0
   -1.3047    0.6612   -2.3386 C   0  0  0  0  0  0  0  0  0  0  0  0
   -1.4536    2.0784   -2.8357 C   0  0  0  0  0  0  0  0  0  0  0  0
   -2.6858    2.6414   -3.0652 N   0  3  0  0  0  0  0  0  0  0  0  0
   -0.5229    3.0300   -3.1442 C   0  0  0  0  0  0  0  0  0  0  0  0
   -2.5289    3.8957   -3.5005 C   0  0  0  0  0  0  0  0  0  0  0  0
   -1.2161    4.1437   -3.5531 N   0  0  0  0  0  0  0  0  0  0  0  0
   -0.0048    1.7975   -0.4605 H   0  0  0  0  0  0  0  0  0  0  0  0
   -2.6516    0.8939   -0.6348 H   0  0  0  0  0  0  0  0  0  0  0  0
   -1.9334   -0.0092   -2.9402 H   0  0  0  0  0  0  0  0  0  0  0  0
   -0.2732    0.3366   -2.5293 H   0  0  0  0  0  0  0  0  0  0  0  0
   -3.5808    2.1797   -2.9281 H   0  0  0  0  0  0  0  0  0  0  0  0
    0.5473    3.0889   -3.1379 H   0  0  0  0  0  0  0  0  0  0  0  0
   -3.3171    4.5816   -3.7623 H   0  0  0  0  0  0  0  0  0  0  0  0
   -0.7985    5.0209   -3.8505 H   0  0  0  0  0  0  0  0  0  0  0  0
   -0.2472   -1.3605   -0.2521 N   0  0  0  0  0  0  0  0  0  0  0  0
    0.1160   -2.7072    0.1264 C   0  0  2  0  0  0  0  0  0  0  0  0
   -0.7183   -3.0960    1.3397 C   0  0  0  0  0  0  0  0  0  0  0  0
   -1.2274   -2.2713    2.0959 O   0  0  0  0  0  0  0  0  0  0  0  0
    1.6020   -2.8145    0.4316 C   0  0  0  0  0  0  0  0  0  0  0  0
    0.4957   -0.6831   -0.3965 H   0  0  0  0  0  0  0  0  0  0  0  0
   -0.1437   -3.3542   -0.7187 H   0  0  0  0  0  0  0  0  0  0  0  0
    1.8811   -2.1731    1.2755 H   0  0  0  0  0  0  0  0  0  0  0  0
    1.8808   -3.8413    0.6904 H   0  0  0  0  0  0  0  0  0  0  0  0
    2.2005   -2.5060   -0.4324 H   0  0  0  0  0  0  0  0  0  0  0  0
   -0.7917   -4.4722    1.5034 N   0  0  0  0  0  0  0  0  0  0  0  0
   -1.5157   -5.0907    2.5893 C   0  0  0  0  0  0  0  0  0  0  0  0
   -0.3550   -5.0810    0.8175 H   0  0  0  0  0  0  0  0  0  0  0  0
   -0.8324   -5.2658    3.4335 H   0  0  0  0  0  0  0  0  0  0  0  0
   -2.3323   -4.4273    2.9102 H   0  0  0  0  0  0  0  0  0  0  0  0
   -1.9341   -6.0503    2.2514 H   0  0  0  0  0  0  0  0  0  0  0  0
 22 24  2  0  0  0  0
 24 26  1  0  0  0  0
 25 26  1  0  0  0  0
 23 25  2  0  0  0  0
 21 22  1  0  0  0  0
 22 23  1  0  0  0  0
  1  3  1  0  0  0  0
  1  7  1  0  0  0  0
  1  2  2  0  0  0  0
 36 37  1  0  0  0  0
 37 45  1  0  0  0  0
 37 38  2  0  0  0  0
  8  9  1  0  0  0  0
  9 17  1  0  0  0  0
  9 10  2  0  0  0  0
 18 19  1  0  0  0  0
 19 35  1  0  0  0  0
 19 20  2  0  0  0  0
 36 39  1  0  0  0  0
  8 11  1  0  0  0  0
 45 46  1  0  0  0  0
 18 21  1  0  0  0  0
 35 36  1  0  0  0  0
  7  8  1  0  0  0  0
 17 18  1  0  0  0  0
 24 32  1  0  0  0  0
 25 33  1  0  0  0  0
  3  4  1  0  0  0  0
  3  5  1  0  0  0  0
  3  6  1  0  0  0  0
 39 42  1  0  0  0  0
 39 43  1  0  0  0  0
 39 44  1  0  0  0  0
 11 14  1  0  0  0  0
 11 15  1  0  0  0  0
 11 16  1  0  0  0  0
 46 48  1  0  0  0  0
 46 49  1  0  0  0  0
 46 50  1  0  0  0  0
 21 29  1  0  0  0  0
 21 30  1  0  0  0  0
 36 41  1  0  0  0  0
  8 13  1  0  0  0  0
 18 28  1  0  0  0  0
 26 34  1  0  0  0  0
 23 31  1  0  0  0  0
 45 47  1  0  0  0  0
  7 12  1  0  0  0  0
 35 40  1  0  0  0  0
 17 27  1  0  0  0  0
M  CHG  1  23   1
M  END
$$$$

  -OEChem-02062319033D

 50 50  0     1  0  0  0  0  0999 V2000
   -1.6938    0.4865    3.8080 C   0  0  0  0  0  0  0  0  0  0  0  0
   -0.7464   -0.1282    3.3323 O   0  0  0  0  0  0  0  0  0  0  0  0
   -2.1257    0.2041    5.2087 C   0  0  0  0  0  0  0  0  0  0  0  0
   -2.8853   -0.5922    5.2621 H   0  0  0  0  0  0  0  0  0  0  0  0
   -1.2944   -0.1435    5.8430 H   0  0  0  0  0  0  0  0  0  0  0  0
   -2.5637    1.0590    5.7483 H   0  0  0  0  0  0  0  0  0  0  0  0
   -2.4435    1.4589    3.1669 N   0  0  0  0  0  0  0  0  0  0  0  0
   -2.1966    1.8850    1.8145 C   0  0  2  0  0  0  0  0  0  0  0  0
   -0.8617    1.2996    1.3733 C   0  0  0  0  0  0  0  0  0  0  0  0
    0.0104    0.9468    2.1646 O   0  0  0  0  0  0  0  0  0  0  0  0
   -2.1879    3.4017    1.7050 C   0  0  0  0  0  0  0  0  0  0  0  0
   -3.2085    1.8948    3.6787 H   0  0  0  0  0  0  0  0  0  0  0  0
   -3.0007    1.4665    1.1994 H   0  0  0  0  0  0  0  0  0  0  0  0
   -1.3888    3.8390    2.3147 H   0  0  0  0  0  0  0  0  0  0  0  0
   -2.0284    3.7240    0.6708 H   0  0  0  0  0  0  0  0  0  0  0  0
   -3.1380    3.8230    2.0508 H   0  0  0  0  0  0  0  0  0  0  0  0
   -0.7390    1.2565   -0.0101 N   0  0  0  0  0  0  0  0  0  0  0  0
   -1.7963    0.7931   -0.8731 C   0  0  2  0  0  0  0  0  0  0  0  0
   -2.0952   -0.6505   -0.4849 C   0  0  0  0  0  0  0  0  0  0  0  0
   -3.2374   -1.0940   -0.3859 O   0  0  0  0  0  0  0  0  0  0  0  0
   -1.4132    0.8781   -2.3550 C   0  0  0  0  0  0  0  0  0  0  0  0
   -1.1865    2.2962   -2.8189 C   0  0  0  0  0  0  0  0  0  0  0  0
   -2.2296    3.1627   -3.0410 N   0  3  0  0  0  0  0  0  0  0  0  0
   -0.0388    2.9822   -3.0998 C   0  0  0  0  0  0  0  0  0  0  0  0
   -1.7500    4.3433   -3.4454 C   0  0  0  0  0  0  0  0  0  0  0  0
   -0.4172    4.2456   -3.4854 N   0  0  0  0  0  0  0  0  0  0  0  0
    0.1147    1.5997   -0.4437 H   0  0  0  0  0  0  0  0  0  0  0  0
   -2.6735    1.4129   -0.6529 H   0  0  0  0  0  0  0  0  0  0  0  0
   -2.1868    0.4056   -2.9755 H   0  0  0  0  0  0  0  0  0  0  0  0
   -0.4982    0.3027   -2.5482 H   0  0  0  0  0  0  0  0  0  0  0  0
   -3.2147    2.9444   -2.9195 H   0  0  0  0  0  0  0  0  0  0  0  0
    1.0103    2.7631   -3.0867 H   0  0  0  0  0  0  0  0  0  0  0  0
   -2.3321    5.2147   -3.6947 H   0  0  0  0  0  0  0  0  0  0  0  0
    0.2155    4.9918   -3.7597 H   0  0  0  0  0  0  0  0  0  0  0  0
   -0.9353   -1.3929   -0.3121 N   0  0  0  0  0  0  0  0  0  0  0  0
   -0.9354   -2.7957    0.0359 C   0  0  2  0  0  0  0  0  0  0  0  0
   -1.8551   -2.9826    1.2354 C   0  0  0  0  0  0  0  0  0  0  0  0
   -2.1428   -2.0712    2.0085 O   0  0  0  0  0  0  0  0  0  0  0  0
    0.4693   -3.2890    0.3459 C   0  0  0  0  0  0  0  0  0  0  0  0
   -0.0414   -0.9269   -0.4365 H   0  0  0  0  0  0  0  0  0  0  0  0
   -1.3437   -3.3352   -0.8256 H   0  0  0  0  0  0  0  0  0  0  0  0
    0.8949   -2.7598    1.2064 H   0  0  0  0  0  0  0  0  0  0  0  0
    0.4713   -4.3583    0.5815 H   0  0  0  0  0  0  0  0  0  0  0  0
    1.1366   -3.1265   -0.5074 H   0  0  0  0  0  0  0  0  0  0  0  0
   -2.2823   -4.2966    1.3657 N   0  0  0  0  0  0  0  0  0  0  0  0
   -3.1530   -4.7311    2.4330 C   0  0  0  0  0  0  0  0  0  0  0  0
   -2.0095   -4.9823    0.6677 H   0  0  0  0  0  0  0  0  0  0  0  0
   -2.5473   -5.0947    3.2761 H   0  0  0  0  0  0  0  0  0  0  0  0
   -3.7747   -3.8868    2.7655 H   0  0  0  0  0  0  0  0  0  0  0  0
   -3.8008   -5.5428    2.0701 H   0  0  0  0  0  0  0  0  0  0  0  0
 22 24  2  0  0  0  0
 24 26  1  0  0  0  0
 25 26  1  0  0  0  0
 23 25  2  0  0  0  0
 21 22  1  0  0  0  0
 22 23  1  0  0  0  0
  1  3  1  0  0  0  0
  1  7  1  0  0  0  0
  1  2  2  0  0  0  0
 36 37  1  0  0  0  0
 37 45  1  0  0  0  0
 37 38  2  0  0  0  0
  8  9  1  0  0  0  0
  9 17  1  0  0  0  0
  9 10  2  0  0  0  0
 18 19  1  0  0  0  0
 19 35  1  0  0  0  0
 19 20  2  0  0  0  0
 36 39  1  0  0  0  0
  8 11  1  0  0  0  0
 45 46  1  0  0  0  0
 18 21  1  0  0  0  0
 35 36  1  0  0  0  0
  7  8  1  0  0  0  0
 17 18  1  0  0  0  0
 24 32  1  0  0  0  0
 25 33  1  0  0  0  0
  3  4  1  0  0  0  0
  3  5  1  0  0  0  0
  3  6  1  0  0  0  0
 39 42  1  0  0  0  0
 39 43  1  0  0  0  0
 39 44  1  0  0  0  0
 11 14  1  0  0  0  0
 11 15  1  0  0  0  0
 11 16  1  0  0  0  0
 46 48  1  0  0  0  0
 46 49  1  0  0  0  0
 46 50  1  0  0  0  0
 21 29  1  0  0  0  0
 21 30  1  0  0  0  0
 36 41  1  0  0  0  0
  8 13  1  0  0  0  0
 18 28  1  0  0  0  0
 26 34  1  0  0  0  0
 23 31  1  0  0  0  0
 45 47  1  0  0  0  0
  7 12  1  0  0  0  0
 35 40  1  0  0  0  0
 17 27  1  0  0  0  0
M  CHG  1  23   1
M  END
$$$$

  -OEChem-02062319033D

 50 50  0     1  0  0  0  0  0999 V2000
   -1.6938    0.4865    3.8080 C   0  0  0  0  0  0  0  0  0  0  0  0
   -0.7464   -0.1282    3.3323 O   0  0  0  0  0  0  0  0  0  0  0  0
   -2.1257    0.2041    5.2087 C   0  0  0  0  0  0  0  0  0  0  0  0
   -2.8853   -0.5922    5.2621 H   0  0  0  0  0  0  0  0  0  0  0  0
   -1.2944   -0.1435    5.8430 H   0  0  0  0  0  0  0  0  0  0  0  0
   -2.5637    1.0590    5.7483 H   0  0  0  0  0  0  0  0  0  0  0  0
   -2.4435    1.4589    3.1669 N   0  0  0  0  0  0  0  0  0  0  0  0
   -2.1966    1.8850    1.8145 C   0  0  2  0  0  0  0  0  0  0  0  0
   -0.8617    1.2996    1.3733 C   0  0  0  0  0  0  0  0  0  0  0  0
    0.0104    0.9468    2.1646 O   0  0  0  0  0  0  0  0  0  0  0  0
   -2.1879    3.4017    1.7050 C   0  0  0  0  0  0  0  0  0  0  0  0
   -3.2085    1.8948    3.6787 H   0  0  0  0  0  0  0  0  0  0  0  0
   -3.0007    1.4665    1.1994 H   0  0  0  0  0  0  0  0  0  0  0  0
   -1.3888    3.8390    2.3147 H   0  0  0  0  0  0  0  0  0  0  0  0
   -2.0284    3.7240    0.6708 H   0  0  0  0  0  0  0  0  0  0  0  0
   -3.1380    3.8230    2.0508 H   0  0  0  0  0  0  0  0  0  0  0  0
   -0.7390    1.2565   -0.0101 N   0  0  0  0  0  0  0  0  0  0  0  0
   -1.8704    1.1003   -0.8892 C   0  0  2  0  0  0  0  0  0  0  0  0
   -2.5354   -0.2256   -0.5371 C   0  0  0  0  0  0  0  0  0  0  0  0
   -3.7542   -0.3618   -0.4546 O   0  0  0  0  0  0  0  0  0  0  0  0
   -1.4621    1.1159   -2.3668 C   0  0  0  0  0  0  0  0  0  0  0  0
   -0.8726    2.4374   -2.7954 C   0  0  0  0  0  0  0  0  0  0  0  0
   -1.6548    3.5481   -3.0021 N   0  3  0  0  0  0  0  0  0  0  0  0
    0.4161    2.8103   -3.0541 C   0  0  0  0  0  0  0  0  0  0  0  0
   -0.8829    4.5737   -3.3757 C   0  0  0  0  0  0  0  0  0  0  0  0
    0.3802    4.1366   -3.4113 N   0  0  0  0  0  0  0  0  0  0  0  0
    0.1790    1.3774   -0.4311 H   0  0  0  0  0  0  0  0  0  0  0  0
   -2.5607    1.9203   -0.6587 H   0  0  0  0  0  0  0  0  0  0  0  0
   -2.3243    0.8724   -3.0023 H   0  0  0  0  0  0  0  0  0  0  0  0
   -0.7240    0.3284   -2.5690 H   0  0  0  0  0  0  0  0  0  0  0  0
   -2.6642    3.5885   -2.8908 H   0  0  0  0  0  0  0  0  0  0  0  0
    1.3732    2.3280   -3.0409 H   0  0  0  0  0  0  0  0  0  0  0  0
   -1.2180    5.5710   -3.6070 H   0  0  0  0  0  0  0  0  0  0  0  0
    1.1868    4.7003   -3.6645 H   0  0  0  0  0  0  0  0  0  0  0  0
   -1.6078   -1.2456   -0.3763 N   0  0  0  0  0  0  0  0  0  0  0  0
   -1.9731   -2.6081   -0.0620 C   0  0  2  0  0  0  0  0  0  0  0  0
   -2.9230   -2.5777    1.1281 C   0  0  0  0  0  0  0  0  0  0  0  0
   -2.9748   -1.6401    1.9213 O   0  0  0  0  0  0  0  0  0  0  0  0
   -0.7463   -3.4535    0.2433 C   0  0  0  0  0  0  0  0  0  0  0  0
   -0.6227   -1.0231   -0.4851 H   0  0  0  0  0  0  0  0  0  0  0  0
   -2.4970   -3.0053   -0.9382 H   0  0  0  0  0  0  0  0  0  0  0  0
   -0.2084   -3.0708    1.1183 H   0  0  0  0  0  0  0  0  0  0  0  0
   -1.0224   -4.4921    0.4533 H   0  0  0  0  0  0  0  0  0  0  0  0
   -0.0503   -3.4499   -0.6025 H   0  0  0  0  0  0  0  0  0  0  0  0
   -3.6757   -3.7398    1.2248 N   0  0  0  0  0  0  0  0  0  0  0  0
   -4.6407   -3.9582    2.2770 C   0  0  0  0  0  0  0  0  0  0  0  0
   -3.5811   -4.4572    0.5120 H   0  0  0  0  0  0  0  0  0  0  0  0
   -4.1584   -4.4840    3.1142 H   0  0  0  0  0  0  0  0  0  0  0  0
   -5.0275   -2.9896    2.6265 H   0  0  0  0  0  0  0  0  0  0  0  0
   -5.4716   -4.5674    1.8915 H   0  0  0  0  0  0  0  0  0  0  0  0
 22 24  2  0  0  0  0
 24 26  1  0  0  0  0
 25 26  1  0  0  0  0
 23 25  2  0  0  0  0
 21 22  1  0  0  0  0
 22 23  1  0  0  0  0
  1  3  1  0  0  0  0
  1  7  1  0  0  0  0
  1  2  2  0  0  0  0
 36 37  1  0  0  0  0
 37 45  1  0  0  0  0
 37 38  2  0  0  0  0
  8  9  1  0  0  0  0
  9 17  1  0  0  0  0
  9 10  2  0  0  0  0
 18 19  1  0  0  0  0
 19 35  1  0  0  0  0
 19 20  2  0  0  0  0
 36 39  1  0  0  0  0
  8 11  1  0  0  0  0
 45 46  1  0  0  0  0
 18 21  1  0  0  0  0
 35 36  1  0  0  0  0
  7  8  1  0  0  0  0
 17 18  1  0  0  0  0
 24 32  1  0  0  0  0
 25 33  1  0  0  0  0
  3  4  1  0  0  0  0
  3  5  1  0  0  0  0
  3  6  1  0  0  0  0
 39 42  1  0  0  0  0
 39 43  1  0  0  0  0
 39 44  1  0  0  0  0
 11 14  1  0  0  0  0
 11 15  1  0  0  0  0
 11 16  1  0  0  0  0
 46 48  1  0  0  0  0
 46 49  1  0  0  0  0
 46 50  1  0  0  0  0
 21 29  1  0  0  0  0
 21 30  1  0  0  0  0
 36 41  1  0  0  0  0
  8 13  1  0  0  0  0
 18 28  1  0  0  0  0
 26 34  1  0  0  0  0
 23 31  1  0  0  0  0
 45 47  1  0  0  0  0
  7 12  1  0  0  0  0
 35 40  1  0  0  0  0
 17 27  1  0  0  0  0
M  CHG  1  23   1
M  END
$$$$

  -OEChem-02062319033D

 50 50  0     1  0  0  0  0  0999 V2000
   -1.6938    0.4865    3.8080 C   0  0  0  0  0  0  0  0  0  0  0  0
   -0.7464   -0.1282    3.3323 O   0  0  0  0  0  0  0  0  0  0  0  0
   -2.1257    0.2041    5.2087 C   0  0  0  0  0  0  0  0  0  0  0  0
   -2.8853   -0.5922    5.2621 H   0  0  0  0  0  0  0  0  0  0  0  0
   -1.2944   -0.1435    5.8430 H   0  0  0  0  0  0  0  0  0  0  0  0
   -2.5637    1.0590    5.7483 H   0  0  0  0  0  0  0  0  0  0  0  0
   -2.4435    1.4589    3.1669 N   0  0  0  0  0  0  0  0  0  0  0  0
   -2.1966    1.8850    1.8145 C   0  0  2  0  0  0  0  0  0  0  0  0
   -0.8617    1.2996    1.3733 C   0  0  0  0  0  0  0  0  0  0  0  0
    0.0104    0.9468    2.1646 O   0  0  0  0  0  0  0  0  0  0  0  0
   -2.1879    3.4017    1.7050 C   0  0  0  0  0  0  0  0  0  0  0  0
   -3.2085    1.8948    3.6787 H   0  0  0  0  0  0  0  0  0  0  0  0
   -3.0007    1.4665    1.1994 H   0  0  0  0  0  0  0  0  0  0  0  0
   -1.3888    3.8390    2.3147 H   0  0  0  0  0  0  0  0  0  0  0  0
   -2.0284    3.7240    0.6708 H   0  0  0  0  0  0  0  0  0  0  0  0
   -3.1380    3.8230    2.0508 H   0  0  0  0  0  0  0  0  0  0  0  0
   -0.7390    1.2565   -0.0101 N   0  0  0  0  0  0  0  0  0  0  0  0
   -1.8627    1.4164   -0.8984 C   0  0  2  0  0  0  0  0  0  0  0  0
   -2.8506    0.2994   -0.5814 C   0  0  0  0  0  0  0  0  0  0  0  0
   -4.0642    0.4802   -0.5083 O   0  0  0  0  0  0  0  0  0  0  0  0
   -1.4479    1.3584   -2.3731 C   0  0  0  0  0  0  0  0  0  0  0  0
   -0.5332    2.4924   -2.7670 C   0  0  0  0  0  0  0  0  0  0  0  0
   -1.0006    3.7713   -2.9510 N   0  3  0  0  0  0  0  0  0  0  0  0
    0.8109    2.5260   -3.0102 C   0  0  0  0  0  0  0  0  0  0  0  0
    0.0136    4.5712   -3.2962 C   0  0  0  0  0  0  0  0  0  0  0  0
    1.1217    3.8242   -3.3358 N   0  0  0  0  0  0  0  0  0  0  0  0
    0.1838    1.1458   -0.4235 H   0  0  0  0  0  0  0  0  0  0  0  0
   -2.3210    2.3814   -0.6519 H   0  0  0  0  0  0  0  0  0  0  0  0
   -2.3366    1.3594   -3.0186 H   0  0  0  0  0  0  0  0  0  0  0  0
   -0.9353    0.4119   -2.5904 H   0  0  0  0  0  0  0  0  0  0  0  0
   -1.9666    4.0682   -2.8439 H   0  0  0  0  0  0  0  0  0  0  0  0
    1.6112    1.8131   -3.0038 H   0  0  0  0  0  0  0  0  0  0  0  0
   -0.0508    5.6259   -3.5052 H   0  0  0  0  0  0  0  0  0  0  0  0
    2.0491    4.1663   -3.5714 H   0  0  0  0  0  0  0  0  0  0  0  0
   -2.2189   -0.9284   -0.4404 N   0  0  0  0  0  0  0  0  0  0  0  0
   -2.9263   -2.1573   -0.1605 C   0  0  2  0  0  0  0  0  0  0  0  0
   -3.8494   -1.9090    1.0251 C   0  0  0  0  0  0  0  0  0  0  0  0
   -3.6666   -1.0072    1.8402 O   0  0  0  0  0  0  0  0  0  0  0  0
   -1.9621   -3.2968    0.1306 C   0  0  0  0  0  0  0  0  0  0  0  0
   -1.2086   -0.9652   -0.5388 H   0  0  0  0  0  0  0  0  0  0  0  0
   -3.5251   -2.3868   -1.0486 H   0  0  0  0  0  0  0  0  0  0  0  0
   -1.3534   -3.0848    1.0172 H   0  0  0  0  0  0  0  0  0  0  0  0
   -2.4987   -4.2334    0.3143 H   0  0  0  0  0  0  0  0  0  0  0  0
   -1.2794   -3.4543   -0.7114 H   0  0  0  0  0  0  0  0  0  0  0  0
   -4.8770   -2.8396    1.0903 N   0  0  0  0  0  0  0  0  0  0  0  0
   -5.8773   -2.8248    2.1320 C   0  0  0  0  0  0  0  0  0  0  0  0
   -4.9626   -3.5414    0.3610 H   0  0  0  0  0  0  0  0  0  0  0  0
   -5.5559   -3.4752    2.9589 H   0  0  0  0  0  0  0  0  0  0  0  0
   -6.0054   -1.7971    2.5026 H   0  0  0  0  0  0  0  0  0  0  0  0
   -6.8327   -3.1906    1.7279 H   0  0  0  0  0  0  0  0  0  0  0  0
 22 24  2  0  0  0  0
 24 26  1  0  0  0  0
 25 26  1  0  0  0  0
 23 25  2  0  0  0  0
 21 22  1  0  0  0  0
 22 23  1  0  0  0  0
  1  3  1  0  0  0  0
  1  7  1  0  0  0  0
  1  2  2  0  0  0  0
 36 37  1  0  0  0  0
 37 45  1  0  0  0  0
 37 38  2  0  0  0  0
  8  9  1  0  0  0  0
  9 17  1  0  0  0  0
  9 10  2  0  0  0  0
 18 19  1  0  0  0  0
 19 35  1  0  0  0  0
 19 20  2  0  0  0  0
 36 39  1  0  0  0  0
  8 11  1  0  0  0  0
 45 46  1  0  0  0  0
 18 21  1  0  0  0  0
 35 36  1  0  0  0  0
  7  8  1  0  0  0  0
 17 18  1  0  0  0  0
 24 32  1  0  0  0  0
 25 33  1  0  0  0  0
  3  4  1  0  0  0  0
  3  5  1  0  0  0  0
  3  6  1  0  0  0  0
 39 42  1  0  0  0  0
 39 43  1  0  0  0  0
 39 44  1  0  0  0  0
 11 14  1  0  0  0  0
 11 15  1  0  0  0  0
 11 16  1  0  0  0  0
 46 48  1  0  0  0  0
 46 49  1  0  0  0  0
 46 50  1  0  0  0  0
 21 29  1  0  0  0  0
 21 30  1  0  0  0  0
 36 41  1  0  0  0  0
  8 13  1  0  0  0  0
 18 28  1  0  0  0  0
 26 34  1  0  0  0  0
 23 31  1  0  0  0  0
 45 47  1  0  0  0  0
  7 12  1  0  0  0  0
 35 40  1  0  0  0  0
 17 27  1  0  0  0  0
M  CHG  1  23   1
M  END
$$$$

  -OEChem-02062319033D

 50 50  0     1  0  0  0  0  0999 V2000
   -1.6938    0.4865    3.8080 C   0  0  0  0  0  0  0  0  0  0  0  0
   -0.7464   -0.1282    3.3323 O   0  0  0  0  0  0  0  0  0  0  0  0
   -2.1257    0.2041    5.2087 C   0  0  0  0  0  0  0  0  0  0  0  0
   -2.8853   -0.5922    5.2621 H   0  0  0  0  0  0  0  0  0  0  0  0
   -1.2944   -0.1435    5.8430 H   0  0  0  0  0  0  0  0  0  0  0  0
   -2.5637    1.0590    5.7483 H   0  0  0  0  0  0  0  0  0  0  0  0
   -2.4435    1.4589    3.1669 N   0  0  0  0  0  0  0  0  0  0  0  0
   -2.1966    1.8850    1.8145 C   0  0  2  0  0  0  0  0  0  0  0  0
   -0.8617    1.2996    1.3733 C   0  0  0  0  0  0  0  0  0  0  0  0
    0.0104    0.9468    2.1646 O   0  0  0  0  0  0  0  0  0  0  0  0
   -2.1879    3.4017    1.7050 C   0  0  0  0  0  0  0  0  0  0  0  0
   -3.2085    1.8948    3.6787 H   0  0  0  0  0  0  0  0  0  0  0  0
   -3.0007    1.4665    1.1994 H   0  0  0  0  0  0  0  0  0  0  0  0
   -1.3888    3.8390    2.3147 H   0  0  0  0  0  0  0  0  0  0  0  0
   -2.0284    3.7240    0.6708 H   0  0  0  0  0  0  0  0  0  0  0  0
   -3.1380    3.8230    2.0508 H   0  0  0  0  0  0  0  0  0  0  0  0
   -0.7390    1.2565   -0.0101 N   0  0  0  0  0  0  0  0  0  0  0  0
   -1.7737    1.7200   -0.8999 C   0  0  2  0  0  0  0  0  0  0  0  0
   -3.0195    0.8887   -0.6148 C   0  0  0  0  0  0  0  0  0  0  0  0
   -4.1463    1.3747   -0.5434 O   0  0  0  0  0  0  0  0  0  0  0  0
   -1.3716    1.5892   -2.3735 C   0  0  0  0  0  0  0  0  0  0  0  0
   -0.1914    2.4573   -2.7356 C   0  0  0  0  0  0  0  0  0  0  0  0
   -0.3115    3.8172   -2.8914 N   0  3  0  0  0  0  0  0  0  0  0  0
    1.1186    2.1486   -2.9712 C   0  0  0  0  0  0  0  0  0  0  0  0
    0.8782    4.3360   -3.2122 C   0  0  0  0  0  0  0  0  0  0  0  0
    1.7569    3.3296   -3.2641 N   0  0  0  0  0  0  0  0  0  0  0  0
    0.1286    0.9207   -0.4213 H   0  0  0  0  0  0  0  0  0  0  0  0
   -1.9706    2.7649   -0.6327 H   0  0  0  0  0  0  0  0  0  0  0  0
   -2.2230    1.8333   -3.0232 H   0  0  0  0  0  0  0  0  0  0  0  0
   -1.1178    0.5475   -2.6108 H   0  0  0  0  0  0  0  0  0  0  0  0
   -1.1696    4.3507   -2.7820 H   0  0  0  0  0  0  0  0  0  0  0  0
    1.7081    1.2535   -2.9778 H   0  0  0  0  0  0  0  0  0  0  0  0
    1.0900    5.3760   -3.3963 H   0  0  0  0  0  0  0  0  0  0  0  0
    2.7436    3.4262   -3.4868 H   0  0  0  0  0  0  0  0  0  0  0  0
   -2.7270   -0.4632   -0.4999 N   0  0  0  0  0  0  0  0  0  0  0  0
   -3.7300   -1.4740   -0.2531 C   0  0  2  0  0  0  0  0  0  0  0  0
   -4.5711   -1.0220    0.9335 C   0  0  0  0  0  0  0  0  0  0  0  0
   -4.1711   -0.2158    1.7708 O   0  0  0  0  0  0  0  0  0  0  0  0
   -3.0952   -2.8295    0.0156 C   0  0  0  0  0  0  0  0  0  0  0  0
   -1.7592   -0.7570   -0.5941 H   0  0  0  0  0  0  0  0  0  0  0  0
   -4.3580   -1.5219   -1.1494 H   0  0  0  0  0  0  0  0  0  0  0  0
   -2.4622   -2.8011    0.9100 H   0  0  0  0  0  0  0  0  0  0  0  0
   -3.8569   -3.6000    0.1741 H   0  0  0  0  0  0  0  0  0  0  0  0
   -2.4669   -3.1394   -0.8265 H   0  0  0  0  0  0  0  0  0  0  0  0
   -5.8043   -1.6574    0.9712 N   0  0  0  0  0  0  0  0  0  0  0  0
   -6.7785   -1.4080    2.0080 C   0  0  0  0  0  0  0  0  0  0  0  0
   -6.0597   -2.2974    0.2249 H   0  0  0  0  0  0  0  0  0  0  0  0
   -6.6447   -2.1372    2.8206 H   0  0  0  0  0  0  0  0  0  0  0  0
   -6.6416   -0.3903    2.4024 H   0  0  0  0  0  0  0  0  0  0  0  0
   -7.7914   -1.5063    1.5905 H   0  0  0  0  0  0  0  0  0  0  0  0
 22 24  2  0  0  0  0
 24 26  1  0  0  0  0
 25 26  1  0  0  0  0
 23 25  2  0  0  0  0
 21 22  1  0  0  0  0
 22 23  1  0  0  0  0
  1  3  1  0  0  0  0
  1  7  1  0  0  0  0
  1  2  2  0  0  0  0
 36 37  1  0  0  0  0
 37 45  1  0  0  0  0
 37 38  2  0  0  0  0
  8  9  1  0  0  0  0
  9 17  1  0  0  0  0
  9 10  2  0  0  0  0
 18 19  1  0  0  0  0
 19 35  1  0  0  0  0
 19 20  2  0  0  0  0
 36 39  1  0  0  0  0
  8 11  1  0  0  0  0
 45 46  1  0  0  0  0
 18 21  1  0  0  0  0
 35 36  1  0  0  0  0
  7  8  1  0  0  0  0
 17 18  1  0  0  0  0
 24 32  1  0  0  0  0
 25 33  1  0  0  0  0
  3  4  1  0  0  0  0
  3  5  1  0  0  0  0
  3  6  1  0  0  0  0
 39 42  1  0  0  0  0
 39 43  1  0  0  0  0
 39 44  1  0  0  0  0
 11 14  1  0  0  0  0
 11 15  1  0  0  0  0
 11 16  1  0  0  0  0
 46 48  1  0  0  0  0
 46 49  1  0  0  0  0
 46 50  1  0  0  0  0
 21 29  1  0  0  0  0
 21 30  1  0  0  0  0
 36 41  1  0  0  0  0
  8 13  1  0  0  0  0
 18 28  1  0  0  0  0
 26 34  1  0  0  0  0
 23 31  1  0  0  0  0
 45 47  1  0  0  0  0
  7 12  1  0  0  0  0
 35 40  1  0  0  0  0
 17 27  1  0  0  0  0
M  CHG  1  23   1
M  END
$$$$

  -OEChem-02062319033D

 50 50  0     1  0  0  0  0  0999 V2000
   -1.6938    0.4865    3.8080 C   0  0  0  0  0  0  0  0  0  0  0  0
   -0.7464   -0.1282    3.3323 O   0  0  0  0  0  0  0  0  0  0  0  0
   -2.1257    0.2041    5.2087 C   0  0  0  0  0  0  0  0  0  0  0  0
   -2.8853   -0.5922    5.2621 H   0  0  0  0  0  0  0  0  0  0  0  0
   -1.2944   -0.1435    5.8430 H   0  0  0  0  0  0  0  0  0  0  0  0
   -2.5637    1.0590    5.7483 H   0  0  0  0  0  0  0  0  0  0  0  0
   -2.4435    1.4589    3.1669 N   0  0  0  0  0  0  0  0  0  0  0  0
   -2.1966    1.8850    1.8145 C   0  0  2  0  0  0  0  0  0  0  0  0
   -0.8617    1.2996    1.3733 C   0  0  0  0  0  0  0  0  0  0  0  0
    0.0104    0.9468    2.1646 O   0  0  0  0  0  0  0  0  0  0  0  0
   -2.1879    3.4017    1.7050 C   0  0  0  0  0  0  0  0  0  0  0  0
   -3.2085    1.8948    3.6787 H   0  0  0  0  0  0  0  0  0  0  0  0
   -3.0007    1.4665    1.1994 H   0  0  0  0  0  0  0  0  0  0  0  0
   -1.3888    3.8390    2.3147 H   0  0  0  0  0  0  0  0  0  0  0  0
   -2.0284    3.7240    0.6708 H   0  0  0  0  0  0  0  0  0  0  0  0
   -3.1380    3.8230    2.0508 H   0  0  0  0  0  0  0  0  0  0  0  0
   -0.7390    1.2565   -0.0101 N   0  0  0  0  0  0  0  0  0  0  0  0
   -1.6096    1.9903   -0.8938 C   0  0  2  0  0  0  0  0  0  0  0  0
   -3.0305    1.5023   -0.6349 C   0  0  0  0  0  0  0  0  0  0  0  0
   -3.9948    2.2606   -0.5576 O   0  0  0  0  0  0  0  0  0  0  0  0
   -1.2385    1.7924   -2.3680 C   0  0  0  0  0  0  0  0  0  0  0  0
    0.1294    2.3347   -2.7034 C   0  0  0  0  0  0  0  0  0  0  0  0
    0.3654    3.6827   -2.8272 N   0  3  0  0  0  0  0  0  0  0  0  0
    1.3182    1.7039   -2.9396 C   0  0  0  0  0  0  0  0  0  0  0  0
    1.6521    3.8841   -3.1295 C   0  0  0  0  0  0  0  0  0  0  0  0
    2.2424    2.6866   -3.2010 N   0  0  0  0  0  0  0  0  0  0  0  0
    0.0173    0.7175   -0.4249 H   0  0  0  0  0  0  0  0  0  0  0  0
   -1.5336    3.0446   -0.6027 H   0  0  0  0  0  0  0  0  0  0  0  0
   -1.9910    2.2618   -3.0160 H   0  0  0  0  0  0  0  0  0  0  0  0
   -1.2590    0.7260   -2.6289 H   0  0  0  0  0  0  0  0  0  0  0  0
   -0.3275    4.4168   -2.7094 H   0  0  0  0  0  0  0  0  0  0  0  0
    1.6573    0.6875   -2.9646 H   0  0  0  0  0  0  0  0  0  0  0  0
    2.1267    4.8380   -3.2876 H   0  0  0  0  0  0  0  0  0  0  0  0
    3.2231    2.5304   -3.4163 H   0  0  0  0  0  0  0  0  0  0  0  0
   -3.0973    0.1185   -0.5509 N   0  0  0  0  0  0  0  0  0  0  0  0
   -4.3296   -0.6047   -0.3333 C   0  0  2  0  0  0  0  0  0  0  0  0
   -5.0388    0.0228    0.8594 C   0  0  0  0  0  0  0  0  0  0  0  0
   -4.4540    0.6802    1.7178 O   0  0  0  0  0  0  0  0  0  0  0  0
   -4.0683   -2.0836   -0.0940 C   0  0  0  0  0  0  0  0  0  0  0  0
   -2.2369   -0.4127   -0.6472 H   0  0  0  0  0  0  0  0  0  0  0  0
   -4.9388   -0.4696   -1.2337 H   0  0  0  0  0  0  0  0  0  0  0  0
   -3.4593   -2.2388    0.8041 H   0  0  0  0  0  0  0  0  0  0  0  0
   -5.0045   -2.6349    0.0423 H   0  0  0  0  0  0  0  0  0  0  0  0
   -3.5318   -2.5265   -0.9400 H   0  0  0  0  0  0  0  0  0  0  0  0
   -6.3945   -0.2739    0.8758 N   0  0  0  0  0  0  0  0  0  0  0  0
   -7.2829    0.1955    1.9133 C   0  0  0  0  0  0  0  0  0  0  0  0
   -6.7979   -0.8100    0.1131 H   0  0  0  0  0  0  0  0  0  0  0  0
   -7.3504   -0.5610    2.7089 H   0  0  0  0  0  0  0  0  0  0  0  0
   -6.8929    1.1347    2.3326 H   0  0  0  0  0  0  0  0  0  0  0  0
   -8.2823    0.3708    1.4884 H   0  0  0  0  0  0  0  0  0  0  0  0
 22 24  2  0  0  0  0
 24 26  1  0  0  0  0
 25 26  1  0  0  0  0
 23 25  2  0  0  0  0
 21 22  1  0  0  0  0
 22 23  1  0  0  0  0
  1  3  1  0  0  0  0
  1  7  1  0  0  0  0
  1  2  2  0  0  0  0
 36 37  1  0  0  0  0
 37 45  1  0  0  0  0
 37 38  2  0  0  0  0
  8  9  1  0  0  0  0
  9 17  1  0  0  0  0
  9 10  2  0  0  0  0
 18 19  1  0  0  0  0
 19 35  1  0  0  0  0
 19 20  2  0  0  0  0
 36 39  1  0  0  0  0
  8 11  1  0  0  0  0
 45 46  1  0  0  0  0
 18 21  1  0  0  0  0
 35 36  1  0  0  0  0
  7  8  1  0  0  0  0
 17 18  1  0  0  0  0
 24 32  1  0  0  0  0
 25 33  1  0  0  0  0
  3  4  1  0  0  0  0
  3  5  1  0  0  0  0
  3  6  1  0  0  0  0
 39 42  1  0  0  0  0
 39 43  1  0  0  0  0
 39 44  1  0  0  0  0
 11 14  1  0  0  0  0
 11 15  1  0  0  0  0
 11 16  1  0  0  0  0
 46 48  1  0  0  0  0
 46 49  1  0  0  0  0
 46 50  1  0  0  0  0
 21 29  1  0  0  0  0
 21 30  1  0  0  0  0
 36 41  1  0  0  0  0
  8 13  1  0  0  0  0
 18 28  1  0  0  0  0
 26 34  1  0  0  0  0
 23 31  1  0  0  0  0
 45 47  1  0  0  0  0
  7 12  1  0  0  0  0
 35 40  1  0  0  0  0
 17 27  1  0  0  0  0
M  CHG  1  23   1
M  END
$$$$

  -OEChem-02062319033D

 50 50  0     1  0  0  0  0  0999 V2000
   -1.6938    0.4865    3.8080 C   0  0  0  0  0  0  0  0  0  0  0  0
   -0.7464   -0.1282    3.3323 O   0  0  0  0  0  0  0  0  0  0  0  0
   -2.1257    0.2041    5.2087 C   0  0  0  0  0  0  0  0  0  0  0  0
   -2.8853   -0.5922    5.2621 H   0  0  0  0  0  0  0  0  0  0  0  0
   -1.2944   -0.1435    5.8430 H   0  0  0  0  0  0  0  0  0  0  0  0
   -2.5637    1.0590    5.7483 H   0  0  0  0  0  0  0  0  0  0  0  0
   -2.4435    1.4589    3.1669 N   0  0  0  0  0  0  0  0  0  0  0  0
   -2.1966    1.8850    1.8145 C   0  0  2  0  0  0  0  0  0  0  0  0
   -0.8617    1.2996    1.3733 C   0  0  0  0  0  0  0  0  0  0  0  0
    0.0104    0.9468    2.1646 O   0  0  0  0  0  0  0  0  0  0  0  0
   -2.1879    3.4017    1.7050 C   0  0  0  0  0  0  0  0  0  0  0  0
   -3.2085    1.8948    3.6787 H   0  0  0  0  0  0  0  0  0  0  0  0
   -3.0007    1.4665    1.1994 H   0  0  0  0  0  0  0  0  0  0  0  0
   -1.3888    3.8390    2.3147 H   0  0  0  0  0  0  0  0  0  0  0  0
   -2.0284    3.7240    0.6708 H   0  0  0  0  0  0  0  0  0  0  0  0
   -3.1380    3.8230    2.0508 H   0  0  0  0  0  0  0  0  0  0  0  0
   -0.7390    1.2565   -0.0101 N   0  0  0  0  0  0  0  0  0  0  0  0
   -1.3814    2.2090   -0.8804 C   0  0  2  0  0  0  0  0  0  0  0  0
   -2.8828    2.0982   -0.6403 C   0  0  0  0  0  0  0  0  0  0  0  0
   -3.6200    3.0776   -0.5498 O   0  0  0  0  0  0  0  0  0  0  0  0
   -1.0575    1.9543   -2.3570 C   0  0  0  0  0  0  0  0  0  0  0  0
    0.4075    2.1328   -2.6724 C   0  0  0  0  0  0  0  0  0  0  0  0
    0.9841    3.3768   -2.7628 N   0  3  0  0  0  0  0  0  0  0  0  0
    1.3962    1.2223   -2.9177 C   0  0  0  0  0  0  0  0  0  0  0  0
    2.2825    3.2462   -3.0537 C   0  0  0  0  0  0  0  0  0  0  0  0
    2.5452    1.9389   -3.1509 N   0  0  0  0  0  0  0  0  0  0  0  0
   -0.1425    0.5499   -0.4338 H   0  0  0  0  0  0  0  0  0  0  0  0
   -1.0396    3.2015   -0.5638 H   0  0  0  0  0  0  0  0  0  0  0  0
   -1.6566    2.6159   -2.9974 H   0  0  0  0  0  0  0  0  0  0  0  0
   -1.3492    0.9352   -2.6434 H   0  0  0  0  0  0  0  0  0  0  0  0
    0.5024    4.2619   -2.6310 H   0  0  0  0  0  0  0  0  0  0  0  0
    1.4623    0.1535   -2.9653 H   0  0  0  0  0  0  0  0  0  0  0  0
    2.9885    4.0489   -3.1866 H   0  0  0  0  0  0  0  0  0  0  0  0
    3.4548    1.5399   -3.3649 H   0  0  0  0  0  0  0  0  0  0  0  0
   -3.3048    0.7769   -0.5898 N   0  0  0  0  0  0  0  0  0  0  0  0
   -4.6841    0.3912   -0.3958 C   0  0  2  0  0  0  0  0  0  0  0  0
   -5.2208    1.1542    0.8080 C   0  0  0  0  0  0  0  0  0  0  0  0
   -4.4959    1.6198    1.6848 O   0  0  0  0  0  0  0  0  0  0  0  0
   -4.8152   -1.1099   -0.1905 C   0  0  0  0  0  0  0  0  0  0  0  0
   -2.6092    0.0441   -0.6945 H   0  0  0  0  0  0  0  0  0  0  0  0
   -5.2279    0.6984   -1.2957 H   0  0  0  0  0  0  0  0  0  0  0  0
   -4.2767   -1.4363    0.7066 H   0  0  0  0  0  0  0  0  0  0  0  0
   -5.8633   -1.4041   -0.0722 H   0  0  0  0  0  0  0  0  0  0  0  0
   -4.4016   -1.6576   -1.0442 H   0  0  0  0  0  0  0  0  0  0  0  0
   -6.6073    1.2167    0.8104 N   0  0  0  0  0  0  0  0  0  0  0  0
   -7.3562    1.8766    1.8544 C   0  0  0  0  0  0  0  0  0  0  0  0
   -7.1267    0.8195    0.0332 H   0  0  0  0  0  0  0  0  0  0  0  0
   -7.6250    1.1459    2.6314 H   0  0  0  0  0  0  0  0  0  0  0  0
   -6.7420    2.6741    2.2980 H   0  0  0  0  0  0  0  0  0  0  0  0
   -8.2719    2.3128    1.4288 H   0  0  0  0  0  0  0  0  0  0  0  0
 22 24  2  0  0  0  0
 24 26  1  0  0  0  0
 25 26  1  0  0  0  0
 23 25  2  0  0  0  0
 21 22  1  0  0  0  0
 22 23  1  0  0  0  0
  1  3  1  0  0  0  0
  1  7  1  0  0  0  0
  1  2  2  0  0  0  0
 36 37  1  0  0  0  0
 37 45  1  0  0  0  0
 37 38  2  0  0  0  0
  8  9  1  0  0  0  0
  9 17  1  0  0  0  0
  9 10  2  0  0  0  0
 18 19  1  0  0  0  0
 19 35  1  0  0  0  0
 19 20  2  0  0  0  0
 36 39  1  0  0  0  0
  8 11  1  0  0  0  0
 45 46  1  0  0  0  0
 18 21  1  0  0  0  0
 35 36  1  0  0  0  0
  7  8  1  0  0  0  0
 17 18  1  0  0  0  0
 24 32  1  0  0  0  0
 25 33  1  0  0  0  0
  3  4  1  0  0  0  0
  3  5  1  0  0  0  0
  3  6  1  0  0  0  0
 39 42  1  0  0  0  0
 39 43  1  0  0  0  0
 39 44  1  0  0  0  0
 11 14  1  0  0  0  0
 11 15  1  0  0  0  0
 11 16  1  0  0  0  0
 46 48  1  0  0  0  0
 46 49  1  0  0  0  0
 46 50  1  0  0  0  0
 21 29  1  0  0  0  0
 21 30  1  0  0  0  0
 36 41  1  0  0  0  0
  8 13  1  0  0  0  0
 18 28  1  0  0  0  0
 26 34  1  0  0  0  0
 23 31  1  0  0  0  0
 45 47  1  0  0  0  0
  7 12  1  0  0  0  0
 35 40  1  0  0  0  0
 17 27  1  0  0  0  0
M  CHG  1  23   1
M  END
$$$$

  -OEChem-02062319033D

 50 50  0     1  0  0  0  0  0999 V2000
   -1.6938    0.4865    3.8080 C   0  0  0  0  0  0  0  0  0  0  0  0
   -0.7464   -0.1282    3.3323 O   0  0  0  0  0  0  0  0  0  0  0  0
   -2.1257    0.2041    5.2087 C   0  0  0  0  0  0  0  0  0  0  0  0
   -2.8853   -0.5922    5.2621 H   0  0  0  0  0  0  0  0  0  0  0  0
   -1.2944   -0.1435    5.8430 H   0  0  0  0  0  0  0  0  0  0  0  0
   -2.5637    1.0590    5.7483 H   0  0  0  0  0  0  0  0  0  0  0  0
   -2.4435    1.4589    3.1669 N   0  0  0  0  0  0  0  0  0  0  0  0
   -2.1966    1.8850    1.8145 C   0  0  2  0  0  0  0  0  0  0  0  0
   -0.8617    1.2996    1.3733 C   0  0  0  0  0  0  0  0  0  0  0  0
    0.0104    0.9468    2.1646 O   0  0  0  0  0  0  0  0  0  0  0  0
   -2.1879    3.4017    1.7050 C   0  0  0  0  0  0  0  0  0  0  0  0
   -3.2085    1.8948    3.6787 H   0  0  0  0  0  0  0  0  0  0  0  0
   -3.0007    1.4665    1.1994 H   0  0  0  0  0  0  0  0  0  0  0  0
   -1.3888    3.8390    2.3147 H   0  0  0  0  0  0  0  0  0  0  0  0
   -2.0284    3.7240    0.6708 H   0  0  0  0  0  0  0  0  0  0  0  0
   -3.1380    3.8230    2.0508 H   0  0  0  0  0  0  0  0  0  0  0  0
   -0.7390    1.2565   -0.0101 N   0  0  0  0  0  0  0  0  0  0  0  0
   -1.1047    2.3611   -0.8606 C   0  0  2  0  0  0  0  0  0  0  0  0
   -2.5865    2.6359   -0.6308 C   0  0  0  0  0  0  0  0  0  0  0  0
   -3.0475    3.7700   -0.5207 O   0  0  0  0  0  0  0  0  0  0  0  0
   -0.8411    2.0638   -2.3412 C   0  0  0  0  0  0  0  0  0  0  0  0
    0.6238    1.8655   -2.6449 C   0  0  0  0  0  0  0  0  0  0  0  0
    1.5024    2.9204   -2.7026 N   0  3  0  0  0  0  0  0  0  0  0  0
    1.3473    0.7364   -2.9069 C   0  0  0  0  0  0  0  0  0  0  0  0
    2.7264    2.4660   -2.9900 C   0  0  0  0  0  0  0  0  0  0  0  0
    2.6446    1.1375   -3.1171 N   0  0  0  0  0  0  0  0  0  0  0  0
   -0.3400    0.4294   -0.4476 H   0  0  0  0  0  0  0  0  0  0  0  0
   -0.5223    3.2248   -0.5187 H   0  0  0  0  0  0  0  0  0  0  0  0
   -1.2424    2.8712   -2.9687 H   0  0  0  0  0  0  0  0  0  0  0  0
   -1.3823    1.1608   -2.6533 H   0  0  0  0  0  0  0  0  0  0  0  0
    1.2635    3.8967   -2.5522 H   0  0  0  0  0  0  0  0  0  0  0  0
    1.1364   -0.3120   -2.9797 H   0  0  0  0  0  0  0  0  0  0  0  0
    3.6168    3.0622   -3.1001 H   0  0  0  0  0  0  0  0  0  0  0  0
    3.4230    0.5223   -3.3360 H   0  0  0  0  0  0  0  0  0  0  0  0
   -3.3352    1.4673   -0.6140 N   0  0  0  0  0  0  0  0  0  0  0  0
   -4.7693    1.4461   -0.4362 C   0  0  2  0  0  0  0  0  0  0  0  0
   -5.1047    2.2952    0.7828 C   0  0  0  0  0  0  0  0  0  0  0  0
   -4.2940    2.5389    1.6741 O   0  0  0  0  0  0  0  0  0  0  0  0
   -5.2850    0.0254   -0.2676 C   0  0  0  0  0  0  0  0  0  0  0  0
   -2.8507    0.5824   -0.7327 H   0  0  0  0  0  0  0  0  0  0  0  0
   -5.2058    1.9025   -1.3313 H   0  0  0  0  0  0  0  0  0  0  0  0
   -4.8586   -0.4483    0.6242 H   0  0  0  0  0  0  0  0  0  0  0  0
   -6.3747    0.0088   -0.1616 H   0  0  0  0  0  0  0  0  0  0  0  0
   -5.0170   -0.5917   -1.1320 H   0  0  0  0  0  0  0  0  0  0  0  0
   -6.4282    2.7129    0.7797 N   0  0  0  0  0  0  0  0  0  0  0  0
   -6.9933    3.5206    1.8353 C   0  0  0  0  0  0  0  0  0  0  0  0
   -7.0238    2.4800   -0.0094 H   0  0  0  0  0  0  0  0  0  0  0  0
   -7.4498    2.8671    2.5933 H   0  0  0  0  0  0  0  0  0  0  0  0
   -6.1993    4.1230    2.3009 H   0  0  0  0  0  0  0  0  0  0  0  0
   -7.7610    4.1873    1.4157 H   0  0  0  0  0  0  0  0  0  0  0  0
 22 24  2  0  0  0  0
 24 26  1  0  0  0  0
 25 26  1  0  0  0  0
 23 25  2  0  0  0  0
 21 22  1  0  0  0  0
 22 23  1  0  0  0  0
  1  3  1  0  0  0  0
  1  7  1  0  0  0  0
  1  2  2  0  0  0  0
 36 37  1  0  0  0  0
 37 45  1  0  0  0  0
 37 38  2  0  0  0  0
  8  9  1  0  0  0  0
  9 17  1  0  0  0  0
  9 10  2  0  0  0  0
 18 19  1  0  0  0  0
 19 35  1  0  0  0  0
 19 20  2  0  0  0  0
 36 39  1  0  0  0  0
  8 11  1  0  0  0  0
 45 46  1  0  0  0  0
 18 21  1  0  0  0  0
 35 36  1  0  0  0  0
  7  8  1  0  0  0  0
 17 18  1  0  0  0  0
 24 32  1  0  0  0  0
 25 33  1  0  0  0  0
  3  4  1  0  0  0  0
  3  5  1  0  0  0  0
  3  6  1  0  0  0  0
 39 42  1  0  0  0  0
 39 43  1  0  0  0  0
 39 44  1  0  0  0  0
 11 14  1  0  0  0  0
 11 15  1  0  0  0  0
 11 16  1  0  0  0  0
 46 48  1  0  0  0  0
 46 49  1  0  0  0  0
 46 50  1  0  0  0  0
 21 29  1  0  0  0  0
 21 30  1  0  0  0  0
 36 41  1  0  0  0  0
  8 13  1  0  0  0  0
 18 28  1  0  0  0  0
 26 34  1  0  0  0  0
 23 31  1  0  0  0  0
 45 47  1  0  0  0  0
  7 12  1  0  0  0  0
 35 40  1  0  0  0  0
 17 27  1  0  0  0  0
M  CHG  1  23   1
M  END
$$$$

  -OEChem-02062319033D

 50 50  0     1  0  0  0  0  0999 V2000
   -1.6938    0.4865    3.8080 C   0  0  0  0  0  0  0  0  0  0  0  0
   -0.7464   -0.1282    3.3323 O   0  0  0  0  0  0  0  0  0  0  0  0
   -2.1257    0.2041    5.2087 C   0  0  0  0  0  0  0  0  0  0  0  0
   -2.8853   -0.5922    5.2621 H   0  0  0  0  0  0  0  0  0  0  0  0
   -1.2944   -0.1435    5.8430 H   0  0  0  0  0  0  0  0  0  0  0  0
   -2.5637    1.0590    5.7483 H   0  0  0  0  0  0  0  0  0  0  0  0
   -2.4435    1.4589    3.1669 N   0  0  0  0  0  0  0  0  0  0  0  0
   -2.1966    1.8850    1.8145 C   0  0  2  0  0  0  0  0  0  0  0  0
   -0.8617    1.2996    1.3733 C   0  0  0  0  0  0  0  0  0  0  0  0
    0.0104    0.9468    2.1646 O   0  0  0  0  0  0  0  0  0  0  0  0
   -2.1879    3.4017    1.7050 C   0  0  0  0  0  0  0  0  0  0  0  0
   -3.2085    1.8948    3.6787 H   0  0  0  0  0  0  0  0  0  0  0  0
   -3.0007    1.4665    1.1994 H   0  0  0  0  0  0  0  0  0  0  0  0
   -1.3888    3.8390    2.3147 H   0  0  0  0  0  0  0  0  0  0  0  0
   -2.0284    3.7240    0.6708 H   0  0  0  0  0  0  0  0  0  0  0  0
   -3.1380    3.8230    2.0508 H   0  0  0  0  0  0  0  0  0  0  0  0
   -0.7390    1.2565   -0.0101 N   0  0  0  0  0  0  0  0  0  0  0  0
   -0.7984    2.4363   -0.8358 C   0  0  2  0  0  0  0  0  0  0  0  0
   -2.1619    3.0787   -0.6070 C   0  0  0  0  0  0  0  0  0  0  0  0
   -2.3164    4.2907   -0.4721 O   0  0  0  0  0  0  0  0  0  0  0  0
   -0.6040    2.1135   -2.3218 C   0  0  0  0  0  0  0  0  0  0  0  0
    0.7637    1.5509   -2.6227 C   0  0  0  0  0  0  0  0  0  0  0  0
    1.8849    2.3447   -2.6508 N   0  3  0  0  0  0  0  0  0  0  0  0
    1.1747    0.2794   -2.9080 C   0  0  0  0  0  0  0  0  0  0  0  0
    2.9536    1.5964   -2.9428 C   0  0  0  0  0  0  0  0  0  0  0  0
    2.5338    0.3371   -3.1020 N   0  0  0  0  0  0  0  0  0  0  0  0
   -0.5618    0.3643   -0.4652 H   0  0  0  0  0  0  0  0  0  0  0  0
   -0.0170    3.1130   -0.4704 H   0  0  0  0  0  0  0  0  0  0  0  0
   -0.7769    3.0105   -2.9317 H   0  0  0  0  0  0  0  0  0  0  0  0
   -1.3560    1.3875   -2.6581 H   0  0  0  0  0  0  0  0  0  0  0  0
    1.9040    3.3460   -2.4782 H   0  0  0  0  0  0  0  0  0  0  0  0
    0.7017   -0.6773   -3.0068 H   0  0  0  0  0  0  0  0  0  0  0  0
    3.9687    1.9452   -3.0341 H   0  0  0  0  0  0  0  0  0  0  0  0
    3.1299   -0.4531   -3.3316 H   0  0  0  0  0  0  0  0  0  0  0  0
   -3.1864    2.1425   -0.6219 N   0  0  0  0  0  0  0  0  0  0  0  0
   -4.5795    2.4878   -0.4519 C   0  0  2  0  0  0  0  0  0  0  0  0
   -4.6983    3.3679    0.7854 C   0  0  0  0  0  0  0  0  0  0  0  0
   -3.8620    3.3750    1.6863 O   0  0  0  0  0  0  0  0  0  0  0  0
   -5.4456    1.2447   -0.3198 C   0  0  0  0  0  0  0  0  0  0  0  0
   -2.9450    1.1655   -0.7592 H   0  0  0  0  0  0  0  0  0  0  0  0
   -4.8738    3.0608   -1.3379 H   0  0  0  0  0  0  0  0  0  0  0  0
   -5.1655    0.6578    0.5625 H   0  0  0  0  0  0  0  0  0  0  0  0
   -6.5039    1.5073   -0.2197 H   0  0  0  0  0  0  0  0  0  0  0  0
   -5.3361    0.5984   -1.1973 H   0  0  0  0  0  0  0  0  0  0  0  0
   -5.8694    4.1127    0.7856 N   0  0  0  0  0  0  0  0  0  0  0  0
   -6.2189    5.0155    1.8574 C   0  0  0  0  0  0  0  0  0  0  0  0
   -6.4962    4.0585   -0.0118 H   0  0  0  0  0  0  0  0  0  0  0  0
   -6.8367    4.4855    2.5972 H   0  0  0  0  0  0  0  0  0  0  0  0
   -5.3018    5.3826    2.3412 H   0  0  0  0  0  0  0  0  0  0  0  0
   -6.7844    5.8666    1.4500 H   0  0  0  0  0  0  0  0  0  0  0  0
 22 24  2  0  0  0  0
 24 26  1  0  0  0  0
 25 26  1  0  0  0  0
 23 25  2  0  0  0  0
 21 22  1  0  0  0  0
 22 23  1  0  0  0  0
  1  3  1  0  0  0  0
  1  7  1  0  0  0  0
  1  2  2  0  0  0  0
 36 37  1  0  0  0  0
 37 45  1  0  0  0  0
 37 38  2  0  0  0  0
  8  9  1  0  0  0  0
  9 17  1  0  0  0  0
  9 10  2  0  0  0  0
 18 19  1  0  0  0  0
 19 35  1  0  0  0  0
 19 20  2  0  0  0  0
 36 39  1  0  0  0  0
  8 11  1  0  0  0  0
 45 46  1  0  0  0  0
 18 21  1  0  0  0  0
 35 36  1  0  0  0  0
  7  8  1  0  0  0  0
 17 18  1  0  0  0  0
 24 32  1  0  0  0  0
 25 33  1  0  0  0  0
  3  4  1  0  0  0  0
  3  5  1  0  0  0  0
  3  6  1  0  0  0  0
 39 42  1  0  0  0  0
 39 43  1  0  0  0  0
 39 44  1  0  0  0  0
 11 14  1  0  0  0  0
 11 15  1  0  0  0  0
 11 16  1  0  0  0  0
 46 48  1  0  0  0  0
 46 49  1  0  0  0  0
 46 50  1  0  0  0  0
 21 29  1  0  0  0  0
 21 30  1  0  0  0  0
 36 41  1  0  0  0  0
  8 13  1  0  0  0  0
 18 28  1  0  0  0  0
 26 34  1  0  0  0  0
 23 31  1  0  0  0  0
 45 47  1  0  0  0  0
  7 12  1  0  0  0  0
 35 40  1  0  0  0  0
 17 27  1  0  0  0  0
M  CHG  1  23   1
M  END
$$$$

  -OEChem-02062319033D

 50 50  0     1  0  0  0  0  0999 V2000
   -1.6938    0.4865    3.8080 C   0  0  0  0  0  0  0  0  0  0  0  0
   -0.7464   -0.1282    3.3323 O   0  0  0  0  0  0  0  0  0  0  0  0
   -2.1257    0.2041    5.2087 C   0  0  0  0  0  0  0  0  0  0  0  0
   -2.8853   -0.5922    5.2621 H   0  0  0  0  0  0  0  0  0  0  0  0
   -1.2944   -0.1435    5.8430 H   0  0  0  0  0  0  0  0  0  0  0  0
   -2.5637    1.0590    5.7483 H   0  0  0  0  0  0  0  0  0  0  0  0
   -2.4435    1.4589    3.1669 N   0  0  0  0  0  0  0  0  0  0  0  0
   -2.1966    1.8850    1.8145 C   0  0  2  0  0  0  0  0  0  0  0  0
   -0.8617    1.2996    1.3733 C   0  0  0  0  0  0  0  0  0  0  0  0
    0.0104    0.9468    2.1646 O   0  0  0  0  0  0  0  0  0  0  0  0
   -2.1879    3.4017    1.7050 C   0  0  0  0  0  0  0  0  0  0  0  0
   -3.2085    1.8948    3.6787 H   0  0  0  0  0  0  0  0  0  0  0  0
   -3.0007    1.4665    1.1994 H   0  0  0  0  0  0  0  0  0  0  0  0
   -1.3888    3.8390    2.3147 H   0  0  0  0  0  0  0  0  0  0  0  0
   -2.0284    3.7240    0.6708 H   0  0  0  0  0  0  0  0  0  0  0  0
   -3.1380    3.8230    2.0508 H   0  0  0  0  0  0  0  0  0  0  0  0
   -0.7390    1.2565   -0.0101 N   0  0  0  0  0  0  0  0  0  0  0  0
   -0.4834    2.4295   -0.8076 C   0  0  2  0  0  0  0  0  0  0  0  0
   -1.6378    3.3965   -0.5704 C   0  0  0  0  0  0  0  0  0  0  0  0
   -1.4764    4.6041   -0.4074 O   0  0  0  0  0  0  0  0  0  0  0  0
   -0.3624    2.0999   -2.2999 C   0  0  0  0  0  0  0  0  0  0  0  0
    0.8175    1.2104   -2.6073 C   0  0  0  0  0  0  0  0  0  0  0  0
    2.1056    1.6888   -2.6107 N   0  3  0  0  0  0  0  0  0  0  0  0
    0.8903   -0.1175   -2.9208 C   0  0  0  0  0  0  0  0  0  0  0  0
    2.9487    0.6969   -2.9152 C   0  0  0  0  0  0  0  0  0  0  0  0
    2.2204   -0.4079   -3.1065 N   0  0  0  0  0  0  0  0  0  0  0  0
   -0.7926    0.3589   -0.4855 H   0  0  0  0  0  0  0  0  0  0  0  0
    0.4419    2.8738   -0.4222 H   0  0  0  0  0  0  0  0  0  0  0  0
   -0.2916    3.0242   -2.8891 H   0  0  0  0  0  0  0  0  0  0  0  0
   -1.2722    1.5998   -2.6573 H   0  0  0  0  0  0  0  0  0  0  0  0
    2.3801    2.6474   -2.4142 H   0  0  0  0  0  0  0  0  0  0  0  0
    0.1879   -0.9175   -3.0449 H   0  0  0  0  0  0  0  0  0  0  0  0
    4.0203    0.7742   -2.9931 H   0  0  0  0  0  0  0  0  0  0  0  0
    2.5953   -1.3198   -3.3520 H   0  0  0  0  0  0  0  0  0  0  0  0
   -2.8687    2.7566   -0.6128 N   0  0  0  0  0  0  0  0  0  0  0  0
   -4.1276    3.4455   -0.4416 C   0  0  2  0  0  0  0  0  0  0  0  0
   -4.0293    4.2993    0.8157 C   0  0  0  0  0  0  0  0  0  0  0  0
   -3.2294    4.0709    1.7207 O   0  0  0  0  0  0  0  0  0  0  0  0
   -5.2861    2.4651   -0.3437 C   0  0  0  0  0  0  0  0  0  0  0  0
   -2.8856    1.7535   -0.7722 H   0  0  0  0  0  0  0  0  0  0  0  0
   -4.2546    4.0941   -1.3153 H   0  0  0  0  0  0  0  0  0  0  0  0
   -5.1763    1.8068    0.5258 H   0  0  0  0  0  0  0  0  0  0  0  0
   -6.2421    2.9894   -0.2427 H   0  0  0  0  0  0  0  0  0  0  0  0
   -5.3371    1.8317   -1.2359 H   0  0  0  0  0  0  0  0  0  0  0  0
   -4.9690    5.3206    0.8278 N   0  0  0  0  0  0  0  0  0  0  0  0
   -5.0860    6.2595    1.9191 C   0  0  0  0  0  0  0  0  0  0  0  0
   -5.5798    5.4472    0.0261 H   0  0  0  0  0  0  0  0  0  0  0  0
   -5.8276    5.8906    2.6429 H   0  0  0  0  0  0  0  0  0  0  0  0
   -4.1106    6.3671    2.4162 H   0  0  0  0  0  0  0  0  0  0  0  0
   -5.4086    7.2362    1.5293 H   0  0  0  0  0  0  0  0  0  0  0  0
 22 24  2  0  0  0  0
 24 26  1  0  0  0  0
 25 26  1  0  0  0  0
 23 25  2  0  0  0  0
 21 22  1  0  0  0  0
 22 23  1  0  0  0  0
  1  3  1  0  0  0  0
  1  7  1  0  0  0  0
  1  2  2  0  0  0  0
 36 37  1  0  0  0  0
 37 45  1  0  0  0  0
 37 38  2  0  0  0  0
  8  9  1  0  0  0  0
  9 17  1  0  0  0  0
  9 10  2  0  0  0  0
 18 19  1  0  0  0  0
 19 35  1  0  0  0  0
 19 20  2  0  0  0  0
 36 39  1  0  0  0  0
  8 11  1  0  0  0  0
 45 46  1  0  0  0  0
 18 21  1  0  0  0  0
 35 36  1  0  0  0  0
  7  8  1  0  0  0  0
 17 18  1  0  0  0  0
 24 32  1  0  0  0  0
 25 33  1  0  0  0  0
  3  4  1  0  0  0  0
  3  5  1  0  0  0  0
  3  6  1  0  0  0  0
 39 42  1  0  0  0  0
 39 43  1  0  0  0  0
 39 44  1  0  0  0  0
 11 14  1  0  0  0  0
 11 15  1  0  0  0  0
 11 16  1  0  0  0  0
 46 48  1  0  0  0  0
 46 49  1  0  0  0  0
 46 50  1  0  0  0  0
 21 29  1  0  0  0  0
 21 30  1  0  0  0  0
 36 41  1  0  0  0  0
  8 13  1  0  0  0  0
 18 28  1  0  0  0  0
 26 34  1  0  0  0  0
 23 31  1  0  0  0  0
 45 47  1  0  0  0  0
  7 12  1  0  0  0  0
 35 40  1  0  0  0  0
 17 27  1  0  0  0  0
M  CHG  1  23   1
M  END
$$$$

  -OEChem-02062319033D

 50 50  0     1  0  0  0  0  0999 V2000
   -1.6938    0.4865    3.8080 C   0  0  0  0  0  0  0  0  0  0  0  0
   -0.7464   -0.1282    3.3323 O   0  0  0  0  0  0  0  0  0  0  0  0
   -2.1257    0.2041    5.2087 C   0  0  0  0  0  0  0  0  0  0  0  0
   -2.8853   -0.5922    5.2621 H   0  0  0  0  0  0  0  0  0  0  0  0
   -1.2944   -0.1435    5.8430 H   0  0  0  0  0  0  0  0  0  0  0  0
   -2.5637    1.0590    5.7483 H   0  0  0  0  0  0  0  0  0  0  0  0
   -2.4435    1.4589    3.1669 N   0  0  0  0  0  0  0  0  0  0  0  0
   -2.1966    1.8850    1.8145 C   0  0  2  0  0  0  0  0  0  0  0  0
   -0.8617    1.2996    1.3733 C   0  0  0  0  0  0  0  0  0  0  0  0
    0.0104    0.9468    2.1646 O   0  0  0  0  0  0  0  0  0  0  0  0
   -2.1879    3.4017    1.7050 C   0  0  0  0  0  0  0  0  0  0  0  0
   -3.2085    1.8948    3.6787 H   0  0  0  0  0  0  0  0  0  0  0  0
   -3.0007    1.4665    1.1994 H   0  0  0  0  0  0  0  0  0  0  0  0
   -1.3888    3.8390    2.3147 H   0  0  0  0  0  0  0  0  0  0  0  0
   -2.0284    3.7240    0.6708 H   0  0  0  0  0  0  0  0  0  0  0  0
   -3.1380    3.8230    2.0508 H   0  0  0  0  0  0  0  0  0  0  0  0
   -0.7390    1.2565   -0.0101 N   0  0  0  0  0  0  0  0  0  0  0  0
   -0.1811    2.3410   -0.7781 C   0  0  2  0  0  0  0  0  0  0  0  0
   -1.0500    3.5676   -0.5236 C   0  0  0  0  0  0  0  0  0  0  0  0
   -0.5848    4.6889   -0.3309 O   0  0  0  0  0  0  0  0  0  0  0  0
   -0.1326    2.0240   -2.2772 C   0  0  0  0  0  0  0  0  0  0  0  0
    0.7816    0.8674   -2.5998 C   0  0  0  0  0  0  0  0  0  0  0  0
    2.1495    0.9975   -2.5853 N   0  3  0  0  0  0  0  0  0  0  0  0
    0.5134   -0.4273   -2.9446 C   0  0  0  0  0  0  0  0  0  0  0  0
    2.7119   -0.1713   -2.9091 C   0  0  0  0  0  0  0  0  0  0  0  0
    1.7258   -1.0466   -3.1305 N   0  0  0  0  0  0  0  0  0  0  0  0
   -1.0167    0.4136   -0.5071 H   0  0  0  0  0  0  0  0  0  0  0  0
    0.8231    2.5233   -0.3775 H   0  0  0  0  0  0  0  0  0  0  0  0
    0.1804    2.9115   -2.8438 H   0  0  0  0  0  0  0  0  0  0  0  0
   -1.1366    1.7832   -2.6510 H   0  0  0  0  0  0  0  0  0  0  0  0
    2.6594    1.8484   -2.3646 H   0  0  0  0  0  0  0  0  0  0  0  0
   -0.3700   -1.0163   -3.0913 H   0  0  0  0  0  0  0  0  0  0  0  0
    3.7680   -0.3712   -2.9797 H   0  0  0  0  0  0  0  0  0  0  0  0
    1.8558   -2.0188   -3.3958 H   0  0  0  0  0  0  0  0  0  0  0  0
   -2.4037    3.2676   -0.5875 N   0  0  0  0  0  0  0  0  0  0  0  0
   -3.4444    4.2539   -0.4063 C   0  0  2  0  0  0  0  0  0  0  0  0
   -3.1434    5.0259    0.8716 C   0  0  0  0  0  0  0  0  0  0  0  0
   -2.4394    4.5794    1.7749 O   0  0  0  0  0  0  0  0  0  0  0  0
   -4.8173    3.6034   -0.3376 C   0  0  0  0  0  0  0  0  0  0  0  0
   -2.6766    2.3066   -0.7710 H   0  0  0  0  0  0  0  0  0  0  0  0
   -3.3904    4.9322   -1.2648 H   0  0  0  0  0  0  0  0  0  0  0  0
   -4.8905    2.9202    0.5164 H   0  0  0  0  0  0  0  0  0  0  0  0
   -5.6071    4.3541   -0.2289 H   0  0  0  0  0  0  0  0  0  0  0  0
   -5.0199    3.0241   -1.2449 H   0  0  0  0  0  0  0  0  0  0  0  0
   -3.7883    6.2544    0.9034 N   0  0  0  0  0  0  0  0  0  0  0  0
   -3.6716    7.1677    2.0162 C   0  0  0  0  0  0  0  0  0  0  0  0
   -4.3370    6.5516    0.1019 H   0  0  0  0  0  0  0  0  0  0  0  0
   -4.4911    6.9867    2.7272 H   0  0  0  0  0  0  0  0  0  0  0  0
   -2.7070    7.0094    2.5206 H   0  0  0  0  0  0  0  0  0  0  0  0
   -3.7274    8.2028    1.6482 H   0  0  0  0  0  0  0  0  0  0  0  0
 22 24  2  0  0  0  0
 24 26  1  0  0  0  0
 25 26  1  0  0  0  0
 23 25  2  0  0  0  0
 21 22  1  0  0  0  0
 22 23  1  0  0  0  0
  1  3  1  0  0  0  0
  1  7  1  0  0  0  0
  1  2  2  0  0  0  0
 36 37  1  0  0  0  0
 37 45  1  0  0  0  0
 37 38  2  0  0  0  0
  8  9  1  0  0  0  0
  9 17  1  0  0  0  0
  9 10  2  0  0  0  0
 18 19  1  0  0  0  0
 19 35  1  0  0  0  0
 19 20  2  0  0  0  0
 36 39  1  0  0  0  0
  8 11  1  0  0  0  0
 45 46  1  0  0  0  0
 18 21  1  0  0  0  0
 35 36  1  0  0  0  0
  7  8  1  0  0  0  0
 17 18  1  0  0  0  0
 24 32  1  0  0  0  0
 25 33  1  0  0  0  0
  3  4  1  0  0  0  0
  3  5  1  0  0  0  0
  3  6  1  0  0  0  0
 39 42  1  0  0  0  0
 39 43  1  0  0  0  0
 39 44  1  0  0  0  0
 11 14  1  0  0  0  0
 11 15  1  0  0  0  0
 11 16  1  0  0  0  0
 46 48  1  0  0  0  0
 46 49  1  0  0  0  0
 46 50  1  0  0  0  0
 21 29  1  0  0  0  0
 21 30  1  0  0  0  0
 36 41  1  0  0  0  0
  8 13  1  0  0  0  0
 18 28  1  0  0  0  0
 26 34  1  0  0  0  0
 23 31  1  0  0  0  0
 45 47  1  0  0  0  0
  7 12  1  0  0  0  0
 35 40  1  0  0  0  0
 17 27  1  0  0  0  0
M  CHG  1  23   1
M  END
$$$$

  -OEChem-02062319033D

 50 50  0     1  0  0  0  0  0999 V2000
   -1.6938    0.4865    3.8080 C   0  0  0  0  0  0  0  0  0  0  0  0
   -0.7464   -0.1282    3.3323 O   0  0  0  0  0  0  0  0  0  0  0  0
   -2.1257    0.2041    5.2087 C   0  0  0  0  0  0  0  0  0  0  0  0
   -2.8853   -0.5922    5.2621 H   0  0  0  0  0  0  0  0  0  0  0  0
   -1.2944   -0.1435    5.8430 H   0  0  0  0  0  0  0  0  0  0  0  0
   -2.5637    1.0590    5.7483 H   0  0  0  0  0  0  0  0  0  0  0  0
   -2.4435    1.4589    3.1669 N   0  0  0  0  0  0  0  0  0  0  0  0
   -2.1966    1.8850    1.8145 C   0  0  2  0  0  0  0  0  0  0  0  0
   -0.8617    1.2996    1.3733 C   0  0  0  0  0  0  0  0  0  0  0  0
    0.0104    0.9468    2.1646 O   0  0  0  0  0  0  0  0  0  0  0  0
   -2.1879    3.4017    1.7050 C   0  0  0  0  0  0  0  0  0  0  0  0
   -3.2085    1.8948    3.6787 H   0  0  0  0  0  0  0  0  0  0  0  0
   -3.0007    1.4665    1.1994 H   0  0  0  0  0  0  0  0  0  0  0  0
   -1.3888    3.8390    2.3147 H   0  0  0  0  0  0  0  0  0  0  0  0
   -2.0284    3.7240    0.6708 H   0  0  0  0  0  0  0  0  0  0  0  0
   -3.1380    3.8230    2.0508 H   0  0  0  0  0  0  0  0  0  0  0  0
   -0.7390    1.2565   -0.0101 N   0  0  0  0  0  0  0  0  0  0  0  0
    0.0879    2.1770   -0.7491 C   0  0  2  0  0  0  0  0  0  0  0  0
   -0.4385    3.5803   -0.4698 C   0  0  0  0  0  0  0  0  0  0  0  0
    0.2977    4.5393   -0.2480 O   0  0  0  0  0  0  0  0  0  0  0  0
    0.0696    1.8910   -2.2551 C   0  0  0  0  0  0  0  0  0  0  0  0
    0.6585    0.5451   -2.6007 C   0  0  0  0  0  0  0  0  0  0  0  0
    2.0135    0.3179   -2.5762 N   0  3  0  0  0  0  0  0  0  0  0  0
    0.0697   -0.6288   -2.9776 C   0  0  0  0  0  0  0  0  0  0  0  0
    2.2594   -0.9491   -2.9250 C   0  0  0  0  0  0  0  0  0  0  0  0
    1.0836   -1.5356   -3.1722 N   0  0  0  0  0  0  0  0  0  0  0  0
   -1.2190    0.5247   -0.5285 H   0  0  0  0  0  0  0  0  0  0  0  0
    1.1006    2.0855   -0.3393 H   0  0  0  0  0  0  0  0  0  0  0  0
    0.6069    2.6799   -2.7987 H   0  0  0  0  0  0  0  0  0  0  0  0
   -0.9584    1.9253   -2.6396 H   0  0  0  0  0  0  0  0  0  0  0  0
    2.7229    1.0036   -2.3326 H   0  0  0  0  0  0  0  0  0  0  0  0
   -0.9340   -0.9669   -3.1428 H   0  0  0  0  0  0  0  0  0  0  0  0
    3.2291   -1.4129   -2.9950 H   0  0  0  0  0  0  0  0  0  0  0  0
    0.9617   -2.5024   -3.4600 H   0  0  0  0  0  0  0  0  0  0  0  0
   -1.8230    3.6409   -0.5477 N   0  0  0  0  0  0  0  0  0  0  0  0
   -2.5765    4.8579   -0.3481 C   0  0  2  0  0  0  0  0  0  0  0  0
   -2.1008    5.4982    0.9493 C   0  0  0  0  0  0  0  0  0  0  0  0
   -1.5456    4.8657    1.8453 O   0  0  0  0  0  0  0  0  0  0  0  0
   -4.0713    4.5819   -0.3020 C   0  0  0  0  0  0  0  0  0  0  0  0
   -2.3322    2.7869   -0.7554 H   0  0  0  0  0  0  0  0  0  0  0  0
   -2.3401    5.5179   -1.1899 H   0  0  0  0  0  0  0  0  0  0  0  0
   -4.3274    3.9222    0.5351 H   0  0  0  0  0  0  0  0  0  0  0  0
   -4.6422    5.5083   -0.1793 H   0  0  0  0  0  0  0  0  0  0  0  0
   -4.4063    4.0944   -1.2239 H   0  0  0  0  0  0  0  0  0  0  0  0
   -2.4079    6.8504    1.0072 N   0  0  0  0  0  0  0  0  0  0  0  0
   -2.0721    7.6782    2.1421 C   0  0  0  0  0  0  0  0  0  0  0  0
   -2.8526    7.2964    0.2103 H   0  0  0  0  0  0  0  0  0  0  0  0
   -2.9184    7.6992    2.8445 H   0  0  0  0  0  0  0  0  0  0  0  0
   -1.1864    7.2657    2.6474 H   0  0  0  0  0  0  0  0  0  0  0  0
   -1.8553    8.7005    1.7987 H   0  0  0  0  0  0  0  0  0  0  0  0
 22 24  2  0  0  0  0
 24 26  1  0  0  0  0
 25 26  1  0  0  0  0
 23 25  2  0  0  0  0
 21 22  1  0  0  0  0
 22 23  1  0  0  0  0
  1  3  1  0  0  0  0
  1  7  1  0  0  0  0
  1  2  2  0  0  0  0
 36 37  1  0  0  0  0
 37 45  1  0  0  0  0
 37 38  2  0  0  0  0
  8  9  1  0  0  0  0
  9 17  1  0  0  0  0
  9 10  2  0  0  0  0
 18 19  1  0  0  0  0
 19 35  1  0  0  0  0
 19 20  2  0  0  0  0
 36 39  1  0  0  0  0
  8 11  1  0  0  0  0
 45 46  1  0  0  0  0
 18 21  1  0  0  0  0
 35 36  1  0  0  0  0
  7  8  1  0  0  0  0
 17 18  1  0  0  0  0
 24 32  1  0  0  0  0
 25 33  1  0  0  0  0
  3  4  1  0  0  0  0
  3  5  1  0  0  0  0
  3  6  1  0  0  0  0
 39 42  1  0  0  0  0
 39 43  1  0  0  0  0
 39 44  1  0  0  0  0
 11 14  1  0  0  0  0
 11 15  1  0  0  0  0
 11 16  1  0  0  0  0
 46 48  1  0  0  0  0
 46 49  1  0  0  0  0
 46 50  1  0  0  0  0
 21 29  1  0  0  0  0
 21 30  1  0  0  0  0
 36 41  1  0  0  0  0
  8 13  1  0  0  0  0
 18 28  1  0  0  0  0
 26 34  1  0  0  0  0
 23 31  1  0  0  0  0
 45 47  1  0  0  0  0
  7 12  1  0  0  0  0
 35 40  1  0  0  0  0
 17 27  1  0  0  0  0
M  CHG  1  23   1
M  END
$$$$

  -OEChem-02062319033D

 50 50  0     1  0  0  0  0  0999 V2000
   -1.6938    0.4865    3.8080 C   0  0  0  0  0  0  0  0  0  0  0  0
   -0.7464   -0.1282    3.3323 O   0  0  0  0  0  0  0  0  0  0  0  0
   -2.1257    0.2041    5.2087 C   0  0  0  0  0  0  0  0  0  0  0  0
   -2.8853   -0.5922    5.2621 H   0  0  0  0  0  0  0  0  0  0  0  0
   -1.2944   -0.1435    5.8430 H   0  0  0  0  0  0  0  0  0  0  0  0
   -2.5637    1.0590    5.7483 H   0  0  0  0  0  0  0  0  0  0  0  0
   -2.4435    1.4589    3.1669 N   0  0  0  0  0  0  0  0  0  0  0  0
   -2.1966    1.8850    1.8145 C   0  0  2  0  0  0  0  0  0  0  0  0
   -0.8617    1.2996    1.3733 C   0  0  0  0  0  0  0  0  0  0  0  0
    0.0104    0.9468    2.1646 O   0  0  0  0  0  0  0  0  0  0  0  0
   -2.1879    3.4017    1.7050 C   0  0  0  0  0  0  0  0  0  0  0  0
   -3.2085    1.8948    3.6787 H   0  0  0  0  0  0  0  0  0  0  0  0
   -3.0007    1.4665    1.1994 H   0  0  0  0  0  0  0  0  0  0  0  0
   -1.3888    3.8390    2.3147 H   0  0  0  0  0  0  0  0  0  0  0  0
   -2.0284    3.7240    0.6708 H   0  0  0  0  0  0  0  0  0  0  0  0
   -3.1380    3.8230    2.0508 H   0  0  0  0  0  0  0  0  0  0  0  0
   -0.7390    1.2565   -0.0101 N   0  0  0  0  0  0  0  0  0  0  0  0
    0.3052    1.9486   -0.7227 C   0  0  2  0  0  0  0  0  0  0  0  0
    0.1550    3.4337   -0.4126 C   0  0  0  0  0  0  0  0  0  0  0  0
    1.1109    4.1655   -0.1643 O   0  0  0  0  0  0  0  0  0  0  0  0
    0.2304    1.7099   -2.2352 C   0  0  0  0  0  0  0  0  0  0  0  0
    0.4566    0.2655   -2.6099 C   0  0  0  0  0  0  0  0  0  0  0  0
    1.7069   -0.3038   -2.5840 N   0  3  0  0  0  0  0  0  0  0  0  0
   -0.4106   -0.7084   -3.0177 C   0  0  0  0  0  0  0  0  0  0  0  0
    1.6220   -1.5834   -2.9618 C   0  0  0  0  0  0  0  0  0  0  0  0
    0.3376   -1.8414   -3.2288 N   0  0  0  0  0  0  0  0  0  0  0  0
   -1.3855    0.6847   -0.5482 H   0  0  0  0  0  0  0  0  0  0  0  0
    1.2556    1.5902   -0.3101 H   0  0  0  0  0  0  0  0  0  0  0  0
    0.9588    2.3453   -2.7571 H   0  0  0  0  0  0  0  0  0  0  0  0
   -0.7497    2.0164   -2.6239 H   0  0  0  0  0  0  0  0  0  0  0  0
    2.5663    0.1704   -2.3205 H   0  0  0  0  0  0  0  0  0  0  0  0
   -1.4656   -0.7727   -3.1960 H   0  0  0  0  0  0  0  0  0  0  0  0
    2.4402   -2.2799   -3.0380 H   0  0  0  0  0  0  0  0  0  0  0  0
   -0.0260   -2.7376   -3.5402 H   0  0  0  0  0  0  0  0  0  0  0  0
   -1.1662    3.8509   -0.4960 N   0  0  0  0  0  0  0  0  0  0  0  0
   -1.5830    5.2163   -0.2712 C   0  0  2  0  0  0  0  0  0  0  0  0
   -0.9728    5.6839    1.0435 C   0  0  0  0  0  0  0  0  0  0  0  0
   -0.6091    4.9103    1.9269 O   0  0  0  0  0  0  0  0  0  0  0  0
   -3.0988    5.3341   -0.2392 C   0  0  0  0  0  0  0  0  0  0  0  0
   -1.8759    3.1617   -0.7266 H   0  0  0  0  0  0  0  0  0  0  0  0
   -1.1752    5.8113   -1.0957 H   0  0  0  0  0  0  0  0  0  0  0  0
   -3.5254    4.7446    0.5806 H   0  0  0  0  0  0  0  0  0  0  0  0
   -3.4131    6.3734   -0.0973 H   0  0  0  0  0  0  0  0  0  0  0  0
   -3.5379    4.9696   -1.1741 H   0  0  0  0  0  0  0  0  0  0  0  0
   -0.9218    7.0680    1.1322 N   0  0  0  0  0  0  0  0  0  0  0  0
   -0.3966    7.7564    2.2882 C   0  0  0  0  0  0  0  0  0  0  0  0
   -1.2278    7.6308    0.3439 H   0  0  0  0  0  0  0  0  0  0  0  0
   -1.2166    7.9795    2.9866 H   0  0  0  0  0  0  0  0  0  0  0  0
    0.3473    7.1185    2.7880 H   0  0  0  0  0  0  0  0  0  0  0  0
    0.0800    8.6955    1.9704 H   0  0  0  0  0  0  0  0  0  0  0  0
 22 24  2  0  0  0  0
 24 26  1  0  0  0  0
 25 26  1  0  0  0  0
 23 25  2  0  0  0  0
 21 22  1  0  0  0  0
 22 23  1  0  0  0  0
  1  3  1  0  0  0  0
  1  7  1  0  0  0  0
  1  2  2  0  0  0  0
 36 37  1  0  0  0  0
 37 45  1  0  0  0  0
 37 38  2  0  0  0  0
  8  9  1  0  0  0  0
  9 17  1  0  0  0  0
  9 10  2  0  0  0  0
 18 19  1  0  0  0  0
 19 35  1  0  0  0  0
 19 20  2  0  0  0  0
 36 39  1  0  0  0  0
  8 11  1  0  0  0  0
 45 46  1  0  0  0  0
 18 21  1  0  0  0  0
 35 36  1  0  0  0  0
  7  8  1  0  0  0  0
 17 18  1  0  0  0  0
 24 32  1  0  0  0  0
 25 33  1  0  0  0  0
  3  4  1  0  0  0  0
  3  5  1  0  0  0  0
  3  6  1  0  0  0  0
 39 42  1  0  0  0  0
 39 43  1  0  0  0  0
 39 44  1  0  0  0  0
 11 14  1  0  0  0  0
 11 15  1  0  0  0  0
 11 16  1  0  0  0  0
 46 48  1  0  0  0  0
 46 49  1  0  0  0  0
 46 50  1  0  0  0  0
 21 29  1  0  0  0  0
 21 30  1  0  0  0  0
 36 41  1  0  0  0  0
  8 13  1  0  0  0  0
 18 28  1  0  0  0  0
 26 34  1  0  0  0  0
 23 31  1  0  0  0  0
 45 47  1  0  0  0  0
  7 12  1  0  0  0  0
 35 40  1  0  0  0  0
 17 27  1  0  0  0  0
M  CHG  1  23   1
M  END
$$$$

  -OEChem-02062319033D

 50 50  0     1  0  0  0  0  0999 V2000
   -1.6938    0.4865    3.8080 C   0  0  0  0  0  0  0  0  0  0  0  0
   -0.7464   -0.1282    3.3323 O   0  0  0  0  0  0  0  0  0  0  0  0
   -2.1257    0.2041    5.2087 C   0  0  0  0  0  0  0  0  0  0  0  0
   -2.8853   -0.5922    5.2621 H   0  0  0  0  0  0  0  0  0  0  0  0
   -1.2944   -0.1435    5.8430 H   0  0  0  0  0  0  0  0  0  0  0  0
   -2.5637    1.0590    5.7483 H   0  0  0  0  0  0  0  0  0  0  0  0
   -2.4435    1.4589    3.1669 N   0  0  0  0  0  0  0  0  0  0  0  0
   -2.1966    1.8850    1.8145 C   0  0  2  0  0  0  0  0  0  0  0  0
   -0.8617    1.2996    1.3733 C   0  0  0  0  0  0  0  0  0  0  0  0
    0.0104    0.9468    2.1646 O   0  0  0  0  0  0  0  0  0  0  0  0
   -2.1879    3.4017    1.7050 C   0  0  0  0  0  0  0  0  0  0  0  0
   -3.2085    1.8948    3.6787 H   0  0  0  0  0  0  0  0  0  0  0  0
   -3.0007    1.4665    1.1994 H   0  0  0  0  0  0  0  0  0  0  0  0
   -1.3888    3.8390    2.3147 H   0  0  0  0  0  0  0  0  0  0  0  0
   -2.0284    3.7240    0.6708 H   0  0  0  0  0  0  0  0  0  0  0  0
   -3.1380    3.8230    2.0508 H   0  0  0  0  0  0  0  0  0  0  0  0
   -0.7390    1.2565   -0.0101 N   0  0  0  0  0  0  0  0  0  0  0  0
    0.4560    1.6714   -0.7007 C   0  0  2  0  0  0  0  0  0  0  0  0
    0.6900    3.1379   -0.3560 C   0  0  0  0  0  0  0  0  0  0  0  0
    1.7994    3.5929   -0.0854 O   0  0  0  0  0  0  0  0  0  0  0  0
    0.3390    1.4930   -2.2188 C   0  0  0  0  0  0  0  0  0  0  0  0
    0.1896    0.0477   -2.6268 C   0  0  0  0  0  0  0  0  0  0  0  0
    1.2507   -0.8251   -2.6082 N   0  3  0  0  0  0  0  0  0  0  0  0
   -0.8947   -0.6606   -3.0622 C   0  0  0  0  0  0  0  0  0  0  0  0
    0.8432   -2.0310   -3.0169 C   0  0  0  0  0  0  0  0  0  0  0  0
   -0.4613   -1.9433   -3.2964 N   0  0  0  0  0  0  0  0  0  0  0  0
   -1.5051    0.8825   -0.5650 H   0  0  0  0  0  0  0  0  0  0  0  0
    1.2774    1.0712   -0.2920 H   0  0  0  0  0  0  0  0  0  0  0  0
    1.2121    1.9304   -2.7217 H   0  0  0  0  0  0  0  0  0  0  0  0
   -0.5247    2.0503   -2.6050 H   0  0  0  0  0  0  0  0  0  0  0  0
    2.2003   -0.5943   -2.3291 H   0  0  0  0  0  0  0  0  0  0  0  0
   -1.9286   -0.4469   -3.2472 H   0  0  0  0  0  0  0  0  0  0  0  0
    1.4552   -2.9130   -3.1056 H   0  0  0  0  0  0  0  0  0  0  0  0
   -1.0400   -2.7085   -3.6310 H   0  0  0  0  0  0  0  0  0  0  0  0
   -0.4781    3.8833   -0.4360 N   0  0  0  0  0  0  0  0  0  0  0  0
   -0.5315    5.3048   -0.1807 C   0  0  2  0  0  0  0  0  0  0  0  0
    0.1640    5.5705    1.1478 C   0  0  0  0  0  0  0  0  0  0  0  0
    0.3063    4.7102    2.0143 O   0  0  0  0  0  0  0  0  0  0  0  0
   -1.9662    5.8086   -0.1535 C   0  0  0  0  0  0  0  0  0  0  0  0
   -1.3388    3.4056   -0.6866 H   0  0  0  0  0  0  0  0  0  0  0  0
    0.0247    5.7923   -0.9888 H   0  0  0  0  0  0  0  0  0  0  0  0
   -2.5392    5.3313    0.6497 H   0  0  0  0  0  0  0  0  0  0  0  0
   -2.0037    6.8904    0.0115 H   0  0  0  0  0  0  0  0  0  0  0  0
   -2.4740    5.5900   -1.0991 H   0  0  0  0  0  0  0  0  0  0  0  0
    0.5688    6.8924    1.2698 N   0  0  0  0  0  0  0  0  0  0  0  0
    1.2408    7.3967    2.4446 C   0  0  0  0  0  0  0  0  0  0  0  0
    0.4268    7.5321    0.4937 H   0  0  0  0  0  0  0  0  0  0  0  0
    0.4983    7.8084    3.1440 H   0  0  0  0  0  0  0  0  0  0  0  0
    1.7897    6.5780    2.9327 H   0  0  0  0  0  0  0  0  0  0  0  0
    1.9466    8.1880    2.1517 H   0  0  0  0  0  0  0  0  0  0  0  0
 22 24  2  0  0  0  0
 24 26  1  0  0  0  0
 25 26  1  0  0  0  0
 23 25  2  0  0  0  0
 21 22  1  0  0  0  0
 22 23  1  0  0  0  0
  1  3  1  0  0  0  0
  1  7  1  0  0  0  0
  1  2  2  0  0  0  0
 36 37  1  0  0  0  0
 37 45  1  0  0  0  0
 37 38  2  0  0  0  0
  8  9  1  0  0  0  0
  9 17  1  0  0  0  0
  9 10  2  0  0  0  0
 18 19  1  0  0  0  0
 19 35  1  0  0  0  0
 19 20  2  0  0  0  0
 36 39  1  0  0  0  0
  8 11  1  0  0  0  0
 45 46  1  0  0  0  0
 18 21  1  0  0  0  0
 35 36  1  0  0  0  0
  7  8  1  0  0  0  0
 17 18  1  0  0  0  0
 24 32  1  0  0  0  0
 25 33  1  0  0  0  0
  3  4  1  0  0  0  0
  3  5  1  0  0  0  0
  3  6  1  0  0  0  0
 39 42  1  0  0  0  0
 39 43  1  0  0  0  0
 39 44  1  0  0  0  0
 11 14  1  0  0  0  0
 11 15  1  0  0  0  0
 11 16  1  0  0  0  0
 46 48  1  0  0  0  0
 46 49  1  0  0  0  0
 46 50  1  0  0  0  0
 21 29  1  0  0  0  0
 21 30  1  0  0  0  0
 36 41  1  0  0  0  0
  8 13  1  0  0  0  0
 18 28  1  0  0  0  0
 26 34  1  0  0  0  0
 23 31  1  0  0  0  0
 45 47  1  0  0  0  0
  7 12  1  0  0  0  0
 35 40  1  0  0  0  0
 17 27  1  0  0  0  0
M  CHG  1  23   1
M  END
$$$$

  -OEChem-02062319033D

 50 50  0     1  0  0  0  0  0999 V2000
   -1.6938    0.4865    3.8080 C   0  0  0  0  0  0  0  0  0  0  0  0
   -0.7464   -0.1282    3.3323 O   0  0  0  0  0  0  0  0  0  0  0  0
   -2.1257    0.2041    5.2087 C   0  0  0  0  0  0  0  0  0  0  0  0
   -2.8853   -0.5922    5.2621 H   0  0  0  0  0  0  0  0  0  0  0  0
   -1.2944   -0.1435    5.8430 H   0  0  0  0  0  0  0  0  0  0  0  0
   -2.5637    1.0590    5.7483 H   0  0  0  0  0  0  0  0  0  0  0  0
   -2.4435    1.4589    3.1669 N   0  0  0  0  0  0  0  0  0  0  0  0
   -2.1966    1.8850    1.8145 C   0  0  2  0  0  0  0  0  0  0  0  0
   -0.8617    1.2996    1.3733 C   0  0  0  0  0  0  0  0  0  0  0  0
    0.0104    0.9468    2.1646 O   0  0  0  0  0  0  0  0  0  0  0  0
   -2.1879    3.4017    1.7050 C   0  0  0  0  0  0  0  0  0  0  0  0
   -3.2085    1.8948    3.6787 H   0  0  0  0  0  0  0  0  0  0  0  0
   -3.0007    1.4665    1.1994 H   0  0  0  0  0  0  0  0  0  0  0  0
   -1.3888    3.8390    2.3147 H   0  0  0  0  0  0  0  0  0  0  0  0
   -2.0284    3.7240    0.6708 H   0  0  0  0  0  0  0  0  0  0  0  0
   -3.1380    3.8230    2.0508 H   0  0  0  0  0  0  0  0  0  0  0  0
   -0.7390    1.2565   -0.0101 N   0  0  0  0  0  0  0  0  0  0  0  0
    0.5301    1.3643   -0.6846 C   0  0  2  0  0  0  0  0  0  0  0  0
    1.1301    2.7131   -0.3037 C   0  0  0  0  0  0  0  0  0  0  0  0
    2.3162    2.8607   -0.0168 O   0  0  0  0  0  0  0  0  0  0  0  0
    0.3878    1.2552   -2.2071 C   0  0  0  0  0  0  0  0  0  0  0  0
   -0.1244   -0.0935   -2.6502 C   0  0  0  0  0  0  0  0  0  0  0  0
    0.6759   -1.2105   -2.6472 N   0  3  0  0  0  0  0  0  0  0  0  0
   -1.3496   -0.4887   -3.1078 C   0  0  0  0  0  0  0  0  0  0  0  0
   -0.0240   -2.2615   -3.0866 C   0  0  0  0  0  0  0  0  0  0  0  0
   -1.2587   -1.8344   -3.3705 N   0  0  0  0  0  0  0  0  0  0  0  0
   -1.5694    1.1048   -0.5776 H   0  0  0  0  0  0  0  0  0  0  0  0
    1.1647    0.5639   -0.2862 H   0  0  0  0  0  0  0  0  0  0  0  0
    1.3496    1.4636   -2.6950 H   0  0  0  0  0  0  0  0  0  0  0  0
   -0.2989    2.0246   -2.5842 H   0  0  0  0  0  0  0  0  0  0  0  0
    1.6497   -1.2385   -2.3579 H   0  0  0  0  0  0  0  0  0  0  0  0
   -2.2914   -0.0117   -3.2929 H   0  0  0  0  0  0  0  0  0  0  0  0
    0.3411   -3.2693   -3.1932 H   0  0  0  0  0  0  0  0  0  0  0  0
   -2.0113   -2.4170   -3.7262 H   0  0  0  0  0  0  0  0  0  0  0  0
    0.1944    3.7359   -0.3718 N   0  0  0  0  0  0  0  0  0  0  0  0
    0.5061    5.1172   -0.0829 C   0  0  2  0  0  0  0  0  0  0  0  0
    1.2319    5.1656    1.2551 C   0  0  0  0  0  0  0  0  0  0  0  0
    1.1383    4.2791    2.1015 O   0  0  0  0  0  0  0  0  0  0  0  0
   -0.7505    5.9731   -0.0509 C   0  0  0  0  0  0  0  0  0  0  0  0
   -0.7575    3.5018   -0.6381 H   0  0  0  0  0  0  0  0  0  0  0  0
    1.1781    5.4624   -0.8762 H   0  0  0  0  0  0  0  0  0  0  0  0
   -1.4360    5.6422    0.7379 H   0  0  0  0  0  0  0  0  0  0  0  0
   -0.5100    7.0242    0.1398 H   0  0  0  0  0  0  0  0  0  0  0  0
   -1.2870    5.9135   -1.0040 H   0  0  0  0  0  0  0  0  0  0  0  0
    1.9622    6.3355    1.4107 N   0  0  0  0  0  0  0  0  0  0  0  0
    2.7285    6.6239    2.6005 C   0  0  0  0  0  0  0  0  0  0  0  0
    1.9983    7.0070    0.6494 H   0  0  0  0  0  0  0  0  0  0  0  0
    2.1094    7.1977    3.3059 H   0  0  0  0  0  0  0  0  0  0  0  0
    3.0425    5.6808    3.0718 H   0  0  0  0  0  0  0  0  0  0  0  0
    3.6175    7.2126    2.3303 H   0  0  0  0  0  0  0  0  0  0  0  0
 22 24  2  0  0  0  0
 24 26  1  0  0  0  0
 25 26  1  0  0  0  0
 23 25  2  0  0  0  0
 21 22  1  0  0  0  0
 22 23  1  0  0  0  0
  1  3  1  0  0  0  0
  1  7  1  0  0  0  0
  1  2  2  0  0  0  0
 36 37  1  0  0  0  0
 37 45  1  0  0  0  0
 37 38  2  0  0  0  0
  8  9  1  0  0  0  0
  9 17  1  0  0  0  0
  9 10  2  0  0  0  0
 18 19  1  0  0  0  0
 19 35  1  0  0  0  0
 19 20  2  0  0  0  0
 36 39  1  0  0  0  0
  8 11  1  0  0  0  0
 45 46  1  0  0  0  0
 18 21  1  0  0  0  0
 35 36  1  0  0  0  0
  7  8  1  0  0  0  0
 17 18  1  0  0  0  0
 24 32  1  0  0  0  0
 25 33  1  0  0  0  0
  3  4  1  0  0  0  0
  3  5  1  0  0  0  0
  3  6  1  0  0  0  0
 39 42  1  0  0  0  0
 39 43  1  0  0  0  0
 39 44  1  0  0  0  0
 11 14  1  0  0  0  0
 11 15  1  0  0  0  0
 11 16  1  0  0  0  0
 46 48  1  0  0  0  0
 46 49  1  0  0  0  0
 46 50  1  0  0  0  0
 21 29  1  0  0  0  0
 21 30  1  0  0  0  0
 36 41  1  0  0  0  0
  8 13  1  0  0  0  0
 18 28  1  0  0  0  0
 26 34  1  0  0  0  0
 23 31  1  0  0  0  0
 45 47  1  0  0  0  0
  7 12  1  0  0  0  0
 35 40  1  0  0  0  0
 17 27  1  0  0  0  0
M  CHG  1  23   1
M  END
$$$$

  -OEChem-02062319033D

 50 50  0     1  0  0  0  0  0999 V2000
   -1.6938    0.4865    3.8080 C   0  0  0  0  0  0  0  0  0  0  0  0
   -0.7464   -0.1282    3.3323 O   0  0  0  0  0  0  0  0  0  0  0  0
   -2.1257    0.2041    5.2087 C   0  0  0  0  0  0  0  0  0  0  0  0
   -2.8853   -0.5922    5.2621 H   0  0  0  0  0  0  0  0  0  0  0  0
   -1.2944   -0.1435    5.8430 H   0  0  0  0  0  0  0  0  0  0  0  0
   -2.5637    1.0590    5.7483 H   0  0  0  0  0  0  0  0  0  0  0  0
   -2.4435    1.4589    3.1669 N   0  0  0  0  0  0  0  0  0  0  0  0
   -2.1966    1.8850    1.8145 C   0  0  2  0  0  0  0  0  0  0  0  0
   -0.8617    1.2996    1.3733 C   0  0  0  0  0  0  0  0  0  0  0  0
    0.0104    0.9468    2.1646 O   0  0  0  0  0  0  0  0  0  0  0  0
   -2.1879    3.4017    1.7050 C   0  0  0  0  0  0  0  0  0  0  0  0
   -3.2085    1.8948    3.6787 H   0  0  0  0  0  0  0  0  0  0  0  0
   -3.0007    1.4665    1.1994 H   0  0  0  0  0  0  0  0  0  0  0  0
   -1.3888    3.8390    2.3147 H   0  0  0  0  0  0  0  0  0  0  0  0
   -2.0284    3.7240    0.6708 H   0  0  0  0  0  0  0  0  0  0  0  0
   -3.1380    3.8230    2.0508 H   0  0  0  0  0  0  0  0  0  0  0  0
   -0.7390    1.2565   -0.0101 N   0  0  0  0  0  0  0  0  0  0  0  0
    0.5224    1.0482   -0.6754 C   0  0  2  0  0  0  0  0  0  0  0  0
    1.4454    2.1881   -0.2594 C   0  0  0  0  0  0  0  0  0  0  0  0
    2.6262    2.0187    0.0370 O   0  0  0  0  0  0  0  0  0  0  0  0
    0.3736    1.0127   -2.2008 C   0  0  0  0  0  0  0  0  0  0  0  0
   -0.4638   -0.1484   -2.6786 C   0  0  0  0  0  0  0  0  0  0  0  0
    0.0216   -1.4338   -2.6982 N   0  3  0  0  0  0  0  0  0  0  0  0
   -1.7444   -0.2044   -3.1517 C   0  0  0  0  0  0  0  0  0  0  0  0
   -0.9204   -2.2590   -3.1661 C   0  0  0  0  0  0  0  0  0  0  0  0
   -2.0002   -1.5220   -3.4460 N   0  0  0  0  0  0  0  0  0  0  0  0
   -1.5741    1.3364   -0.5853 H   0  0  0  0  0  0  0  0  0  0  0  0
    0.9249    0.1028   -0.2931 H   0  0  0  0  0  0  0  0  0  0  0  0
    1.3620    0.9767   -2.6787 H   0  0  0  0  0  0  0  0  0  0  0  0
   -0.0876    1.9411   -2.5629 H   0  0  0  0  0  0  0  0  0  0  0  0
    0.9522   -1.7181   -2.4048 H   0  0  0  0  0  0  0  0  0  0  0  0
   -2.5294    0.5032   -3.3301 H   0  0  0  0  0  0  0  0  0  0  0  0
   -0.8261   -3.3242   -3.2950 H   0  0  0  0  0  0  0  0  0  0  0  0
   -2.8736   -1.8830   -3.8193 H   0  0  0  0  0  0  0  0  0  0  0  0
    0.8055    3.4188   -0.3077 N   0  0  0  0  0  0  0  0  0  0  0  0
    1.4593    4.6664    0.0157 C   0  0  2  0  0  0  0  0  0  0  0  0
    2.1583    4.4969    1.3581 C   0  0  0  0  0  0  0  0  0  0  0  0
    1.8301    3.6462    2.1826 O   0  0  0  0  0  0  0  0  0  0  0  0
    0.4653    5.8164    0.0618 C   0  0  0  0  0  0  0  0  0  0  0  0
   -0.1716    3.4438   -0.5843 H   0  0  0  0  0  0  0  0  0  0  0  0
    2.2062    4.8439   -0.7658 H   0  0  0  0  0  0  0  0  0  0  0  0
   -0.2910    5.6563    0.8389 H   0  0  0  0  0  0  0  0  0  0  0  0
    0.9663    6.7655    0.2787 H   0  0  0  0  0  0  0  0  0  0  0  0
   -0.0579    5.9179   -0.8952 H   0  0  0  0  0  0  0  0  0  0  0  0
    3.1635    5.4353    1.5453 N   0  0  0  0  0  0  0  0  0  0  0  0
    3.9650    5.4904    2.7455 C   0  0  0  0  0  0  0  0  0  0  0  0
    3.3798    6.0912    0.8004 H   0  0  0  0  0  0  0  0  0  0  0  0
    3.5069    6.1889    3.4612 H   0  0  0  0  0  0  0  0  0  0  0  0
    4.0204    4.4883    3.1956 H   0  0  0  0  0  0  0  0  0  0  0  0
    4.9786    5.8358    2.4938 H   0  0  0  0  0  0  0  0  0  0  0  0
 22 24  2  0  0  0  0
 24 26  1  0  0  0  0
 25 26  1  0  0  0  0
 23 25  2  0  0  0  0
 21 22  1  0  0  0  0
 22 23  1  0  0  0  0
  1  3  1  0  0  0  0
  1  7  1  0  0  0  0
  1  2  2  0  0  0  0
 36 37  1  0  0  0  0
 37 45  1  0  0  0  0
 37 38  2  0  0  0  0
  8  9  1  0  0  0  0
  9 17  1  0  0  0  0
  9 10  2  0  0  0  0
 18 19  1  0  0  0  0
 19 35  1  0  0  0  0
 19 20  2  0  0  0  0
 36 39  1  0  0  0  0
  8 11  1  0  0  0  0
 45 46  1  0  0  0  0
 18 21  1  0  0  0  0
 35 36  1  0  0  0  0
  7  8  1  0  0  0  0
 17 18  1  0  0  0  0
 24 32  1  0  0  0  0
 25 33  1  0  0  0  0
  3  4  1  0  0  0  0
  3  5  1  0  0  0  0
  3  6  1  0  0  0  0
 39 42  1  0  0  0  0
 39 43  1  0  0  0  0
 39 44  1  0  0  0  0
 11 14  1  0  0  0  0
 11 15  1  0  0  0  0
 11 16  1  0  0  0  0
 46 48  1  0  0  0  0
 46 49  1  0  0  0  0
 46 50  1  0  0  0  0
 21 29  1  0  0  0  0
 21 30  1  0  0  0  0
 36 41  1  0  0  0  0
  8 13  1  0  0  0  0
 18 28  1  0  0  0  0
 26 34  1  0  0  0  0
 23 31  1  0  0  0  0
 45 47  1  0  0  0  0
  7 12  1  0  0  0  0
 35 40  1  0  0  0  0
 17 27  1  0  0  0  0
M  CHG  1  23   1
M  END
$$$$
