@<TRIPOS>MOLECULE
default_name
   28    28     1     0     0
SMALL
No Charge or Current Charge


@<TRIPOS>ATOM
      1 H1          25.9220    25.0220    24.3350 H          1 ACE       0.112300
      2 CH3         25.9560    26.0510    23.9840 C.3        1 ACE      -0.366200
      3 H2          25.2330    26.6550    24.5290 H          1 ACE       0.112300
      4 H3          25.7430    26.0910    22.9180 H          1 ACE       0.112300
      5 C           27.3410    26.6080    24.2300 C.2        1 ACE       0.597200
      6 O           28.1940    25.8950    24.7480 O.2        1 ACE      -0.567900
      7 N           27.5330    27.8690    23.8450 N.am       2 CTY      -0.567900
      8 H           26.7610    28.3810    23.4400 H          2 CTY      -0.567900
      9 CA          28.7430    28.6840    24.0090 C.3        2 CTY      -0.567900
     10 HA          29.1980    28.4650    24.9730 H          2 CTY      -0.567900
     11 CB          29.7320    28.3450    22.8740 C.3        2 CTY      -0.567900
     12 HB2         29.8920    27.2660    22.8810 H          2 CTY      -0.567900
     13 HB3         29.2460    28.5960    21.9290 H          2 CTY      -0.567900
     14 CG          31.1120    28.9950    22.8740 C.ar       2 CTY      -0.567900
     15 CD1         31.9000    28.8830    21.7110 C.ar       2 CTY      -0.567900
     16 HD1         31.4980    28.3670    20.8520 H          2 CTY      -0.567900
     17 CE1         33.1930    29.4410    21.6620 C.ar       2 CTY      -0.567900
     18 HE1         33.7840    29.3530    20.7650 H          2 CTY      -0.567900
     19 CZ          33.7070    30.1160    22.7900 C.ar       2 CTY      -0.567900
     20 OH          34.9510    30.6620    22.7460 O.3        2 CTY      -0.567900
     21 HH          35.3060    30.6360    21.8590 H          2 CTY      -0.567900
     22 CE2         32.9280    30.2250    23.9580 C.ar       2 CTY      -0.567900
     23 HE2         33.3190    30.7530    24.8140 H          2 CTY      -0.567900
     24 CD2         31.6360    29.6660    24.0000 C.ar       2 CTY      -0.567900
     25 HD2         31.0370    29.7750    24.8940 H          2 CTY      -0.567900
     26 C           28.3240    30.1620    24.0110 C.2        2 CTY      -0.567900
     27 O           27.4530    30.4970    23.1740 O.co2      2 CTY      -0.567900
     28 OXT         28.8120    30.8990    24.8940 O.co2      2 CTY      -0.567900
@<TRIPOS>BOND
     1     5     6 2   
     2     5     7 am  
     3     2     3 1   
     4     2     4 1   
     5     2     5 1   
     6     1     2 1   
     7    26    27 1   
     8    26    28 1   
     9    24    25 1   
    10    22    23 1   
    11    22    24 ar  
    12    20    21 1   
    13    19    20 1   
    14    19    22 ar  
    15    17    18 1   
    16    17    19 ar  
    17    15    16 1   
    18    15    17 ar  
    19    14    15 ar  
    20    14    24 ar  
    21    11    12 1   
    22    11    13 1   
    23    11    14 1   
    24     9    10 1   
    25     9    11 1   
    26     9    26 1   
    27     7     8 1   
    28     7     9 1   
@<TRIPOS>SUBSTRUCTURE
     1 ACE         1 TEMP              0 ****  ****    0 ROOT
