@<TRIPOS>MOLECULE
default_name
   22    21     1     0     0
SMALL
No Charge or Current Charge


@<TRIPOS>ATOM
      1 N           27.3930    25.6020    23.9330 N.4        1 NAS       2.000000
      2 H1          27.7410    25.1430    23.1010 H          1 NAS       2.000000
      3 H2          26.3900    25.7060    23.8730 H          1 NAS       2.000000
      4 H3          27.6390    25.0160    24.7220 H          1 NAS       2.000000
      5 CA          28.0570    26.9170    24.0840 C.3        1 NAS       2.000000
      6 HA          27.8700    27.5120    23.1880 H          1 NAS       2.000000
      7 CB          27.5150    27.6990    25.3020 C.3        1 NAS       2.000000
      8 HB2         26.4280    27.6260    25.3410 H          1 NAS       2.000000
      9 HB3         27.9260    27.2890    26.2260 H          1 NAS       2.000000
     10 CG          27.8700    29.1790    25.1980 C.2        1 NAS       2.000000
     11 OD1         28.2730    29.6370    24.1440 O.2        1 NAS       2.000000
     12 ND2         27.7550    29.9580    26.2510 N.am       1 NAS       2.000000
     13 HD21        27.9980    30.9290    26.1210 H          1 NAS       2.000000
     14 HD22        27.4310    29.6230    27.1430 H          1 NAS       2.000000
     15 C           29.5640    26.6930    24.1780 C.2        1 NAS       2.000000
     16 O           29.9480    25.5690    24.4770 O.2        1 NAS       2.000000
     17 N           30.3900    27.7110    23.9180 N.am       2 NME      -0.415700
     18 H           29.9880    28.6220    23.7100 H          2 NME       0.271900
     19 CH3         31.8490    27.6160    23.9640 C.3        2 NME      -0.149000
     20 HH31        32.1890    26.7370    23.4120 H          2 NME       0.097600
     21 HH32        32.2990    28.5060    23.5200 H          2 NME       0.097600
     22 HH33        32.1870    27.5290    24.9990 H          2 NME       0.097600
@<TRIPOS>BOND
     1    15    16 2   
     2    15    17 am  
     3    12    13 1   
     4    12    14 1   
     5    10    11 2   
     6    10    12 am  
     7     7     8 1   
     8     7     9 1   
     9     7    10 1   
    10     5     6 1   
    11     5     7 1   
    12     5    15 1   
    13     1     2 1   
    14     1     3 1   
    15     1     4 1   
    16     1     5 1   
    17    19    20 1   
    18    19    21 1   
    19    19    22 1   
    20    17    18 1   
    21    17    19 1   
@<TRIPOS>SUBSTRUCTURE
     1 NAS         1 TEMP              0 ****  ****    0 ROOT
