
  -OEChem-02062319033D

 46 45  0     1  0  0  0  0  0999 V2000
   -4.6700    2.7214    1.5150 C   0  0  0  0  0  0  0  0  0  0  0  0
   -5.4532    2.5715    0.5845 O   0  0  0  0  0  0  0  0  0  0  0  0
   -5.0996    3.4865    2.7226 C   0  0  0  0  0  0  0  0  0  0  0  0
   -4.8796    4.5629    2.6387 H   0  0  0  0  0  0  0  0  0  0  0  0
   -6.1861    3.4241    2.8954 H   0  0  0  0  0  0  0  0  0  0  0  0
   -4.6369    3.1693    3.6708 H   0  0  0  0  0  0  0  0  0  0  0  0
   -3.3731    2.2391    1.5790 N   0  0  0  0  0  0  0  0  0  0  0  0
   -2.7599    1.4751    0.5247 C   0  0  2  0  0  0  0  0  0  0  0  0
   -1.5143    0.8067    1.0915 C   0  0  0  0  0  0  0  0  0  0  0  0
   -0.9247    1.2213    2.0872 O   0  0  0  0  0  0  0  0  0  0  0  0
   -2.4106    2.3553   -0.6653 C   0  0  0  0  0  0  0  0  0  0  0  0
   -2.8254    2.4352    2.4150 H   0  0  0  0  0  0  0  0  0  0  0  0
   -3.4836    0.7082    0.2278 H   0  0  0  0  0  0  0  0  0  0  0  0
   -1.6866    3.1298   -0.3871 H   0  0  0  0  0  0  0  0  0  0  0  0
   -1.9704    1.7677   -1.4777 H   0  0  0  0  0  0  0  0  0  0  0  0
   -3.3030    2.8584   -1.0531 H   0  0  0  0  0  0  0  0  0  0  0  0
   -1.1107   -0.2839    0.3303 N   0  0  0  0  0  0  0  0  0  0  0  0
    0.0421   -1.0823    0.6607 C   0  0  2  0  0  0  0  0  0  0  0  0
    1.2590   -0.1617    0.6478 C   0  0  0  0  0  0  0  0  0  0  0  0
    2.0982   -0.1474    1.5460 O   0  0  0  0  0  0  0  0  0  0  0  0
    0.2284   -2.2778   -0.2849 C   0  0  2  0  0  0  0  0  0  0  0  0
    0.4190   -1.8345   -1.6276 O   0  0  0  0  0  0  0  0  0  0  0  0
   -0.9718   -3.2168   -0.2706 C   0  0  0  0  0  0  0  0  0  0  0  0
   -1.6686   -0.5606   -0.4743 H   0  0  0  0  0  0  0  0  0  0  0  0
   -0.1104   -1.4377    1.6870 H   0  0  0  0  0  0  0  0  0  0  0  0
    1.1192   -2.8507   -0.0023 H   0  0  0  0  0  0  0  0  0  0  0  0
    0.5790   -2.6292   -2.1591 H   0  0  0  0  0  0  0  0  0  0  0  0
   -1.8932   -2.6927   -0.5471 H   0  0  0  0  0  0  0  0  0  0  0  0
   -1.1071   -3.6743    0.7140 H   0  0  0  0  0  0  0  0  0  0  0  0
   -0.8365   -4.0151   -1.0086 H   0  0  0  0  0  0  0  0  0  0  0  0
    1.2704    0.6751   -0.4592 N   0  0  0  0  0  0  0  0  0  0  0  0
    2.3038    1.6596   -0.6786 C   0  0  2  0  0  0  0  0  0  0  0  0
    3.5296    0.9406   -1.2263 C   0  0  0  0  0  0  0  0  0  0  0  0
    3.7330   -0.2603   -1.0599 O   0  0  0  0  0  0  0  0  0  0  0  0
    2.6389    2.4053    0.6038 C   0  0  0  0  0  0  0  0  0  0  0  0
    0.5227    0.5919   -1.1417 H   0  0  0  0  0  0  0  0  0  0  0  0
    1.9216    2.3568   -1.4321 H   0  0  0  0  0  0  0  0  0  0  0  0
    3.0234    1.7230    1.3707 H   0  0  0  0  0  0  0  0  0  0  0  0
    3.4022    3.1708    0.4297 H   0  0  0  0  0  0  0  0  0  0  0  0
    1.7495    2.8972    1.0123 H   0  0  0  0  0  0  0  0  0  0  0  0
    4.3911    1.8062   -1.8857 N   0  0  0  0  0  0  0  0  0  0  0  0
    5.6307    1.3674   -2.4832 C   0  0  0  0  0  0  0  0  0  0  0  0
    4.1331    2.7828   -1.9925 H   0  0  0  0  0  0  0  0  0  0  0  0
    6.4495    1.4848   -1.7581 H   0  0  0  0  0  0  0  0  0  0  0  0
    5.5446    0.3091   -2.7707 H   0  0  0  0  0  0  0  0  0  0  0  0
    5.8420    1.9739   -3.3761 H   0  0  0  0  0  0  0  0  0  0  0  0
  1  3  1  0  0  0  0
  1  7  1  0  0  0  0
  1  2  2  0  0  0  0
 32 33  1  0  0  0  0
 33 41  1  0  0  0  0
 33 34  2  0  0  0  0
  8  9  1  0  0  0  0
  9 17  1  0  0  0  0
  9 10  2  0  0  0  0
 18 19  1  0  0  0  0
 19 31  1  0  0  0  0
 19 20  2  0  0  0  0
 32 35  1  0  0  0  0
  8 11  1  0  0  0  0
 21 23  1  0  0  0  0
 41 42  1  0  0  0  0
 31 32  1  0  0  0  0
  7  8  1  0  0  0  0
 18 21  1  0  0  0  0
 17 18  1  0  0  0  0
 21 22  1  0  0  0  0
  3  4  1  0  0  0  0
  3  5  1  0  0  0  0
  3  6  1  0  0  0  0
 35 38  1  0  0  0  0
 35 39  1  0  0  0  0
 35 40  1  0  0  0  0
 11 14  1  0  0  0  0
 11 15  1  0  0  0  0
 11 16  1  0  0  0  0
 23 28  1  0  0  0  0
 23 29  1  0  0  0  0
 23 30  1  0  0  0  0
 42 44  1  0  0  0  0
 42 45  1  0  0  0  0
 42 46  1  0  0  0  0
 32 37  1  0  0  0  0
  8 13  1  0  0  0  0
 18 25  1  0  0  0  0
 21 26  1  0  0  0  0
 41 43  1  0  0  0  0
  7 12  1  0  0  0  0
 31 36  1  0  0  0  0
 17 24  1  0  0  0  0
 22 27  1  0  0  0  0
M  END
$$$$

  -OEChem-02062319033D

 46 45  0     1  0  0  0  0  0999 V2000
   -4.6700    2.7214    1.5150 C   0  0  0  0  0  0  0  0  0  0  0  0
   -5.4532    2.5715    0.5845 O   0  0  0  0  0  0  0  0  0  0  0  0
   -5.0996    3.4865    2.7226 C   0  0  0  0  0  0  0  0  0  0  0  0
   -4.8796    4.5629    2.6387 H   0  0  0  0  0  0  0  0  0  0  0  0
   -6.1861    3.4241    2.8954 H   0  0  0  0  0  0  0  0  0  0  0  0
   -4.6369    3.1693    3.6708 H   0  0  0  0  0  0  0  0  0  0  0  0
   -3.3731    2.2391    1.5790 N   0  0  0  0  0  0  0  0  0  0  0  0
   -2.7599    1.4751    0.5247 C   0  0  2  0  0  0  0  0  0  0  0  0
   -1.5143    0.8067    1.0915 C   0  0  0  0  0  0  0  0  0  0  0  0
   -0.9247    1.2213    2.0872 O   0  0  0  0  0  0  0  0  0  0  0  0
   -2.4106    2.3553   -0.6653 C   0  0  0  0  0  0  0  0  0  0  0  0
   -2.8254    2.4352    2.4150 H   0  0  0  0  0  0  0  0  0  0  0  0
   -3.4836    0.7082    0.2278 H   0  0  0  0  0  0  0  0  0  0  0  0
   -1.6866    3.1298   -0.3871 H   0  0  0  0  0  0  0  0  0  0  0  0
   -1.9704    1.7677   -1.4777 H   0  0  0  0  0  0  0  0  0  0  0  0
   -3.3030    2.8584   -1.0531 H   0  0  0  0  0  0  0  0  0  0  0  0
   -1.1107   -0.2839    0.3303 N   0  0  0  0  0  0  0  0  0  0  0  0
   -0.1697   -1.2642    0.8090 C   0  0  2  0  0  0  0  0  0  0  0  0
    1.1353   -0.5368    1.1196 C   0  0  0  0  0  0  0  0  0  0  0  0
    1.7629   -0.7025    2.1636 O   0  0  0  0  0  0  0  0  0  0  0  0
    0.0477   -2.4147   -0.1846 C   0  0  2  0  0  0  0  0  0  0  0  0
    0.5718   -1.9244   -1.4178 O   0  0  0  0  0  0  0  0  0  0  0  0
   -1.2438   -3.1627   -0.4922 C   0  0  0  0  0  0  0  0  0  0  0  0
   -1.5204   -0.4248   -0.5903 H   0  0  0  0  0  0  0  0  0  0  0  0
   -0.5791   -1.6542    1.7488 H   0  0  0  0  0  0  0  0  0  0  0  0
    0.7751   -3.1304    0.2159 H   0  0  0  0  0  0  0  0  0  0  0  0
    0.7311   -2.7004   -1.9764 H   0  0  0  0  0  0  0  0  0  0  0  0
   -2.0085   -2.4911   -0.8971 H   0  0  0  0  0  0  0  0  0  0  0  0
   -1.6414   -3.6537    0.4011 H   0  0  0  0  0  0  0  0  0  0  0  0
   -1.0657   -3.9262   -1.2576 H   0  0  0  0  0  0  0  0  0  0  0  0
    1.4892    0.3543    0.1165 N   0  0  0  0  0  0  0  0  0  0  0  0
    2.6681    1.1847    0.1950 C   0  0  2  0  0  0  0  0  0  0  0  0
    3.8735    0.3250   -0.1619 C   0  0  0  0  0  0  0  0  0  0  0  0
    3.8750   -0.9006   -0.0672 O   0  0  0  0  0  0  0  0  0  0  0  0
    2.8252    1.7929    1.5799 C   0  0  0  0  0  0  0  0  0  0  0  0
    0.8960    0.4253   -0.7050 H   0  0  0  0  0  0  0  0  0  0  0  0
    2.5483    1.9755   -0.5535 H   0  0  0  0  0  0  0  0  0  0  0  0
    2.9464    1.0157    2.3433 H   0  0  0  0  0  0  0  0  0  0  0  0
    3.7035    2.4449    1.6297 H   0  0  0  0  0  0  0  0  0  0  0  0
    1.9443    2.3866    1.8471 H   0  0  0  0  0  0  0  0  0  0  0  0
    4.9615    1.0904   -0.5576 N   0  0  0  0  0  0  0  0  0  0  0  0
    6.2282    0.5082   -0.9351 C   0  0  0  0  0  0  0  0  0  0  0  0
    4.8647    2.0992   -0.6251 H   0  0  0  0  0  0  0  0  0  0  0  0
    6.8861    0.4577   -0.0550 H   0  0  0  0  0  0  0  0  0  0  0  0
    6.0630   -0.5059   -1.3279 H   0  0  0  0  0  0  0  0  0  0  0  0
    6.7004    1.1292   -1.7106 H   0  0  0  0  0  0  0  0  0  0  0  0
  1  3  1  0  0  0  0
  1  7  1  0  0  0  0
  1  2  2  0  0  0  0
 32 33  1  0  0  0  0
 33 41  1  0  0  0  0
 33 34  2  0  0  0  0
  8  9  1  0  0  0  0
  9 17  1  0  0  0  0
  9 10  2  0  0  0  0
 18 19  1  0  0  0  0
 19 31  1  0  0  0  0
 19 20  2  0  0  0  0
 32 35  1  0  0  0  0
  8 11  1  0  0  0  0
 21 23  1  0  0  0  0
 41 42  1  0  0  0  0
 31 32  1  0  0  0  0
  7  8  1  0  0  0  0
 18 21  1  0  0  0  0
 17 18  1  0  0  0  0
 21 22  1  0  0  0  0
  3  4  1  0  0  0  0
  3  5  1  0  0  0  0
  3  6  1  0  0  0  0
 35 38  1  0  0  0  0
 35 39  1  0  0  0  0
 35 40  1  0  0  0  0
 11 14  1  0  0  0  0
 11 15  1  0  0  0  0
 11 16  1  0  0  0  0
 23 28  1  0  0  0  0
 23 29  1  0  0  0  0
 23 30  1  0  0  0  0
 42 44  1  0  0  0  0
 42 45  1  0  0  0  0
 42 46  1  0  0  0  0
 32 37  1  0  0  0  0
  8 13  1  0  0  0  0
 18 25  1  0  0  0  0
 21 26  1  0  0  0  0
 41 43  1  0  0  0  0
  7 12  1  0  0  0  0
 31 36  1  0  0  0  0
 17 24  1  0  0  0  0
 22 27  1  0  0  0  0
M  END
$$$$

  -OEChem-02062319033D

 46 45  0     1  0  0  0  0  0999 V2000
   -4.6700    2.7214    1.5150 C   0  0  0  0  0  0  0  0  0  0  0  0
   -5.4532    2.5715    0.5845 O   0  0  0  0  0  0  0  0  0  0  0  0
   -5.0996    3.4865    2.7226 C   0  0  0  0  0  0  0  0  0  0  0  0
   -4.8796    4.5629    2.6387 H   0  0  0  0  0  0  0  0  0  0  0  0
   -6.1861    3.4241    2.8954 H   0  0  0  0  0  0  0  0  0  0  0  0
   -4.6369    3.1693    3.6708 H   0  0  0  0  0  0  0  0  0  0  0  0
   -3.3731    2.2391    1.5790 N   0  0  0  0  0  0  0  0  0  0  0  0
   -2.7599    1.4751    0.5247 C   0  0  2  0  0  0  0  0  0  0  0  0
   -1.5143    0.8067    1.0915 C   0  0  0  0  0  0  0  0  0  0  0  0
   -0.9247    1.2213    2.0872 O   0  0  0  0  0  0  0  0  0  0  0  0
   -2.4106    2.3553   -0.6653 C   0  0  0  0  0  0  0  0  0  0  0  0
   -2.8254    2.4352    2.4150 H   0  0  0  0  0  0  0  0  0  0  0  0
   -3.4836    0.7082    0.2278 H   0  0  0  0  0  0  0  0  0  0  0  0
   -1.6866    3.1298   -0.3871 H   0  0  0  0  0  0  0  0  0  0  0  0
   -1.9704    1.7677   -1.4777 H   0  0  0  0  0  0  0  0  0  0  0  0
   -3.3030    2.8584   -1.0531 H   0  0  0  0  0  0  0  0  0  0  0  0
   -1.1107   -0.2839    0.3303 N   0  0  0  0  0  0  0  0  0  0  0  0
   -0.4302   -1.4210    0.8955 C   0  0  2  0  0  0  0  0  0  0  0  0
    0.8667   -0.9170    1.5220 C   0  0  0  0  0  0  0  0  0  0  0  0
    1.2349   -1.2376    2.6503 O   0  0  0  0  0  0  0  0  0  0  0  0
   -0.1665   -2.5288   -0.1347 C   0  0  2  0  0  0  0  0  0  0  0  0
    0.6641   -2.0487   -1.1908 O   0  0  0  0  0  0  0  0  0  0  0  0
   -1.4538   -3.0554   -0.7574 C   0  0  0  0  0  0  0  0  0  0  0  0
   -1.3346   -0.3060   -0.6619 H   0  0  0  0  0  0  0  0  0  0  0  0
   -1.0750   -1.8016    1.6970 H   0  0  0  0  0  0  0  0  0  0  0  0
    0.3588   -3.3681    0.3357 H   0  0  0  0  0  0  0  0  0  0  0  0
    0.8309   -2.8045   -1.7743 H   0  0  0  0  0  0  0  0  0  0  0  0
   -2.0203   -2.2537   -1.2435 H   0  0  0  0  0  0  0  0  0  0  0  0
   -2.0911   -3.5345   -0.0081 H   0  0  0  0  0  0  0  0  0  0  0  0
   -1.2240   -3.7891   -1.5379 H   0  0  0  0  0  0  0  0  0  0  0  0
    1.5382   -0.0298    0.6928 N   0  0  0  0  0  0  0  0  0  0  0  0
    2.7751    0.6087    1.0771 C   0  0  2  0  0  0  0  0  0  0  0  0
    3.9022   -0.3983    0.8898 C   0  0  0  0  0  0  0  0  0  0  0  0
    3.7197   -1.6138    0.8725 O   0  0  0  0  0  0  0  0  0  0  0  0
    2.7201    1.1017    2.5147 C   0  0  0  0  0  0  0  0  0  0  0  0
    1.1443    0.1787   -0.2200 H   0  0  0  0  0  0  0  0  0  0  0  0
    2.9211    1.4524    0.3938 H   0  0  0  0  0  0  0  0  0  0  0  0
    2.5742    0.2703    3.2140 H   0  0  0  0  0  0  0  0  0  0  0  0
    3.6480    1.6108    2.7954 H   0  0  0  0  0  0  0  0  0  0  0  0
    1.8905    1.8031    2.6546 H   0  0  0  0  0  0  0  0  0  0  0  0
    5.1413    0.2183    0.7874 N   0  0  0  0  0  0  0  0  0  0  0  0
    6.3692   -0.5228    0.6169 C   0  0  0  0  0  0  0  0  0  0  0  0
    5.1968    1.2325    0.7929 H   0  0  0  0  0  0  0  0  0  0  0  0
    6.8163   -0.7242    1.6016 H   0  0  0  0  0  0  0  0  0  0  0  0
    6.1552   -1.4752    0.1098 H   0  0  0  0  0  0  0  0  0  0  0  0
    7.0716    0.0664    0.0091 H   0  0  0  0  0  0  0  0  0  0  0  0
  1  3  1  0  0  0  0
  1  7  1  0  0  0  0
  1  2  2  0  0  0  0
 32 33  1  0  0  0  0
 33 41  1  0  0  0  0
 33 34  2  0  0  0  0
  8  9  1  0  0  0  0
  9 17  1  0  0  0  0
  9 10  2  0  0  0  0
 18 19  1  0  0  0  0
 19 31  1  0  0  0  0
 19 20  2  0  0  0  0
 32 35  1  0  0  0  0
  8 11  1  0  0  0  0
 21 23  1  0  0  0  0
 41 42  1  0  0  0  0
 31 32  1  0  0  0  0
  7  8  1  0  0  0  0
 18 21  1  0  0  0  0
 17 18  1  0  0  0  0
 21 22  1  0  0  0  0
  3  4  1  0  0  0  0
  3  5  1  0  0  0  0
  3  6  1  0  0  0  0
 35 38  1  0  0  0  0
 35 39  1  0  0  0  0
 35 40  1  0  0  0  0
 11 14  1  0  0  0  0
 11 15  1  0  0  0  0
 11 16  1  0  0  0  0
 23 28  1  0  0  0  0
 23 29  1  0  0  0  0
 23 30  1  0  0  0  0
 42 44  1  0  0  0  0
 42 45  1  0  0  0  0
 42 46  1  0  0  0  0
 32 37  1  0  0  0  0
  8 13  1  0  0  0  0
 18 25  1  0  0  0  0
 21 26  1  0  0  0  0
 41 43  1  0  0  0  0
  7 12  1  0  0  0  0
 31 36  1  0  0  0  0
 17 24  1  0  0  0  0
 22 27  1  0  0  0  0
M  END
$$$$

  -OEChem-02062319033D

 46 45  0     1  0  0  0  0  0999 V2000
   -4.6700    2.7214    1.5150 C   0  0  0  0  0  0  0  0  0  0  0  0
   -5.4532    2.5715    0.5845 O   0  0  0  0  0  0  0  0  0  0  0  0
   -5.0996    3.4865    2.7226 C   0  0  0  0  0  0  0  0  0  0  0  0
   -4.8796    4.5629    2.6387 H   0  0  0  0  0  0  0  0  0  0  0  0
   -6.1861    3.4241    2.8954 H   0  0  0  0  0  0  0  0  0  0  0  0
   -4.6369    3.1693    3.6708 H   0  0  0  0  0  0  0  0  0  0  0  0
   -3.3731    2.2391    1.5790 N   0  0  0  0  0  0  0  0  0  0  0  0
   -2.7599    1.4751    0.5247 C   0  0  2  0  0  0  0  0  0  0  0  0
   -1.5143    0.8067    1.0915 C   0  0  0  0  0  0  0  0  0  0  0  0
   -0.9247    1.2213    2.0872 O   0  0  0  0  0  0  0  0  0  0  0  0
   -2.4106    2.3553   -0.6653 C   0  0  0  0  0  0  0  0  0  0  0  0
   -2.8254    2.4352    2.4150 H   0  0  0  0  0  0  0  0  0  0  0  0
   -3.4836    0.7082    0.2278 H   0  0  0  0  0  0  0  0  0  0  0  0
   -1.6866    3.1298   -0.3871 H   0  0  0  0  0  0  0  0  0  0  0  0
   -1.9704    1.7677   -1.4777 H   0  0  0  0  0  0  0  0  0  0  0  0
   -3.3030    2.8584   -1.0531 H   0  0  0  0  0  0  0  0  0  0  0  0
   -1.1107   -0.2839    0.3303 N   0  0  0  0  0  0  0  0  0  0  0  0
   -0.7216   -1.5420    0.9144 C   0  0  2  0  0  0  0  0  0  0  0  0
    0.4717   -1.2765    1.8276 C   0  0  0  0  0  0  0  0  0  0  0  0
    0.5502   -1.7162    2.9730 O   0  0  0  0  0  0  0  0  0  0  0  0
   -0.3997   -2.6124   -0.1386 C   0  0  2  0  0  0  0  0  0  0  0  0
    0.6894   -2.1988   -0.9622 O   0  0  0  0  0  0  0  0  0  0  0  0
   -1.5876   -2.9019   -1.0482 C   0  0  0  0  0  0  0  0  0  0  0  0
   -1.1236   -0.2122   -0.6845 H   0  0  0  0  0  0  0  0  0  0  0  0
   -1.5644   -1.8698    1.5351 H   0  0  0  0  0  0  0  0  0  0  0  0
   -0.1014   -3.5477    0.3491 H   0  0  0  0  0  0  0  0  0  0  0  0
    0.8715   -2.9344   -1.5666 H   0  0  0  0  0  0  0  0  0  0  0  0
   -1.9276   -1.9966   -1.5627 H   0  0  0  0  0  0  0  0  0  0  0  0
   -2.4254   -3.3249   -0.4858 H   0  0  0  0  0  0  0  0  0  0  0  0
   -1.3005   -3.6132   -1.8305 H   0  0  0  0  0  0  0  0  0  0  0  0
    1.4140   -0.4511    1.2306 N   0  0  0  0  0  0  0  0  0  0  0  0
    2.6178   -0.0291    1.9076 C   0  0  2  0  0  0  0  0  0  0  0  0
    3.6138   -1.1801    1.8571 C   0  0  0  0  0  0  0  0  0  0  0  0
    3.2778   -2.3514    1.6950 O   0  0  0  0  0  0  0  0  0  0  0  0
    2.3307    0.3786    3.3443 C   0  0  0  0  0  0  0  0  0  0  0  0
    1.2507   -0.1312    0.2804 H   0  0  0  0  0  0  0  0  0  0  0  0
    3.0147    0.8231    1.3452 H   0  0  0  0  0  0  0  0  0  0  0  0
    1.9322   -0.4624    3.9234 H   0  0  0  0  0  0  0  0  0  0  0  0
    3.2394    0.7253    3.8474 H   0  0  0  0  0  0  0  0  0  0  0  0
    1.5918    1.1864    3.3799 H   0  0  0  0  0  0  0  0  0  0  0  0
    4.9183   -0.7507    2.0574 N   0  0  0  0  0  0  0  0  0  0  0  0
    6.0441   -1.6553    2.0672 C   0  0  0  0  0  0  0  0  0  0  0  0
    5.1067    0.2417    2.1649 H   0  0  0  0  0  0  0  0  0  0  0  0
    6.2449   -1.9805    3.0987 H   0  0  0  0  0  0  0  0  0  0  0  0
    5.8149   -2.5325    1.4444 H   0  0  0  0  0  0  0  0  0  0  0  0
    6.9303   -1.1420    1.6657 H   0  0  0  0  0  0  0  0  0  0  0  0
  1  3  1  0  0  0  0
  1  7  1  0  0  0  0
  1  2  2  0  0  0  0
 32 33  1  0  0  0  0
 33 41  1  0  0  0  0
 33 34  2  0  0  0  0
  8  9  1  0  0  0  0
  9 17  1  0  0  0  0
  9 10  2  0  0  0  0
 18 19  1  0  0  0  0
 19 31  1  0  0  0  0
 19 20  2  0  0  0  0
 32 35  1  0  0  0  0
  8 11  1  0  0  0  0
 21 23  1  0  0  0  0
 41 42  1  0  0  0  0
 31 32  1  0  0  0  0
  7  8  1  0  0  0  0
 18 21  1  0  0  0  0
 17 18  1  0  0  0  0
 21 22  1  0  0  0  0
  3  4  1  0  0  0  0
  3  5  1  0  0  0  0
  3  6  1  0  0  0  0
 35 38  1  0  0  0  0
 35 39  1  0  0  0  0
 35 40  1  0  0  0  0
 11 14  1  0  0  0  0
 11 15  1  0  0  0  0
 11 16  1  0  0  0  0
 23 28  1  0  0  0  0
 23 29  1  0  0  0  0
 23 30  1  0  0  0  0
 42 44  1  0  0  0  0
 42 45  1  0  0  0  0
 42 46  1  0  0  0  0
 32 37  1  0  0  0  0
  8 13  1  0  0  0  0
 18 25  1  0  0  0  0
 21 26  1  0  0  0  0
 41 43  1  0  0  0  0
  7 12  1  0  0  0  0
 31 36  1  0  0  0  0
 17 24  1  0  0  0  0
 22 27  1  0  0  0  0
M  END
$$$$

  -OEChem-02062319033D

 46 45  0     1  0  0  0  0  0999 V2000
   -4.6700    2.7214    1.5150 C   0  0  0  0  0  0  0  0  0  0  0  0
   -5.4532    2.5715    0.5845 O   0  0  0  0  0  0  0  0  0  0  0  0
   -5.0996    3.4865    2.7226 C   0  0  0  0  0  0  0  0  0  0  0  0
   -4.8796    4.5629    2.6387 H   0  0  0  0  0  0  0  0  0  0  0  0
   -6.1861    3.4241    2.8954 H   0  0  0  0  0  0  0  0  0  0  0  0
   -4.6369    3.1693    3.6708 H   0  0  0  0  0  0  0  0  0  0  0  0
   -3.3731    2.2391    1.5790 N   0  0  0  0  0  0  0  0  0  0  0  0
   -2.7599    1.4751    0.5247 C   0  0  2  0  0  0  0  0  0  0  0  0
   -1.5143    0.8067    1.0915 C   0  0  0  0  0  0  0  0  0  0  0  0
   -0.9247    1.2213    2.0872 O   0  0  0  0  0  0  0  0  0  0  0  0
   -2.4106    2.3553   -0.6653 C   0  0  0  0  0  0  0  0  0  0  0  0
   -2.8254    2.4352    2.4150 H   0  0  0  0  0  0  0  0  0  0  0  0
   -3.4836    0.7082    0.2278 H   0  0  0  0  0  0  0  0  0  0  0  0
   -1.6866    3.1298   -0.3871 H   0  0  0  0  0  0  0  0  0  0  0  0
   -1.9704    1.7677   -1.4777 H   0  0  0  0  0  0  0  0  0  0  0  0
   -3.3030    2.8584   -1.0531 H   0  0  0  0  0  0  0  0  0  0  0  0
   -1.1107   -0.2839    0.3303 N   0  0  0  0  0  0  0  0  0  0  0  0
   -1.0241   -1.6191    0.8644 C   0  0  2  0  0  0  0  0  0  0  0  0
   -0.0228   -1.5907    2.0156 C   0  0  0  0  0  0  0  0  0  0  0  0
   -0.2445   -2.1057    3.1096 O   0  0  0  0  0  0  0  0  0  0  0  0
   -0.6361   -2.6598   -0.1960 C   0  0  2  0  0  0  0  0  0  0  0  0
    0.6463   -2.3646   -0.7475 O   0  0  0  0  0  0  0  0  0  0  0  0
   -1.6360   -2.7129   -1.3447 C   0  0  0  0  0  0  0  0  0  0  0  0
   -0.9020   -0.1498   -0.6564 H   0  0  0  0  0  0  0  0  0  0  0  0
   -2.0139   -1.8541    1.2743 H   0  0  0  0  0  0  0  0  0  0  0  0
   -0.5741   -3.6570    0.2550 H   0  0  0  0  0  0  0  0  0  0  0  0
    0.8501   -3.0812   -1.3676 H   0  0  0  0  0  0  0  0  0  0  0  0
   -1.7368   -1.7375   -1.8328 H   0  0  0  0  0  0  0  0  0  0  0  0
   -2.6216   -3.0391   -0.9993 H   0  0  0  0  0  0  0  0  0  0  0  0
   -1.2900   -3.4104   -2.1155 H   0  0  0  0  0  0  0  0  0  0  0  0
    1.1251   -0.8808    1.6932 N   0  0  0  0  0  0  0  0  0  0  0  0
    2.2067   -0.6853    2.6299 C   0  0  2  0  0  0  0  0  0  0  0  0
    3.0280   -1.9671    2.6741 C   0  0  0  0  0  0  0  0  0  0  0  0
    2.5793   -3.0630    2.3442 O   0  0  0  0  0  0  0  0  0  0  0  0
    1.6837   -0.3270    4.0121 C   0  0  0  0  0  0  0  0  0  0  0  0
    1.2079   -0.4832    0.7621 H   0  0  0  0  0  0  0  0  0  0  0  0
    2.8227    0.1304    2.2359 H   0  0  0  0  0  0  0  0  0  0  0  0
    1.0642   -1.1324    4.4232 H   0  0  0  0  0  0  0  0  0  0  0  0
    2.5055   -0.1511    4.7141 H   0  0  0  0  0  0  0  0  0  0  0  0
    1.0686    0.5786    3.9734 H   0  0  0  0  0  0  0  0  0  0  0  0
    4.3075   -1.7504    3.1661 N   0  0  0  0  0  0  0  0  0  0  0  0
    5.2750   -2.8121    3.3169 C   0  0  0  0  0  0  0  0  0  0  0  0
    4.6006   -0.8058    3.3974 H   0  0  0  0  0  0  0  0  0  0  0  0
    5.2109   -3.2255    4.3343 H   0  0  0  0  0  0  0  0  0  0  0  0
    5.0652   -3.6059    2.5849 H   0  0  0  0  0  0  0  0  0  0  0  0
    6.2860   -2.4137    3.1462 H   0  0  0  0  0  0  0  0  0  0  0  0
  1  3  1  0  0  0  0
  1  7  1  0  0  0  0
  1  2  2  0  0  0  0
 32 33  1  0  0  0  0
 33 41  1  0  0  0  0
 33 34  2  0  0  0  0
  8  9  1  0  0  0  0
  9 17  1  0  0  0  0
  9 10  2  0  0  0  0
 18 19  1  0  0  0  0
 19 31  1  0  0  0  0
 19 20  2  0  0  0  0
 32 35  1  0  0  0  0
  8 11  1  0  0  0  0
 21 23  1  0  0  0  0
 41 42  1  0  0  0  0
 31 32  1  0  0  0  0
  7  8  1  0  0  0  0
 18 21  1  0  0  0  0
 17 18  1  0  0  0  0
 21 22  1  0  0  0  0
  3  4  1  0  0  0  0
  3  5  1  0  0  0  0
  3  6  1  0  0  0  0
 35 38  1  0  0  0  0
 35 39  1  0  0  0  0
 35 40  1  0  0  0  0
 11 14  1  0  0  0  0
 11 15  1  0  0  0  0
 11 16  1  0  0  0  0
 23 28  1  0  0  0  0
 23 29  1  0  0  0  0
 23 30  1  0  0  0  0
 42 44  1  0  0  0  0
 42 45  1  0  0  0  0
 42 46  1  0  0  0  0
 32 37  1  0  0  0  0
  8 13  1  0  0  0  0
 18 25  1  0  0  0  0
 21 26  1  0  0  0  0
 41 43  1  0  0  0  0
  7 12  1  0  0  0  0
 31 36  1  0  0  0  0
 17 24  1  0  0  0  0
 22 27  1  0  0  0  0
M  END
$$$$

  -OEChem-02062319033D

 46 45  0     1  0  0  0  0  0999 V2000
   -4.6700    2.7214    1.5150 C   0  0  0  0  0  0  0  0  0  0  0  0
   -5.4532    2.5715    0.5845 O   0  0  0  0  0  0  0  0  0  0  0  0
   -5.0996    3.4865    2.7226 C   0  0  0  0  0  0  0  0  0  0  0  0
   -4.8796    4.5629    2.6387 H   0  0  0  0  0  0  0  0  0  0  0  0
   -6.1861    3.4241    2.8954 H   0  0  0  0  0  0  0  0  0  0  0  0
   -4.6369    3.1693    3.6708 H   0  0  0  0  0  0  0  0  0  0  0  0
   -3.3731    2.2391    1.5790 N   0  0  0  0  0  0  0  0  0  0  0  0
   -2.7599    1.4751    0.5247 C   0  0  2  0  0  0  0  0  0  0  0  0
   -1.5143    0.8067    1.0915 C   0  0  0  0  0  0  0  0  0  0  0  0
   -0.9247    1.2213    2.0872 O   0  0  0  0  0  0  0  0  0  0  0  0
   -2.4106    2.3553   -0.6653 C   0  0  0  0  0  0  0  0  0  0  0  0
   -2.8254    2.4352    2.4150 H   0  0  0  0  0  0  0  0  0  0  0  0
   -3.4836    0.7082    0.2278 H   0  0  0  0  0  0  0  0  0  0  0  0
   -1.6866    3.1298   -0.3871 H   0  0  0  0  0  0  0  0  0  0  0  0
   -1.9704    1.7677   -1.4777 H   0  0  0  0  0  0  0  0  0  0  0  0
   -3.3030    2.8584   -1.0531 H   0  0  0  0  0  0  0  0  0  0  0  0
   -1.1107   -0.2839    0.3303 N   0  0  0  0  0  0  0  0  0  0  0  0
   -1.3170   -1.6469    0.7489 C   0  0  2  0  0  0  0  0  0  0  0  0
   -0.5832   -1.8382    2.0731 C   0  0  0  0  0  0  0  0  0  0  0  0
   -1.0951   -2.3796    3.0509 O   0  0  0  0  0  0  0  0  0  0  0  0
   -0.8595   -2.6678   -0.3030 C   0  0  2  0  0  0  0  0  0  0  0  0
    0.5374   -2.5348   -0.5613 O   0  0  0  0  0  0  0  0  0  0  0  0
   -1.5958   -2.5012   -1.6267 C   0  0  0  0  0  0  0  0  0  0  0  0
   -0.6848   -0.1230   -0.5796 H   0  0  0  0  0  0  0  0  0  0  0  0
   -2.3929   -1.7556    0.9322 H   0  0  0  0  0  0  0  0  0  0  0  0
   -1.0270   -3.6885    0.0600 H   0  0  0  0  0  0  0  0  0  0  0  0
    0.7682   -3.2350   -1.1907 H   0  0  0  0  0  0  0  0  0  0  0  0
   -1.4610   -1.4939   -2.0356 H   0  0  0  0  0  0  0  0  0  0  0  0
   -2.6664   -2.6967   -1.5137 H   0  0  0  0  0  0  0  0  0  0  0  0
   -1.1933   -3.1947   -2.3734 H   0  0  0  0  0  0  0  0  0  0  0  0
    0.6912   -1.2898    2.0491 N   0  0  0  0  0  0  0  0  0  0  0  0
    1.5700   -1.3152    3.1947 C   0  0  2  0  0  0  0  0  0  0  0  0
    2.1847   -2.7057    3.2851 C   0  0  0  0  0  0  0  0  0  0  0  0
    1.6719   -3.7002    2.7760 O   0  0  0  0  0  0  0  0  0  0  0  0
    0.8230   -0.9670    4.4728 C   0  0  0  0  0  0  0  0  0  0  0  0
    1.0188   -0.8533    1.1923 H   0  0  0  0  0  0  0  0  0  0  0  0
    2.3582   -0.5784    3.0052 H   0  0  0  0  0  0  0  0  0  0  0  0
    0.0292   -1.6942    4.6792 H   0  0  0  0  0  0  0  0  0  0  0  0
    1.4964   -0.9588    5.3362 H   0  0  0  0  0  0  0  0  0  0  0  0
    0.3566    0.0210    4.3948 H   0  0  0  0  0  0  0  0  0  0  0  0
    3.3507   -2.7129    4.0378 N   0  0  0  0  0  0  0  0  0  0  0  0
    4.1143   -3.9145    4.2809 C   0  0  0  0  0  0  0  0  0  0  0  0
    3.7130   -1.8384    4.4063 H   0  0  0  0  0  0  0  0  0  0  0  0
    3.7846   -4.3745    5.2242 H   0  0  0  0  0  0  0  0  0  0  0  0
    3.9574   -4.6222    3.4536 H   0  0  0  0  0  0  0  0  0  0  0  0
    5.1827   -3.6621    4.3499 H   0  0  0  0  0  0  0  0  0  0  0  0
  1  3  1  0  0  0  0
  1  7  1  0  0  0  0
  1  2  2  0  0  0  0
 32 33  1  0  0  0  0
 33 41  1  0  0  0  0
 33 34  2  0  0  0  0
  8  9  1  0  0  0  0
  9 17  1  0  0  0  0
  9 10  2  0  0  0  0
 18 19  1  0  0  0  0
 19 31  1  0  0  0  0
 19 20  2  0  0  0  0
 32 35  1  0  0  0  0
  8 11  1  0  0  0  0
 21 23  1  0  0  0  0
 41 42  1  0  0  0  0
 31 32  1  0  0  0  0
  7  8  1  0  0  0  0
 18 21  1  0  0  0  0
 17 18  1  0  0  0  0
 21 22  1  0  0  0  0
  3  4  1  0  0  0  0
  3  5  1  0  0  0  0
  3  6  1  0  0  0  0
 35 38  1  0  0  0  0
 35 39  1  0  0  0  0
 35 40  1  0  0  0  0
 11 14  1  0  0  0  0
 11 15  1  0  0  0  0
 11 16  1  0  0  0  0
 23 28  1  0  0  0  0
 23 29  1  0  0  0  0
 23 30  1  0  0  0  0
 42 44  1  0  0  0  0
 42 45  1  0  0  0  0
 42 46  1  0  0  0  0
 32 37  1  0  0  0  0
  8 13  1  0  0  0  0
 18 25  1  0  0  0  0
 21 26  1  0  0  0  0
 41 43  1  0  0  0  0
  7 12  1  0  0  0  0
 31 36  1  0  0  0  0
 17 24  1  0  0  0  0
 22 27  1  0  0  0  0
M  END
$$$$

  -OEChem-02062319033D

 46 45  0     1  0  0  0  0  0999 V2000
   -4.6700    2.7214    1.5150 C   0  0  0  0  0  0  0  0  0  0  0  0
   -5.4532    2.5715    0.5845 O   0  0  0  0  0  0  0  0  0  0  0  0
   -5.0996    3.4865    2.7226 C   0  0  0  0  0  0  0  0  0  0  0  0
   -4.8796    4.5629    2.6387 H   0  0  0  0  0  0  0  0  0  0  0  0
   -6.1861    3.4241    2.8954 H   0  0  0  0  0  0  0  0  0  0  0  0
   -4.6369    3.1693    3.6708 H   0  0  0  0  0  0  0  0  0  0  0  0
   -3.3731    2.2391    1.5790 N   0  0  0  0  0  0  0  0  0  0  0  0
   -2.7599    1.4751    0.5247 C   0  0  2  0  0  0  0  0  0  0  0  0
   -1.5143    0.8067    1.0915 C   0  0  0  0  0  0  0  0  0  0  0  0
   -0.9247    1.2213    2.0872 O   0  0  0  0  0  0  0  0  0  0  0  0
   -2.4106    2.3553   -0.6653 C   0  0  0  0  0  0  0  0  0  0  0  0
   -2.8254    2.4352    2.4150 H   0  0  0  0  0  0  0  0  0  0  0  0
   -3.4836    0.7082    0.2278 H   0  0  0  0  0  0  0  0  0  0  0  0
   -1.6866    3.1298   -0.3871 H   0  0  0  0  0  0  0  0  0  0  0  0
   -1.9704    1.7677   -1.4777 H   0  0  0  0  0  0  0  0  0  0  0  0
   -3.3030    2.8584   -1.0531 H   0  0  0  0  0  0  0  0  0  0  0  0
   -1.1107   -0.2839    0.3303 N   0  0  0  0  0  0  0  0  0  0  0  0
   -1.5805   -1.6235    0.5757 C   0  0  2  0  0  0  0  0  0  0  0  0
   -1.1713   -2.0022    1.9962 C   0  0  0  0  0  0  0  0  0  0  0  0
   -1.9436   -2.5191    2.8009 O   0  0  0  0  0  0  0  0  0  0  0  0
   -1.0546   -2.6359   -0.4523 C   0  0  2  0  0  0  0  0  0  0  0  0
    0.3704   -2.6978   -0.4164 O   0  0  0  0  0  0  0  0  0  0  0  0
   -1.4696   -2.2812   -1.8751 C   0  0  0  0  0  0  0  0  0  0  0  0
   -0.4868   -0.1337   -0.4592 H   0  0  0  0  0  0  0  0  0  0  0  0
   -2.6756   -1.5811    0.5322 H   0  0  0  0  0  0  0  0  0  0  0  0
   -1.4294   -3.6401   -0.2228 H   0  0  0  0  0  0  0  0  0  0  0  0
    0.6313   -3.3852   -1.0480 H   0  0  0  0  0  0  0  0  0  0  0  0
   -1.1189   -1.2825   -2.1570 H   0  0  0  0  0  0  0  0  0  0  0  0
   -2.5566   -2.3209   -1.9939 H   0  0  0  0  0  0  0  0  0  0  0  0
   -1.0169   -2.9806   -2.5866 H   0  0  0  0  0  0  0  0  0  0  0  0
    0.1419   -1.6500    2.2739 N   0  0  0  0  0  0  0  0  0  0  0  0
    0.7509   -1.8758    3.5637 C   0  0  2  0  0  0  0  0  0  0  0  0
    1.1413   -3.3455    3.6486 C   0  0  0  0  0  0  0  0  0  0  0  0
    0.6175   -4.2195    2.9609 O   0  0  0  0  0  0  0  0  0  0  0  0
   -0.1926   -1.4979    4.6949 C   0  0  0  0  0  0  0  0  0  0  0  0
    0.6963   -1.2164    1.5415 H   0  0  0  0  0  0  0  0  0  0  0  0
    1.6527   -1.2551    3.6006 H   0  0  0  0  0  0  0  0  0  0  0  0
   -1.1021   -2.1093    4.6742 H   0  0  0  0  0  0  0  0  0  0  0  0
    0.2809   -1.6427    5.6716 H   0  0  0  0  0  0  0  0  0  0  0  0
   -0.4958   -0.4483    4.6152 H   0  0  0  0  0  0  0  0  0  0  0  0
    2.1130   -3.5725    4.6131 N   0  0  0  0  0  0  0  0  0  0  0  0
    2.6411   -4.8872    4.8935 C   0  0  0  0  0  0  0  0  0  0  0  0
    2.5043   -2.7859    5.1230 H   0  0  0  0  0  0  0  0  0  0  0  0
    2.0634   -5.3490    5.7078 H   0  0  0  0  0  0  0  0  0  0  0  0
    2.5668   -5.5121    3.9913 H   0  0  0  0  0  0  0  0  0  0  0  0
    3.6956   -4.8021    5.1947 H   0  0  0  0  0  0  0  0  0  0  0  0
  1  3  1  0  0  0  0
  1  7  1  0  0  0  0
  1  2  2  0  0  0  0
 32 33  1  0  0  0  0
 33 41  1  0  0  0  0
 33 34  2  0  0  0  0
  8  9  1  0  0  0  0
  9 17  1  0  0  0  0
  9 10  2  0  0  0  0
 18 19  1  0  0  0  0
 19 31  1  0  0  0  0
 19 20  2  0  0  0  0
 32 35  1  0  0  0  0
  8 11  1  0  0  0  0
 21 23  1  0  0  0  0
 41 42  1  0  0  0  0
 31 32  1  0  0  0  0
  7  8  1  0  0  0  0
 18 21  1  0  0  0  0
 17 18  1  0  0  0  0
 21 22  1  0  0  0  0
  3  4  1  0  0  0  0
  3  5  1  0  0  0  0
  3  6  1  0  0  0  0
 35 38  1  0  0  0  0
 35 39  1  0  0  0  0
 35 40  1  0  0  0  0
 11 14  1  0  0  0  0
 11 15  1  0  0  0  0
 11 16  1  0  0  0  0
 23 28  1  0  0  0  0
 23 29  1  0  0  0  0
 23 30  1  0  0  0  0
 42 44  1  0  0  0  0
 42 45  1  0  0  0  0
 42 46  1  0  0  0  0
 32 37  1  0  0  0  0
  8 13  1  0  0  0  0
 18 25  1  0  0  0  0
 21 26  1  0  0  0  0
 41 43  1  0  0  0  0
  7 12  1  0  0  0  0
 31 36  1  0  0  0  0
 17 24  1  0  0  0  0
 22 27  1  0  0  0  0
M  END
$$$$

  -OEChem-02062319033D

 46 45  0     1  0  0  0  0  0999 V2000
   -4.6700    2.7214    1.5150 C   0  0  0  0  0  0  0  0  0  0  0  0
   -5.4532    2.5715    0.5845 O   0  0  0  0  0  0  0  0  0  0  0  0
   -5.0996    3.4865    2.7226 C   0  0  0  0  0  0  0  0  0  0  0  0
   -4.8796    4.5629    2.6387 H   0  0  0  0  0  0  0  0  0  0  0  0
   -6.1861    3.4241    2.8954 H   0  0  0  0  0  0  0  0  0  0  0  0
   -4.6369    3.1693    3.6708 H   0  0  0  0  0  0  0  0  0  0  0  0
   -3.3731    2.2391    1.5790 N   0  0  0  0  0  0  0  0  0  0  0  0
   -2.7599    1.4751    0.5247 C   0  0  2  0  0  0  0  0  0  0  0  0
   -1.5143    0.8067    1.0915 C   0  0  0  0  0  0  0  0  0  0  0  0
   -0.9247    1.2213    2.0872 O   0  0  0  0  0  0  0  0  0  0  0  0
   -2.4106    2.3553   -0.6653 C   0  0  0  0  0  0  0  0  0  0  0  0
   -2.8254    2.4352    2.4150 H   0  0  0  0  0  0  0  0  0  0  0  0
   -3.4836    0.7082    0.2278 H   0  0  0  0  0  0  0  0  0  0  0  0
   -1.6866    3.1298   -0.3871 H   0  0  0  0  0  0  0  0  0  0  0  0
   -1.9704    1.7677   -1.4777 H   0  0  0  0  0  0  0  0  0  0  0  0
   -3.3030    2.8584   -1.0531 H   0  0  0  0  0  0  0  0  0  0  0  0
   -1.1107   -0.2839    0.3303 N   0  0  0  0  0  0  0  0  0  0  0  0
   -1.7964   -1.5506    0.3567 C   0  0  2  0  0  0  0  0  0  0  0  0
   -1.7470   -2.0715    1.7901 C   0  0  0  0  0  0  0  0  0  0  0  0
   -2.7322   -2.5148    2.3766 O   0  0  0  0  0  0  0  0  0  0  0  0
   -1.2083   -2.5661   -0.6338 C   0  0  2  0  0  0  0  0  0  0  0  0
    0.1565   -2.8424   -0.3226 O   0  0  0  0  0  0  0  0  0  0  0  0
   -1.2662   -2.0679   -2.0728 C   0  0  0  0  0  0  0  0  0  0  0  0
   -0.3215   -0.1812   -0.3036 H   0  0  0  0  0  0  0  0  0  0  0  0
   -2.8426   -1.3424    0.1015 H   0  0  0  0  0  0  0  0  0  0  0  0
   -1.7538   -3.5150   -0.5740 H   0  0  0  0  0  0  0  0  0  0  0  0
    0.4489   -3.5216   -0.9493 H   0  0  0  0  0  0  0  0  0  0  0  0
   -0.7337   -1.1177   -2.1890 H   0  0  0  0  0  0  0  0  0  0  0  0
   -2.2997   -1.9374   -2.4072 H   0  0  0  0  0  0  0  0  0  0  0  0
   -0.7729   -2.7827   -2.7407 H   0  0  0  0  0  0  0  0  0  0  0  0
   -0.4855   -1.9370    2.3525 N   0  0  0  0  0  0  0  0  0  0  0  0
   -0.1947   -2.3290    3.7116 C   0  0  2  0  0  0  0  0  0  0  0  0
   -0.0310   -3.8429    3.7396 C   0  0  0  0  0  0  0  0  0  0  0  0
   -0.5122   -4.5855    2.8863 O   0  0  0  0  0  0  0  0  0  0  0  0
   -1.2939   -1.8834    4.6633 C   0  0  0  0  0  0  0  0  0  0  0  0
    0.2625   -1.5477    1.7861 H   0  0  0  0  0  0  0  0  0  0  0  0
    0.7545   -1.8534    3.9817 H   0  0  0  0  0  0  0  0  0  0  0  0
   -2.2526   -2.3496    4.4083 H   0  0  0  0  0  0  0  0  0  0  0  0
   -1.0583   -2.1562    5.6972 H   0  0  0  0  0  0  0  0  0  0  0  0
   -1.4305   -0.7974    4.6198 H   0  0  0  0  0  0  0  0  0  0  0  0
    0.6788   -4.2706    4.8529 N   0  0  0  0  0  0  0  0  0  0  0  0
    0.9559   -5.6640    5.1129 C   0  0  0  0  0  0  0  0  0  0  0  0
    1.0570   -3.5837    5.4986 H   0  0  0  0  0  0  0  0  0  0  0  0
    0.1646   -6.0827    5.7521 H   0  0  0  0  0  0  0  0  0  0  0  0
    0.9883   -6.2150    4.1614 H   0  0  0  0  0  0  0  0  0  0  0  0
    1.9261   -5.7559    5.6230 H   0  0  0  0  0  0  0  0  0  0  0  0
  1  3  1  0  0  0  0
  1  7  1  0  0  0  0
  1  2  2  0  0  0  0
 32 33  1  0  0  0  0
 33 41  1  0  0  0  0
 33 34  2  0  0  0  0
  8  9  1  0  0  0  0
  9 17  1  0  0  0  0
  9 10  2  0  0  0  0
 18 19  1  0  0  0  0
 19 31  1  0  0  0  0
 19 20  2  0  0  0  0
 32 35  1  0  0  0  0
  8 11  1  0  0  0  0
 21 23  1  0  0  0  0
 41 42  1  0  0  0  0
 31 32  1  0  0  0  0
  7  8  1  0  0  0  0
 18 21  1  0  0  0  0
 17 18  1  0  0  0  0
 21 22  1  0  0  0  0
  3  4  1  0  0  0  0
  3  5  1  0  0  0  0
  3  6  1  0  0  0  0
 35 38  1  0  0  0  0
 35 39  1  0  0  0  0
 35 40  1  0  0  0  0
 11 14  1  0  0  0  0
 11 15  1  0  0  0  0
 11 16  1  0  0  0  0
 23 28  1  0  0  0  0
 23 29  1  0  0  0  0
 23 30  1  0  0  0  0
 42 44  1  0  0  0  0
 42 45  1  0  0  0  0
 42 46  1  0  0  0  0
 32 37  1  0  0  0  0
  8 13  1  0  0  0  0
 18 25  1  0  0  0  0
 21 26  1  0  0  0  0
 41 43  1  0  0  0  0
  7 12  1  0  0  0  0
 31 36  1  0  0  0  0
 17 24  1  0  0  0  0
 22 27  1  0  0  0  0
M  END
$$$$

  -OEChem-02062319033D

 46 45  0     1  0  0  0  0  0999 V2000
   -4.6700    2.7214    1.5150 C   0  0  0  0  0  0  0  0  0  0  0  0
   -5.4532    2.5715    0.5845 O   0  0  0  0  0  0  0  0  0  0  0  0
   -5.0996    3.4865    2.7226 C   0  0  0  0  0  0  0  0  0  0  0  0
   -4.8796    4.5629    2.6387 H   0  0  0  0  0  0  0  0  0  0  0  0
   -6.1861    3.4241    2.8954 H   0  0  0  0  0  0  0  0  0  0  0  0
   -4.6369    3.1693    3.6708 H   0  0  0  0  0  0  0  0  0  0  0  0
   -3.3731    2.2391    1.5790 N   0  0  0  0  0  0  0  0  0  0  0  0
   -2.7599    1.4751    0.5247 C   0  0  2  0  0  0  0  0  0  0  0  0
   -1.5143    0.8067    1.0915 C   0  0  0  0  0  0  0  0  0  0  0  0
   -0.9247    1.2213    2.0872 O   0  0  0  0  0  0  0  0  0  0  0  0
   -2.4106    2.3553   -0.6653 C   0  0  0  0  0  0  0  0  0  0  0  0
   -2.8254    2.4352    2.4150 H   0  0  0  0  0  0  0  0  0  0  0  0
   -3.4836    0.7082    0.2278 H   0  0  0  0  0  0  0  0  0  0  0  0
   -1.6866    3.1298   -0.3871 H   0  0  0  0  0  0  0  0  0  0  0  0
   -1.9704    1.7677   -1.4777 H   0  0  0  0  0  0  0  0  0  0  0  0
   -3.3030    2.8584   -1.0531 H   0  0  0  0  0  0  0  0  0  0  0  0
   -1.1107   -0.2839    0.3303 N   0  0  0  0  0  0  0  0  0  0  0  0
   -1.9502   -1.4331    0.1068 C   0  0  2  0  0  0  0  0  0  0  0  0
   -2.2710   -2.0413    1.4690 C   0  0  0  0  0  0  0  0  0  0  0  0
   -3.4072   -2.3670    1.8069 O   0  0  0  0  0  0  0  0  0  0  0  0
   -1.3100   -2.4633   -0.8350 C   0  0  2  0  0  0  0  0  0  0  0  0
   -0.0897   -2.9589   -0.2863 O   0  0  0  0  0  0  0  0  0  0  0  0
   -0.9992   -1.8759   -2.2064 C   0  0  0  0  0  0  0  0  0  0  0  0
   -0.2002   -0.2621   -0.1232 H   0  0  0  0  0  0  0  0  0  0  0  0
   -2.8827   -1.0557   -0.3304 H   0  0  0  0  0  0  0  0  0  0  0  0
   -1.9780   -3.3219   -0.9697 H   0  0  0  0  0  0  0  0  0  0  0  0
    0.2333   -3.6349   -0.9013 H   0  0  0  0  0  0  0  0  0  0  0  0
   -0.3319   -1.0107   -2.1293 H   0  0  0  0  0  0  0  0  0  0  0  0
   -1.9133   -1.5723   -2.7254 H   0  0  0  0  0  0  0  0  0  0  0  0
   -0.4779   -2.6147   -2.8251 H   0  0  0  0  0  0  0  0  0  0  0  0
   -1.1481   -2.1312    2.2794 N   0  0  0  0  0  0  0  0  0  0  0  0
   -1.2023   -2.6438    3.6283 C   0  0  2  0  0  0  0  0  0  0  0  0
   -1.2524   -4.1641    3.5521 C   0  0  0  0  0  0  0  0  0  0  0  0
   -1.6402   -4.7734    2.5574 O   0  0  0  0  0  0  0  0  0  0  0  0
   -2.4060   -2.0973    4.3800 C   0  0  0  0  0  0  0  0  0  0  0  0
   -0.2532   -1.8245    1.9093 H   0  0  0  0  0  0  0  0  0  0  0  0
   -0.2753   -2.3327    4.1223 H   0  0  0  0  0  0  0  0  0  0  0  0
   -3.3441   -2.3987    3.8998 H   0  0  0  0  0  0  0  0  0  0  0  0
   -2.4298   -2.4644    5.4114 H   0  0  0  0  0  0  0  0  0  0  0  0
   -2.3837   -1.0025    4.4081 H   0  0  0  0  0  0  0  0  0  0  0  0
   -0.8541   -4.7597    4.7407 N   0  0  0  0  0  0  0  0  0  0  0  0
   -0.8266   -6.1920    4.9241 C   0  0  0  0  0  0  0  0  0  0  0  0
   -0.5304   -4.1774    5.5074 H   0  0  0  0  0  0  0  0  0  0  0  0
   -1.7826   -6.5255    5.3541 H   0  0  0  0  0  0  0  0  0  0  0  0
   -0.6707   -6.6830    3.9522 H   0  0  0  0  0  0  0  0  0  0  0  0
   -0.0054   -6.4586    5.6056 H   0  0  0  0  0  0  0  0  0  0  0  0
  1  3  1  0  0  0  0
  1  7  1  0  0  0  0
  1  2  2  0  0  0  0
 32 33  1  0  0  0  0
 33 41  1  0  0  0  0
 33 34  2  0  0  0  0
  8  9  1  0  0  0  0
  9 17  1  0  0  0  0
  9 10  2  0  0  0  0
 18 19  1  0  0  0  0
 19 31  1  0  0  0  0
 19 20  2  0  0  0  0
 32 35  1  0  0  0  0
  8 11  1  0  0  0  0
 21 23  1  0  0  0  0
 41 42  1  0  0  0  0
 31 32  1  0  0  0  0
  7  8  1  0  0  0  0
 18 21  1  0  0  0  0
 17 18  1  0  0  0  0
 21 22  1  0  0  0  0
  3  4  1  0  0  0  0
  3  5  1  0  0  0  0
  3  6  1  0  0  0  0
 35 38  1  0  0  0  0
 35 39  1  0  0  0  0
 35 40  1  0  0  0  0
 11 14  1  0  0  0  0
 11 15  1  0  0  0  0
 11 16  1  0  0  0  0
 23 28  1  0  0  0  0
 23 29  1  0  0  0  0
 23 30  1  0  0  0  0
 42 44  1  0  0  0  0
 42 45  1  0  0  0  0
 42 46  1  0  0  0  0
 32 37  1  0  0  0  0
  8 13  1  0  0  0  0
 18 25  1  0  0  0  0
 21 26  1  0  0  0  0
 41 43  1  0  0  0  0
  7 12  1  0  0  0  0
 31 36  1  0  0  0  0
 17 24  1  0  0  0  0
 22 27  1  0  0  0  0
M  END
$$$$

  -OEChem-02062319033D

 46 45  0     1  0  0  0  0  0999 V2000
   -4.6700    2.7214    1.5150 C   0  0  0  0  0  0  0  0  0  0  0  0
   -5.4532    2.5715    0.5845 O   0  0  0  0  0  0  0  0  0  0  0  0
   -5.0996    3.4865    2.7226 C   0  0  0  0  0  0  0  0  0  0  0  0
   -4.8796    4.5629    2.6387 H   0  0  0  0  0  0  0  0  0  0  0  0
   -6.1861    3.4241    2.8954 H   0  0  0  0  0  0  0  0  0  0  0  0
   -4.6369    3.1693    3.6708 H   0  0  0  0  0  0  0  0  0  0  0  0
   -3.3731    2.2391    1.5790 N   0  0  0  0  0  0  0  0  0  0  0  0
   -2.7599    1.4751    0.5247 C   0  0  2  0  0  0  0  0  0  0  0  0
   -1.5143    0.8067    1.0915 C   0  0  0  0  0  0  0  0  0  0  0  0
   -0.9247    1.2213    2.0872 O   0  0  0  0  0  0  0  0  0  0  0  0
   -2.4106    2.3553   -0.6653 C   0  0  0  0  0  0  0  0  0  0  0  0
   -2.8254    2.4352    2.4150 H   0  0  0  0  0  0  0  0  0  0  0  0
   -3.4836    0.7082    0.2278 H   0  0  0  0  0  0  0  0  0  0  0  0
   -1.6866    3.1298   -0.3871 H   0  0  0  0  0  0  0  0  0  0  0  0
   -1.9704    1.7677   -1.4777 H   0  0  0  0  0  0  0  0  0  0  0  0
   -3.3030    2.8584   -1.0531 H   0  0  0  0  0  0  0  0  0  0  0  0
   -1.1107   -0.2839    0.3303 N   0  0  0  0  0  0  0  0  0  0  0  0
   -2.0314   -1.2790   -0.1571 C   0  0  2  0  0  0  0  0  0  0  0  0
   -2.7076   -1.9137    1.0547 C   0  0  0  0  0  0  0  0  0  0  0  0
   -3.9225   -2.0858    1.1306 O   0  0  0  0  0  0  0  0  0  0  0  0
   -1.3527   -2.3344   -1.0423 C   0  0  2  0  0  0  0  0  0  0  0  0
   -0.3513   -3.0392   -0.3100 O   0  0  0  0  0  0  0  0  0  0  0  0
   -0.6870   -1.7182   -2.2668 C   0  0  0  0  0  0  0  0  0  0  0  0
   -0.1311   -0.3711    0.0695 H   0  0  0  0  0  0  0  0  0  0  0  0
   -2.7930   -0.7407   -0.7342 H   0  0  0  0  0  0  0  0  0  0  0  0
   -2.0869   -3.0737   -1.3830 H   0  0  0  0  0  0  0  0  0  0  0  0
   -0.0008   -3.7175   -0.9072 H   0  0  0  0  0  0  0  0  0  0  0  0
    0.0593   -0.9687   -1.9819 H   0  0  0  0  0  0  0  0  0  0  0  0
   -1.4237   -1.2505   -2.9269 H   0  0  0  0  0  0  0  0  0  0  0  0
   -0.1519   -2.4878   -2.8340 H   0  0  0  0  0  0  0  0  0  0  0  0
   -1.8008   -2.2194    2.0596 N   0  0  0  0  0  0  0  0  0  0  0  0
   -2.2032   -2.7988    3.3196 C   0  0  2  0  0  0  0  0  0  0  0  0
   -2.4396   -4.2871    3.0987 C   0  0  0  0  0  0  0  0  0  0  0  0
   -2.6895   -4.7702    1.9964 O   0  0  0  0  0  0  0  0  0  0  0  0
   -3.4529   -2.1250    3.8645 C   0  0  0  0  0  0  0  0  0  0  0  0
   -0.8156   -2.0281    1.9028 H   0  0  0  0  0  0  0  0  0  0  0  0
   -1.3665   -2.6603    4.0130 H   0  0  0  0  0  0  0  0  0  0  0  0
   -4.3020   -2.2531    3.1833 H   0  0  0  0  0  0  0  0  0  0  0  0
   -3.7403   -2.5461    4.8336 H   0  0  0  0  0  0  0  0  0  0  0  0
   -3.2906   -1.0496    3.9947 H   0  0  0  0  0  0  0  0  0  0  0  0
   -2.3814   -5.0063    4.2842 N   0  0  0  0  0  0  0  0  0  0  0  0
   -2.5849   -6.4351    4.3401 C   0  0  0  0  0  0  0  0  0  0  0  0
   -2.1496   -4.5265    5.1490 H   0  0  0  0  0  0  0  0  0  0  0  0
   -3.6454   -6.6474    4.5409 H   0  0  0  0  0  0  0  0  0  0  0  0
   -2.2969   -6.8843    3.3781 H   0  0  0  0  0  0  0  0  0  0  0  0
   -1.9671   -6.8622    5.1437 H   0  0  0  0  0  0  0  0  0  0  0  0
  1  3  1  0  0  0  0
  1  7  1  0  0  0  0
  1  2  2  0  0  0  0
 32 33  1  0  0  0  0
 33 41  1  0  0  0  0
 33 34  2  0  0  0  0
  8  9  1  0  0  0  0
  9 17  1  0  0  0  0
  9 10  2  0  0  0  0
 18 19  1  0  0  0  0
 19 31  1  0  0  0  0
 19 20  2  0  0  0  0
 32 35  1  0  0  0  0
  8 11  1  0  0  0  0
 21 23  1  0  0  0  0
 41 42  1  0  0  0  0
 31 32  1  0  0  0  0
  7  8  1  0  0  0  0
 18 21  1  0  0  0  0
 17 18  1  0  0  0  0
 21 22  1  0  0  0  0
  3  4  1  0  0  0  0
  3  5  1  0  0  0  0
  3  6  1  0  0  0  0
 35 38  1  0  0  0  0
 35 39  1  0  0  0  0
 35 40  1  0  0  0  0
 11 14  1  0  0  0  0
 11 15  1  0  0  0  0
 11 16  1  0  0  0  0
 23 28  1  0  0  0  0
 23 29  1  0  0  0  0
 23 30  1  0  0  0  0
 42 44  1  0  0  0  0
 42 45  1  0  0  0  0
 42 46  1  0  0  0  0
 32 37  1  0  0  0  0
  8 13  1  0  0  0  0
 18 25  1  0  0  0  0
 21 26  1  0  0  0  0
 41 43  1  0  0  0  0
  7 12  1  0  0  0  0
 31 36  1  0  0  0  0
 17 24  1  0  0  0  0
 22 27  1  0  0  0  0
M  END
$$$$

  -OEChem-02062319033D

 46 45  0     1  0  0  0  0  0999 V2000
   -4.6700    2.7214    1.5150 C   0  0  0  0  0  0  0  0  0  0  0  0
   -5.4532    2.5715    0.5845 O   0  0  0  0  0  0  0  0  0  0  0  0
   -5.0996    3.4865    2.7226 C   0  0  0  0  0  0  0  0  0  0  0  0
   -4.8796    4.5629    2.6387 H   0  0  0  0  0  0  0  0  0  0  0  0
   -6.1861    3.4241    2.8954 H   0  0  0  0  0  0  0  0  0  0  0  0
   -4.6369    3.1693    3.6708 H   0  0  0  0  0  0  0  0  0  0  0  0
   -3.3731    2.2391    1.5790 N   0  0  0  0  0  0  0  0  0  0  0  0
   -2.7599    1.4751    0.5247 C   0  0  2  0  0  0  0  0  0  0  0  0
   -1.5143    0.8067    1.0915 C   0  0  0  0  0  0  0  0  0  0  0  0
   -0.9247    1.2213    2.0872 O   0  0  0  0  0  0  0  0  0  0  0  0
   -2.4106    2.3553   -0.6653 C   0  0  0  0  0  0  0  0  0  0  0  0
   -2.8254    2.4352    2.4150 H   0  0  0  0  0  0  0  0  0  0  0  0
   -3.4836    0.7082    0.2278 H   0  0  0  0  0  0  0  0  0  0  0  0
   -1.6866    3.1298   -0.3871 H   0  0  0  0  0  0  0  0  0  0  0  0
   -1.9704    1.7677   -1.4777 H   0  0  0  0  0  0  0  0  0  0  0  0
   -3.3030    2.8584   -1.0531 H   0  0  0  0  0  0  0  0  0  0  0  0
   -1.1107   -0.2839    0.3303 N   0  0  0  0  0  0  0  0  0  0  0  0
   -2.0343   -1.0988   -0.4168 C   0  0  2  0  0  0  0  0  0  0  0  0
   -3.0272   -1.6975    0.5753 C   0  0  0  0  0  0  0  0  0  0  0  0
   -4.2430   -1.6902    0.3939 O   0  0  0  0  0  0  0  0  0  0  0  0
   -1.3337   -2.1883   -1.2416 C   0  0  2  0  0  0  0  0  0  0  0  0
   -0.6106   -3.0779   -0.3921 O   0  0  0  0  0  0  0  0  0  0  0  0
   -0.3509   -1.6055   -2.2499 C   0  0  0  0  0  0  0  0  0  0  0  0
   -0.1189   -0.5006    0.2616 H   0  0  0  0  0  0  0  0  0  0  0  0
   -2.5798   -0.4188   -1.0824 H   0  0  0  0  0  0  0  0  0  0  0  0
   -2.0729   -2.7876   -1.7856 H   0  0  0  0  0  0  0  0  0  0  0  0
   -0.2374   -3.7635   -0.9666 H   0  0  0  0  0  0  0  0  0  0  0  0
    0.4132   -0.9947   -1.7570 H   0  0  0  0  0  0  0  0  0  0  0  0
   -0.8643   -0.9939   -2.9979 H   0  0  0  0  0  0  0  0  0  0  0  0
    0.1827   -2.4107   -2.7669 H   0  0  0  0  0  0  0  0  0  0  0  0
   -2.3992   -2.1955    1.7081 N   0  0  0  0  0  0  0  0  0  0  0  0
   -3.1294   -2.7835    2.8065 C   0  0  2  0  0  0  0  0  0  0  0  0
   -3.5117   -4.2035    2.4105 C   0  0  0  0  0  0  0  0  0  0  0  0
   -3.5887   -4.5763    1.2417 O   0  0  0  0  0  0  0  0  0  0  0  0
   -4.3634   -1.9646    3.1519 C   0  0  0  0  0  0  0  0  0  0  0  0
   -1.3863   -2.1446    1.7670 H   0  0  0  0  0  0  0  0  0  0  0  0
   -2.4448   -2.8138    3.6612 H   0  0  0  0  0  0  0  0  0  0  0  0
   -5.0611   -1.9229    2.3075 H   0  0  0  0  0  0  0  0  0  0  0  0
   -4.9003   -2.3959    4.0032 H   0  0  0  0  0  0  0  0  0  0  0  0
   -4.0892   -0.9354    3.4076 H   0  0  0  0  0  0  0  0  0  0  0  0
   -3.7988   -4.9938    3.5146 N   0  0  0  0  0  0  0  0  0  0  0  0
   -4.1991   -6.3769    3.4006 C   0  0  0  0  0  0  0  0  0  0  0  0
   -3.6903   -4.6072    4.4477 H   0  0  0  0  0  0  0  0  0  0  0  0
   -5.2968   -6.4399    3.3679 H   0  0  0  0  0  0  0  0  0  0  0  0
   -3.7797   -6.8049    2.4782 H   0  0  0  0  0  0  0  0  0  0  0  0
   -3.8253   -6.9394    4.2688 H   0  0  0  0  0  0  0  0  0  0  0  0
  1  3  1  0  0  0  0
  1  7  1  0  0  0  0
  1  2  2  0  0  0  0
 32 33  1  0  0  0  0
 33 41  1  0  0  0  0
 33 34  2  0  0  0  0
  8  9  1  0  0  0  0
  9 17  1  0  0  0  0
  9 10  2  0  0  0  0
 18 19  1  0  0  0  0
 19 31  1  0  0  0  0
 19 20  2  0  0  0  0
 32 35  1  0  0  0  0
  8 11  1  0  0  0  0
 21 23  1  0  0  0  0
 41 42  1  0  0  0  0
 31 32  1  0  0  0  0
  7  8  1  0  0  0  0
 18 21  1  0  0  0  0
 17 18  1  0  0  0  0
 21 22  1  0  0  0  0
  3  4  1  0  0  0  0
  3  5  1  0  0  0  0
  3  6  1  0  0  0  0
 35 38  1  0  0  0  0
 35 39  1  0  0  0  0
 35 40  1  0  0  0  0
 11 14  1  0  0  0  0
 11 15  1  0  0  0  0
 11 16  1  0  0  0  0
 23 28  1  0  0  0  0
 23 29  1  0  0  0  0
 23 30  1  0  0  0  0
 42 44  1  0  0  0  0
 42 45  1  0  0  0  0
 42 46  1  0  0  0  0
 32 37  1  0  0  0  0
  8 13  1  0  0  0  0
 18 25  1  0  0  0  0
 21 26  1  0  0  0  0
 41 43  1  0  0  0  0
  7 12  1  0  0  0  0
 31 36  1  0  0  0  0
 17 24  1  0  0  0  0
 22 27  1  0  0  0  0
M  END
$$$$

  -OEChem-02062319033D

 46 45  0     1  0  0  0  0  0999 V2000
   -4.6700    2.7214    1.5150 C   0  0  0  0  0  0  0  0  0  0  0  0
   -5.4532    2.5715    0.5845 O   0  0  0  0  0  0  0  0  0  0  0  0
   -5.0996    3.4865    2.7226 C   0  0  0  0  0  0  0  0  0  0  0  0
   -4.8796    4.5629    2.6387 H   0  0  0  0  0  0  0  0  0  0  0  0
   -6.1861    3.4241    2.8954 H   0  0  0  0  0  0  0  0  0  0  0  0
   -4.6369    3.1693    3.6708 H   0  0  0  0  0  0  0  0  0  0  0  0
   -3.3731    2.2391    1.5790 N   0  0  0  0  0  0  0  0  0  0  0  0
   -2.7599    1.4751    0.5247 C   0  0  2  0  0  0  0  0  0  0  0  0
   -1.5143    0.8067    1.0915 C   0  0  0  0  0  0  0  0  0  0  0  0
   -0.9247    1.2213    2.0872 O   0  0  0  0  0  0  0  0  0  0  0  0
   -2.4106    2.3553   -0.6653 C   0  0  0  0  0  0  0  0  0  0  0  0
   -2.8254    2.4352    2.4150 H   0  0  0  0  0  0  0  0  0  0  0  0
   -3.4836    0.7082    0.2278 H   0  0  0  0  0  0  0  0  0  0  0  0
   -1.6866    3.1298   -0.3871 H   0  0  0  0  0  0  0  0  0  0  0  0
   -1.9704    1.7677   -1.4777 H   0  0  0  0  0  0  0  0  0  0  0  0
   -3.3030    2.8584   -1.0531 H   0  0  0  0  0  0  0  0  0  0  0  0
   -1.1107   -0.2839    0.3303 N   0  0  0  0  0  0  0  0  0  0  0  0
   -1.9589   -0.9048   -0.6547 C   0  0  2  0  0  0  0  0  0  0  0  0
   -3.2079   -1.4073    0.0637 C   0  0  0  0  0  0  0  0  0  0  0  0
   -4.3470   -1.2074   -0.3531 O   0  0  0  0  0  0  0  0  0  0  0  0
   -1.2541   -2.0349   -1.4192 C   0  0  2  0  0  0  0  0  0  0  0  0
   -0.8499   -3.0723   -0.5269 O   0  0  0  0  0  0  0  0  0  0  0  0
   -0.0136   -1.5457   -2.1569 C   0  0  0  0  0  0  0  0  0  0  0  0
   -0.1646   -0.6419    0.4398 H   0  0  0  0  0  0  0  0  0  0  0  0
   -2.2574   -0.1119   -1.3512 H   0  0  0  0  0  0  0  0  0  0  0  0
   -1.9371   -2.4829   -2.1502 H   0  0  0  0  0  0  0  0  0  0  0  0
   -0.4604   -3.7701   -1.0755 H   0  0  0  0  0  0  0  0  0  0  0  0
    0.7057   -1.0869   -1.4698 H   0  0  0  0  0  0  0  0  0  0  0  0
   -0.2731   -0.8200   -2.9335 H   0  0  0  0  0  0  0  0  0  0  0  0
    0.5032   -2.3888   -2.6284 H   0  0  0  0  0  0  0  0  0  0  0  0
   -2.9023   -2.0613    1.2489 N   0  0  0  0  0  0  0  0  0  0  0  0
   -3.9176   -2.5988    2.1239 C   0  0  2  0  0  0  0  0  0  0  0  0
   -4.3957   -3.9191    1.5342 C   0  0  0  0  0  0  0  0  0  0  0  0
   -4.2764   -4.2048    0.3446 O   0  0  0  0  0  0  0  0  0  0  0  0
   -5.0754   -1.6271    2.2907 C   0  0  0  0  0  0  0  0  0  0  0  0
   -1.9266   -2.1659    1.5111 H   0  0  0  0  0  0  0  0  0  0  0  0
   -3.4367   -2.7828    3.0908 H   0  0  0  0  0  0  0  0  0  0  0  0
   -5.5697   -1.4305    1.3323 H   0  0  0  0  0  0  0  0  0  0  0  0
   -5.8309   -2.0240    2.9768 H   0  0  0  0  0  0  0  0  0  0  0  0
   -4.7252   -0.6678    2.6869 H   0  0  0  0  0  0  0  0  0  0  0  0
   -5.0099   -4.7230    2.4843 N   0  0  0  0  0  0  0  0  0  0  0  0
   -5.5592   -6.0212    2.1697 C   0  0  0  0  0  0  0  0  0  0  0  0
   -5.0476   -4.4141    3.4512 H   0  0  0  0  0  0  0  0  0  0  0  0
   -6.6243   -5.9173    1.9151 H   0  0  0  0  0  0  0  0  0  0  0  0
   -5.0179   -6.4505    1.3137 H   0  0  0  0  0  0  0  0  0  0  0  0
   -5.4535   -6.6848    3.0406 H   0  0  0  0  0  0  0  0  0  0  0  0
  1  3  1  0  0  0  0
  1  7  1  0  0  0  0
  1  2  2  0  0  0  0
 32 33  1  0  0  0  0
 33 41  1  0  0  0  0
 33 34  2  0  0  0  0
  8  9  1  0  0  0  0
  9 17  1  0  0  0  0
  9 10  2  0  0  0  0
 18 19  1  0  0  0  0
 19 31  1  0  0  0  0
 19 20  2  0  0  0  0
 32 35  1  0  0  0  0
  8 11  1  0  0  0  0
 21 23  1  0  0  0  0
 41 42  1  0  0  0  0
 31 32  1  0  0  0  0
  7  8  1  0  0  0  0
 18 21  1  0  0  0  0
 17 18  1  0  0  0  0
 21 22  1  0  0  0  0
  3  4  1  0  0  0  0
  3  5  1  0  0  0  0
  3  6  1  0  0  0  0
 35 38  1  0  0  0  0
 35 39  1  0  0  0  0
 35 40  1  0  0  0  0
 11 14  1  0  0  0  0
 11 15  1  0  0  0  0
 11 16  1  0  0  0  0
 23 28  1  0  0  0  0
 23 29  1  0  0  0  0
 23 30  1  0  0  0  0
 42 44  1  0  0  0  0
 42 45  1  0  0  0  0
 42 46  1  0  0  0  0
 32 37  1  0  0  0  0
  8 13  1  0  0  0  0
 18 25  1  0  0  0  0
 21 26  1  0  0  0  0
 41 43  1  0  0  0  0
  7 12  1  0  0  0  0
 31 36  1  0  0  0  0
 17 24  1  0  0  0  0
 22 27  1  0  0  0  0
M  END
$$$$

  -OEChem-02062319033D

 46 45  0     1  0  0  0  0  0999 V2000
   -4.6700    2.7214    1.5150 C   0  0  0  0  0  0  0  0  0  0  0  0
   -5.4532    2.5715    0.5845 O   0  0  0  0  0  0  0  0  0  0  0  0
   -5.0996    3.4865    2.7226 C   0  0  0  0  0  0  0  0  0  0  0  0
   -4.8796    4.5629    2.6387 H   0  0  0  0  0  0  0  0  0  0  0  0
   -6.1861    3.4241    2.8954 H   0  0  0  0  0  0  0  0  0  0  0  0
   -4.6369    3.1693    3.6708 H   0  0  0  0  0  0  0  0  0  0  0  0
   -3.3731    2.2391    1.5790 N   0  0  0  0  0  0  0  0  0  0  0  0
   -2.7599    1.4751    0.5247 C   0  0  2  0  0  0  0  0  0  0  0  0
   -1.5143    0.8067    1.0915 C   0  0  0  0  0  0  0  0  0  0  0  0
   -0.9247    1.2213    2.0872 O   0  0  0  0  0  0  0  0  0  0  0  0
   -2.4106    2.3553   -0.6653 C   0  0  0  0  0  0  0  0  0  0  0  0
   -2.8254    2.4352    2.4150 H   0  0  0  0  0  0  0  0  0  0  0  0
   -3.4836    0.7082    0.2278 H   0  0  0  0  0  0  0  0  0  0  0  0
   -1.6866    3.1298   -0.3871 H   0  0  0  0  0  0  0  0  0  0  0  0
   -1.9704    1.7677   -1.4777 H   0  0  0  0  0  0  0  0  0  0  0  0
   -3.3030    2.8584   -1.0531 H   0  0  0  0  0  0  0  0  0  0  0  0
   -1.1107   -0.2839    0.3303 N   0  0  0  0  0  0  0  0  0  0  0  0
   -1.8102   -0.7103   -0.8547 C   0  0  2  0  0  0  0  0  0  0  0  0
   -3.2373   -1.0629   -0.4454 C   0  0  0  0  0  0  0  0  0  0  0  0
   -4.2272   -0.6701   -1.0595 O   0  0  0  0  0  0  0  0  0  0  0  0
   -1.1194   -1.8846   -1.5630 C   0  0  2  0  0  0  0  0  0  0  0  0
   -1.0529   -3.0229   -0.7053 O   0  0  0  0  0  0  0  0  0  0  0  0
    0.3017   -1.5426   -1.9940 C   0  0  0  0  0  0  0  0  0  0  0  0
   -0.2649   -0.7853    0.5921 H   0  0  0  0  0  0  0  0  0  0  0  0
   -1.8479    0.1591   -1.5223 H   0  0  0  0  0  0  0  0  0  0  0  0
   -1.6887   -2.1804   -2.4519 H   0  0  0  0  0  0  0  0  0  0  0  0
   -0.6546   -3.7366   -1.2265 H   0  0  0  0  0  0  0  0  0  0  0  0
    0.9168   -1.2390   -1.1399 H   0  0  0  0  0  0  0  0  0  0  0  0
    0.3095   -0.7407   -2.7383 H   0  0  0  0  0  0  0  0  0  0  0  0
    0.7878   -2.4235   -2.4278 H   0  0  0  0  0  0  0  0  0  0  0  0
   -3.2761   -1.8257    0.7132 N   0  0  0  0  0  0  0  0  0  0  0  0
   -4.5141   -2.2574    1.3184 C   0  0  2  0  0  0  0  0  0  0  0  0
   -5.0312   -3.4533    0.5297 C   0  0  0  0  0  0  0  0  0  0  0  0
   -4.7059   -3.6810   -0.6337 O   0  0  0  0  0  0  0  0  0  0  0  0
   -5.5404   -1.1354    1.3395 C   0  0  0  0  0  0  0  0  0  0  0  0
   -2.3995   -2.0908    1.1526 H   0  0  0  0  0  0  0  0  0  0  0  0
   -4.2745   -2.5694    2.3407 H   0  0  0  0  0  0  0  0  0  0  0  0
   -5.7931   -0.8094    0.3240 H   0  0  0  0  0  0  0  0  0  0  0  0
   -6.4685   -1.4557    1.8244 H   0  0  0  0  0  0  0  0  0  0  0  0
   -5.1552   -0.2650    1.8817 H   0  0  0  0  0  0  0  0  0  0  0  0
   -5.9321   -4.2123    1.2635 N   0  0  0  0  0  0  0  0  0  0  0  0
   -6.5726   -5.3923    0.7312 C   0  0  0  0  0  0  0  0  0  0  0  0
   -6.1288   -3.9604    2.2276 H   0  0  0  0  0  0  0  0  0  0  0  0
   -7.5374   -5.1152    0.2814 H   0  0  0  0  0  0  0  0  0  0  0  0
   -5.9272   -5.8451   -0.0359 H   0  0  0  0  0  0  0  0  0  0  0  0
   -6.7407   -6.1157    1.5426 H   0  0  0  0  0  0  0  0  0  0  0  0
  1  3  1  0  0  0  0
  1  7  1  0  0  0  0
  1  2  2  0  0  0  0
 32 33  1  0  0  0  0
 33 41  1  0  0  0  0
 33 34  2  0  0  0  0
  8  9  1  0  0  0  0
  9 17  1  0  0  0  0
  9 10  2  0  0  0  0
 18 19  1  0  0  0  0
 19 31  1  0  0  0  0
 19 20  2  0  0  0  0
 32 35  1  0  0  0  0
  8 11  1  0  0  0  0
 21 23  1  0  0  0  0
 41 42  1  0  0  0  0
 31 32  1  0  0  0  0
  7  8  1  0  0  0  0
 18 21  1  0  0  0  0
 17 18  1  0  0  0  0
 21 22  1  0  0  0  0
  3  4  1  0  0  0  0
  3  5  1  0  0  0  0
  3  6  1  0  0  0  0
 35 38  1  0  0  0  0
 35 39  1  0  0  0  0
 35 40  1  0  0  0  0
 11 14  1  0  0  0  0
 11 15  1  0  0  0  0
 11 16  1  0  0  0  0
 23 28  1  0  0  0  0
 23 29  1  0  0  0  0
 23 30  1  0  0  0  0
 42 44  1  0  0  0  0
 42 45  1  0  0  0  0
 42 46  1  0  0  0  0
 32 37  1  0  0  0  0
  8 13  1  0  0  0  0
 18 25  1  0  0  0  0
 21 26  1  0  0  0  0
 41 43  1  0  0  0  0
  7 12  1  0  0  0  0
 31 36  1  0  0  0  0
 17 24  1  0  0  0  0
 22 27  1  0  0  0  0
M  END
$$$$

  -OEChem-02062319033D

 46 45  0     1  0  0  0  0  0999 V2000
   -4.6700    2.7214    1.5150 C   0  0  0  0  0  0  0  0  0  0  0  0
   -5.4532    2.5715    0.5845 O   0  0  0  0  0  0  0  0  0  0  0  0
   -5.0996    3.4865    2.7226 C   0  0  0  0  0  0  0  0  0  0  0  0
   -4.8796    4.5629    2.6387 H   0  0  0  0  0  0  0  0  0  0  0  0
   -6.1861    3.4241    2.8954 H   0  0  0  0  0  0  0  0  0  0  0  0
   -4.6369    3.1693    3.6708 H   0  0  0  0  0  0  0  0  0  0  0  0
   -3.3731    2.2391    1.5790 N   0  0  0  0  0  0  0  0  0  0  0  0
   -2.7599    1.4751    0.5247 C   0  0  2  0  0  0  0  0  0  0  0  0
   -1.5143    0.8067    1.0915 C   0  0  0  0  0  0  0  0  0  0  0  0
   -0.9247    1.2213    2.0872 O   0  0  0  0  0  0  0  0  0  0  0  0
   -2.4106    2.3553   -0.6653 C   0  0  0  0  0  0  0  0  0  0  0  0
   -2.8254    2.4352    2.4150 H   0  0  0  0  0  0  0  0  0  0  0  0
   -3.4836    0.7082    0.2278 H   0  0  0  0  0  0  0  0  0  0  0  0
   -1.6866    3.1298   -0.3871 H   0  0  0  0  0  0  0  0  0  0  0  0
   -1.9704    1.7677   -1.4777 H   0  0  0  0  0  0  0  0  0  0  0  0
   -3.3030    2.8584   -1.0531 H   0  0  0  0  0  0  0  0  0  0  0  0
   -1.1107   -0.2839    0.3303 N   0  0  0  0  0  0  0  0  0  0  0  0
   -1.5984   -0.5284   -1.0030 C   0  0  2  0  0  0  0  0  0  0  0  0
   -3.1136   -0.6878   -0.9172 C   0  0  0  0  0  0  0  0  0  0  0  0
   -3.8919   -0.1150   -1.6771 O   0  0  0  0  0  0  0  0  0  0  0  0
   -0.9388   -1.7478   -1.6633 C   0  0  2  0  0  0  0  0  0  0  0  0
   -1.2057   -2.9330   -0.9152 O   0  0  0  0  0  0  0  0  0  0  0  0
    0.5737   -1.5966   -1.7724 C   0  0  0  0  0  0  0  0  0  0  0  0
   -0.4130   -0.9210    0.7080 H   0  0  0  0  0  0  0  0  0  0  0  0
   -1.3793    0.3756   -1.5841 H   0  0  0  0  0  0  0  0  0  0  0  0
   -1.3446   -1.9008   -2.6701 H   0  0  0  0  0  0  0  0  0  0  0  0
   -0.8067   -3.6653   -1.4093 H   0  0  0  0  0  0  0  0  0  0  0  0
    1.0321   -1.4406   -0.7898 H   0  0  0  0  0  0  0  0  0  0  0  0
    0.8439   -0.7613   -2.4253 H   0  0  0  0  0  0  0  0  0  0  0  0
    1.0171   -2.5124   -2.1789 H   0  0  0  0  0  0  0  0  0  0  0  0
   -3.4949   -1.5050    0.1375 N   0  0  0  0  0  0  0  0  0  0  0  0
   -4.8783   -1.7825    0.4448 C   0  0  2  0  0  0  0  0  0  0  0  0
   -5.3751   -2.8377   -0.5347 C   0  0  0  0  0  0  0  0  0  0  0  0
   -4.8479   -3.0407   -1.6264 O   0  0  0  0  0  0  0  0  0  0  0  0
   -5.7267   -0.5230    0.3634 C   0  0  0  0  0  0  0  0  0  0  0  0
   -2.7728   -1.9242    0.7160 H   0  0  0  0  0  0  0  0  0  0  0  0
   -4.9011   -2.1882    1.4621 H   0  0  0  0  0  0  0  0  0  0  0  0
   -5.7161   -0.1021   -0.6487 H   0  0  0  0  0  0  0  0  0  0  0  0
   -6.7699   -0.7297    0.6244 H   0  0  0  0  0  0  0  0  0  0  0  0
   -5.3500    0.2455    1.0469 H   0  0  0  0  0  0  0  0  0  0  0  0
   -6.5026   -3.4965   -0.0647 N   0  0  0  0  0  0  0  0  0  0  0  0
   -7.1701   -4.5331   -0.8168 C   0  0  0  0  0  0  0  0  0  0  0  0
   -6.8604   -3.2768    0.8603 H   0  0  0  0  0  0  0  0  0  0  0  0
   -7.9740   -4.0881   -1.4217 H   0  0  0  0  0  0  0  0  0  0  0  0
   -6.4456   -5.0301   -1.4787 H   0  0  0  0  0  0  0  0  0  0  0  0
   -7.5991   -5.2710   -0.1230 H   0  0  0  0  0  0  0  0  0  0  0  0
  1  3  1  0  0  0  0
  1  7  1  0  0  0  0
  1  2  2  0  0  0  0
 32 33  1  0  0  0  0
 33 41  1  0  0  0  0
 33 34  2  0  0  0  0
  8  9  1  0  0  0  0
  9 17  1  0  0  0  0
  9 10  2  0  0  0  0
 18 19  1  0  0  0  0
 19 31  1  0  0  0  0
 19 20  2  0  0  0  0
 32 35  1  0  0  0  0
  8 11  1  0  0  0  0
 21 23  1  0  0  0  0
 41 42  1  0  0  0  0
 31 32  1  0  0  0  0
  7  8  1  0  0  0  0
 18 21  1  0  0  0  0
 17 18  1  0  0  0  0
 21 22  1  0  0  0  0
  3  4  1  0  0  0  0
  3  5  1  0  0  0  0
  3  6  1  0  0  0  0
 35 38  1  0  0  0  0
 35 39  1  0  0  0  0
 35 40  1  0  0  0  0
 11 14  1  0  0  0  0
 11 15  1  0  0  0  0
 11 16  1  0  0  0  0
 23 28  1  0  0  0  0
 23 29  1  0  0  0  0
 23 30  1  0  0  0  0
 42 44  1  0  0  0  0
 42 45  1  0  0  0  0
 42 46  1  0  0  0  0
 32 37  1  0  0  0  0
  8 13  1  0  0  0  0
 18 25  1  0  0  0  0
 21 26  1  0  0  0  0
 41 43  1  0  0  0  0
  7 12  1  0  0  0  0
 31 36  1  0  0  0  0
 17 24  1  0  0  0  0
 22 27  1  0  0  0  0
M  END
$$$$

  -OEChem-02062319033D

 46 45  0     1  0  0  0  0  0999 V2000
   -4.6700    2.7214    1.5150 C   0  0  0  0  0  0  0  0  0  0  0  0
   -5.4532    2.5715    0.5845 O   0  0  0  0  0  0  0  0  0  0  0  0
   -5.0996    3.4865    2.7226 C   0  0  0  0  0  0  0  0  0  0  0  0
   -4.8796    4.5629    2.6387 H   0  0  0  0  0  0  0  0  0  0  0  0
   -6.1861    3.4241    2.8954 H   0  0  0  0  0  0  0  0  0  0  0  0
   -4.6369    3.1693    3.6708 H   0  0  0  0  0  0  0  0  0  0  0  0
   -3.3731    2.2391    1.5790 N   0  0  0  0  0  0  0  0  0  0  0  0
   -2.7599    1.4751    0.5247 C   0  0  2  0  0  0  0  0  0  0  0  0
   -1.5143    0.8067    1.0915 C   0  0  0  0  0  0  0  0  0  0  0  0
   -0.9247    1.2213    2.0872 O   0  0  0  0  0  0  0  0  0  0  0  0
   -2.4106    2.3553   -0.6653 C   0  0  0  0  0  0  0  0  0  0  0  0
   -2.8254    2.4352    2.4150 H   0  0  0  0  0  0  0  0  0  0  0  0
   -3.4836    0.7082    0.2278 H   0  0  0  0  0  0  0  0  0  0  0  0
   -1.6866    3.1298   -0.3871 H   0  0  0  0  0  0  0  0  0  0  0  0
   -1.9704    1.7677   -1.4777 H   0  0  0  0  0  0  0  0  0  0  0  0
   -3.3030    2.8584   -1.0531 H   0  0  0  0  0  0  0  0  0  0  0  0
   -1.1107   -0.2839    0.3303 N   0  0  0  0  0  0  0  0  0  0  0  0
   -1.3379   -0.3716   -1.0895 C   0  0  2  0  0  0  0  0  0  0  0  0
   -2.8451   -0.3076   -1.3197 C   0  0  0  0  0  0  0  0  0  0  0  0
   -3.3639    0.4201   -2.1638 O   0  0  0  0  0  0  0  0  0  0  0  0
   -0.7245   -1.6337   -1.7133 C   0  0  2  0  0  0  0  0  0  0  0  0
   -1.2979   -2.8087   -1.1421 O   0  0  0  0  0  0  0  0  0  0  0  0
    0.7837   -1.7040   -1.5071 C   0  0  0  0  0  0  0  0  0  0  0  0
   -0.5989   -1.0399    0.7797 H   0  0  0  0  0  0  0  0  0  0  0  0
   -0.8833    0.5230   -1.5323 H   0  0  0  0  0  0  0  0  0  0  0  0
   -0.9283   -1.6630   -2.7899 H   0  0  0  0  0  0  0  0  0  0  0  0
   -0.9065   -3.5612   -1.6114 H   0  0  0  0  0  0  0  0  0  0  0  0
    1.0438   -1.6781   -0.4434 H   0  0  0  0  0  0  0  0  0  0  0  0
    1.2935   -0.8805   -2.0161 H   0  0  0  0  0  0  0  0  0  0  0  0
    1.1753   -2.6494   -1.8985 H   0  0  0  0  0  0  0  0  0  0  0  0
   -3.5439   -1.1209   -0.4388 N   0  0  0  0  0  0  0  0  0  0  0  0
   -4.9854   -1.2066   -0.4373 C   0  0  2  0  0  0  0  0  0  0  0  0
   -5.4038   -2.1144   -1.5864 C   0  0  0  0  0  0  0  0  0  0  0  0
   -4.6926   -2.3274   -2.5661 O   0  0  0  0  0  0  0  0  0  0  0  0
   -5.6216    0.1682   -0.5714 C   0  0  0  0  0  0  0  0  0  0  0  0
   -3.0211   -1.6776    0.2309 H   0  0  0  0  0  0  0  0  0  0  0  0
   -5.2740   -1.6650    0.5148 H   0  0  0  0  0  0  0  0  0  0  0  0
   -5.3439    0.6433   -1.5194 H   0  0  0  0  0  0  0  0  0  0  0  0
   -6.7143    0.1044   -0.5413 H   0  0  0  0  0  0  0  0  0  0  0  0
   -5.2962    0.8290    0.2394 H   0  0  0  0  0  0  0  0  0  0  0  0
   -6.6824   -2.6244   -1.4096 N   0  0  0  0  0  0  0  0  0  0  0  0
   -7.3112   -3.5021   -2.3689 C   0  0  0  0  0  0  0  0  0  0  0  0
   -7.1925   -2.4101   -0.5577 H   0  0  0  0  0  0  0  0  0  0  0  0
   -7.9042   -2.9062   -3.0782 H   0  0  0  0  0  0  0  0  0  0  0  0
   -6.5378   -4.0608   -2.9164 H   0  0  0  0  0  0  0  0  0  0  0  0
   -7.9703   -4.2082   -1.8426 H   0  0  0  0  0  0  0  0  0  0  0  0
  1  3  1  0  0  0  0
  1  7  1  0  0  0  0
  1  2  2  0  0  0  0
 32 33  1  0  0  0  0
 33 41  1  0  0  0  0
 33 34  2  0  0  0  0
  8  9  1  0  0  0  0
  9 17  1  0  0  0  0
  9 10  2  0  0  0  0
 18 19  1  0  0  0  0
 19 31  1  0  0  0  0
 19 20  2  0  0  0  0
 32 35  1  0  0  0  0
  8 11  1  0  0  0  0
 21 23  1  0  0  0  0
 41 42  1  0  0  0  0
 31 32  1  0  0  0  0
  7  8  1  0  0  0  0
 18 21  1  0  0  0  0
 17 18  1  0  0  0  0
 21 22  1  0  0  0  0
  3  4  1  0  0  0  0
  3  5  1  0  0  0  0
  3  6  1  0  0  0  0
 35 38  1  0  0  0  0
 35 39  1  0  0  0  0
 35 40  1  0  0  0  0
 11 14  1  0  0  0  0
 11 15  1  0  0  0  0
 11 16  1  0  0  0  0
 23 28  1  0  0  0  0
 23 29  1  0  0  0  0
 23 30  1  0  0  0  0
 42 44  1  0  0  0  0
 42 45  1  0  0  0  0
 42 46  1  0  0  0  0
 32 37  1  0  0  0  0
  8 13  1  0  0  0  0
 18 25  1  0  0  0  0
 21 26  1  0  0  0  0
 41 43  1  0  0  0  0
  7 12  1  0  0  0  0
 31 36  1  0  0  0  0
 17 24  1  0  0  0  0
 22 27  1  0  0  0  0
M  END
$$$$

  -OEChem-02062319033D

 46 45  0     1  0  0  0  0  0999 V2000
   -4.6700    2.7214    1.5150 C   0  0  0  0  0  0  0  0  0  0  0  0
   -5.4532    2.5715    0.5845 O   0  0  0  0  0  0  0  0  0  0  0  0
   -5.0996    3.4865    2.7226 C   0  0  0  0  0  0  0  0  0  0  0  0
   -4.8796    4.5629    2.6387 H   0  0  0  0  0  0  0  0  0  0  0  0
   -6.1861    3.4241    2.8954 H   0  0  0  0  0  0  0  0  0  0  0  0
   -4.6369    3.1693    3.6708 H   0  0  0  0  0  0  0  0  0  0  0  0
   -3.3731    2.2391    1.5790 N   0  0  0  0  0  0  0  0  0  0  0  0
   -2.7599    1.4751    0.5247 C   0  0  2  0  0  0  0  0  0  0  0  0
   -1.5143    0.8067    1.0915 C   0  0  0  0  0  0  0  0  0  0  0  0
   -0.9247    1.2213    2.0872 O   0  0  0  0  0  0  0  0  0  0  0  0
   -2.4106    2.3553   -0.6653 C   0  0  0  0  0  0  0  0  0  0  0  0
   -2.8254    2.4352    2.4150 H   0  0  0  0  0  0  0  0  0  0  0  0
   -3.4836    0.7082    0.2278 H   0  0  0  0  0  0  0  0  0  0  0  0
   -1.6866    3.1298   -0.3871 H   0  0  0  0  0  0  0  0  0  0  0  0
   -1.9704    1.7677   -1.4777 H   0  0  0  0  0  0  0  0  0  0  0  0
   -3.3030    2.8584   -1.0531 H   0  0  0  0  0  0  0  0  0  0  0  0
   -1.1107   -0.2839    0.3303 N   0  0  0  0  0  0  0  0  0  0  0  0
   -1.0465   -0.2505   -1.1085 C   0  0  2  0  0  0  0  0  0  0  0  0
   -2.4501    0.0519   -1.6253 C   0  0  0  0  0  0  0  0  0  0  0  0
   -2.6792    0.8987   -2.4865 O   0  0  0  0  0  0  0  0  0  0  0  0
   -0.4913   -1.5500   -1.7094 C   0  0  2  0  0  0  0  0  0  0  0  0
   -1.3233   -2.6586   -1.3708 O   0  0  0  0  0  0  0  0  0  0  0  0
    0.9175   -1.8574   -1.2164 C   0  0  0  0  0  0  0  0  0  0  0  0
   -0.8098   -1.1337    0.8023 H   0  0  0  0  0  0  0  0  0  0  0  0
   -0.3939    0.5912   -1.3704 H   0  0  0  0  0  0  0  0  0  0  0  0
   -0.4681   -1.4834   -2.8033 H   0  0  0  0  0  0  0  0  0  0  0  0
   -0.9471   -3.4313   -1.8190 H   0  0  0  0  0  0  0  0  0  0  0  0
    0.9512   -1.9351   -0.1243 H   0  0  0  0  0  0  0  0  0  0  0  0
    1.6279   -1.0901   -1.5384 H   0  0  0  0  0  0  0  0  0  0  0  0
    1.2518   -2.8253   -1.6059 H   0  0  0  0  0  0  0  0  0  0  0  0
   -3.4197   -0.6996   -0.9766 N   0  0  0  0  0  0  0  0  0  0  0  0
   -4.8281   -0.5687   -1.2678 C   0  0  2  0  0  0  0  0  0  0  0  0
   -5.1154   -1.3326   -2.5537 C   0  0  0  0  0  0  0  0  0  0  0  0
   -4.2507   -1.5899   -3.3885 O   0  0  0  0  0  0  0  0  0  0  0  0
   -5.2323    0.8913   -1.4010 C   0  0  0  0  0  0  0  0  0  0  0  0
   -3.1275   -1.3677   -0.2695 H   0  0  0  0  0  0  0  0  0  0  0  0
   -5.3676   -1.0357   -0.4366 H   0  0  0  0  0  0  0  0  0  0  0  0
   -4.7019    1.3760   -2.2288 H   0  0  0  0  0  0  0  0  0  0  0  0
   -6.3057    0.9898   -1.5934 H   0  0  0  0  0  0  0  0  0  0  0  0
   -4.9975    1.4457   -0.4859 H   0  0  0  0  0  0  0  0  0  0  0  0
   -6.4593   -1.6555   -2.6797 N   0  0  0  0  0  0  0  0  0  0  0  0
   -6.9860   -2.3696   -3.8192 C   0  0  0  0  0  0  0  0  0  0  0  0
   -7.1024   -1.4192   -1.9297 H   0  0  0  0  0  0  0  0  0  0  0  0
   -7.3328   -1.6499   -4.5753 H   0  0  0  0  0  0  0  0  0  0  0  0
   -6.1975   -3.0035   -4.2510 H   0  0  0  0  0  0  0  0  0  0  0  0
   -7.8289   -2.9998   -3.4992 H   0  0  0  0  0  0  0  0  0  0  0  0
  1  3  1  0  0  0  0
  1  7  1  0  0  0  0
  1  2  2  0  0  0  0
 32 33  1  0  0  0  0
 33 41  1  0  0  0  0
 33 34  2  0  0  0  0
  8  9  1  0  0  0  0
  9 17  1  0  0  0  0
  9 10  2  0  0  0  0
 18 19  1  0  0  0  0
 19 31  1  0  0  0  0
 19 20  2  0  0  0  0
 32 35  1  0  0  0  0
  8 11  1  0  0  0  0
 21 23  1  0  0  0  0
 41 42  1  0  0  0  0
 31 32  1  0  0  0  0
  7  8  1  0  0  0  0
 18 21  1  0  0  0  0
 17 18  1  0  0  0  0
 21 22  1  0  0  0  0
  3  4  1  0  0  0  0
  3  5  1  0  0  0  0
  3  6  1  0  0  0  0
 35 38  1  0  0  0  0
 35 39  1  0  0  0  0
 35 40  1  0  0  0  0
 11 14  1  0  0  0  0
 11 15  1  0  0  0  0
 11 16  1  0  0  0  0
 23 28  1  0  0  0  0
 23 29  1  0  0  0  0
 23 30  1  0  0  0  0
 42 44  1  0  0  0  0
 42 45  1  0  0  0  0
 42 46  1  0  0  0  0
 32 37  1  0  0  0  0
  8 13  1  0  0  0  0
 18 25  1  0  0  0  0
 21 26  1  0  0  0  0
 41 43  1  0  0  0  0
  7 12  1  0  0  0  0
 31 36  1  0  0  0  0
 17 24  1  0  0  0  0
 22 27  1  0  0  0  0
M  END
$$$$

  -OEChem-02062319033D

 46 45  0     1  0  0  0  0  0999 V2000
   -4.6700    2.7214    1.5150 C   0  0  0  0  0  0  0  0  0  0  0  0
   -5.4532    2.5715    0.5845 O   0  0  0  0  0  0  0  0  0  0  0  0
   -5.0996    3.4865    2.7226 C   0  0  0  0  0  0  0  0  0  0  0  0
   -4.8796    4.5629    2.6387 H   0  0  0  0  0  0  0  0  0  0  0  0
   -6.1861    3.4241    2.8954 H   0  0  0  0  0  0  0  0  0  0  0  0
   -4.6369    3.1693    3.6708 H   0  0  0  0  0  0  0  0  0  0  0  0
   -3.3731    2.2391    1.5790 N   0  0  0  0  0  0  0  0  0  0  0  0
   -2.7599    1.4751    0.5247 C   0  0  2  0  0  0  0  0  0  0  0  0
   -1.5143    0.8067    1.0915 C   0  0  0  0  0  0  0  0  0  0  0  0
   -0.9247    1.2213    2.0872 O   0  0  0  0  0  0  0  0  0  0  0  0
   -2.4106    2.3553   -0.6653 C   0  0  0  0  0  0  0  0  0  0  0  0
   -2.8254    2.4352    2.4150 H   0  0  0  0  0  0  0  0  0  0  0  0
   -3.4836    0.7082    0.2278 H   0  0  0  0  0  0  0  0  0  0  0  0
   -1.6866    3.1298   -0.3871 H   0  0  0  0  0  0  0  0  0  0  0  0
   -1.9704    1.7677   -1.4777 H   0  0  0  0  0  0  0  0  0  0  0  0
   -3.3030    2.8584   -1.0531 H   0  0  0  0  0  0  0  0  0  0  0  0
   -1.1107   -0.2839    0.3303 N   0  0  0  0  0  0  0  0  0  0  0  0
   -0.7440   -0.1735   -1.0584 C   0  0  2  0  0  0  0  0  0  0  0  0
   -1.9555    0.3661   -1.8132 C   0  0  0  0  0  0  0  0  0  0  0  0
   -1.8845    1.2882   -2.6231 O   0  0  0  0  0  0  0  0  0  0  0  0
   -0.2549   -1.5026   -1.6520 C   0  0  2  0  0  0  0  0  0  0  0  0
   -1.2801   -2.4928   -1.5855 O   0  0  0  0  0  0  0  0  0  0  0  0
    0.9659   -2.0465   -0.9199 C   0  0  0  0  0  0  0  0  0  0  0  0
   -1.0314   -1.1961    0.7742 H   0  0  0  0  0  0  0  0  0  0  0  0
    0.0556    0.5755   -1.1096 H   0  0  0  0  0  0  0  0  0  0  0  0
    0.0045   -1.3741   -2.7093 H   0  0  0  0  0  0  0  0  0  0  0  0
   -0.9257   -3.2845   -2.0181 H   0  0  0  0  0  0  0  0  0  0  0  0
    0.7604   -2.1942    0.1459 H   0  0  0  0  0  0  0  0  0  0  0  0
    1.8241   -1.3759   -1.0249 H   0  0  0  0  0  0  0  0  0  0  0  0
    1.2414   -3.0281   -1.3210 H   0  0  0  0  0  0  0  0  0  0  0  0
   -3.1308   -0.2698   -1.4392 N   0  0  0  0  0  0  0  0  0  0  0  0
   -4.4170    0.0875   -1.9901 C   0  0  2  0  0  0  0  0  0  0  0  0
   -4.5296   -0.5455   -3.3707 C   0  0  0  0  0  0  0  0  0  0  0  0
   -3.5522   -0.8782   -4.0378 O   0  0  0  0  0  0  0  0  0  0  0  0
   -4.5852    1.5969   -2.0688 C   0  0  0  0  0  0  0  0  0  0  0  0
   -3.0847   -1.0157   -0.7512 H   0  0  0  0  0  0  0  0  0  0  0  0
   -5.1756   -0.3430   -1.3273 H   0  0  0  0  0  0  0  0  0  0  0  0
   -3.8338    2.0460   -2.7285 H   0  0  0  0  0  0  0  0  0  0  0  0
   -5.5718    1.8663   -2.4600 H   0  0  0  0  0  0  0  0  0  0  0  0
   -4.4743    2.0535   -1.0794 H   0  0  0  0  0  0  0  0  0  0  0  0
   -5.8486   -0.6557   -3.7883 N   0  0  0  0  0  0  0  0  0  0  0  0
   -6.2169   -1.2128   -5.0689 C   0  0  0  0  0  0  0  0  0  0  0  0
   -6.5963   -0.3718   -3.1622 H   0  0  0  0  0  0  0  0  0  0  0  0
   -6.2988   -0.4049   -5.8109 H   0  0  0  0  0  0  0  0  0  0  0  0
   -5.4479   -1.9301   -5.3915 H   0  0  0  0  0  0  0  0  0  0  0  0
   -7.1847   -1.7280   -4.9798 H   0  0  0  0  0  0  0  0  0  0  0  0
  1  3  1  0  0  0  0
  1  7  1  0  0  0  0
  1  2  2  0  0  0  0
 32 33  1  0  0  0  0
 33 41  1  0  0  0  0
 33 34  2  0  0  0  0
  8  9  1  0  0  0  0
  9 17  1  0  0  0  0
  9 10  2  0  0  0  0
 18 19  1  0  0  0  0
 19 31  1  0  0  0  0
 19 20  2  0  0  0  0
 32 35  1  0  0  0  0
  8 11  1  0  0  0  0
 21 23  1  0  0  0  0
 41 42  1  0  0  0  0
 31 32  1  0  0  0  0
  7  8  1  0  0  0  0
 18 21  1  0  0  0  0
 17 18  1  0  0  0  0
 21 22  1  0  0  0  0
  3  4  1  0  0  0  0
  3  5  1  0  0  0  0
  3  6  1  0  0  0  0
 35 38  1  0  0  0  0
 35 39  1  0  0  0  0
 35 40  1  0  0  0  0
 11 14  1  0  0  0  0
 11 15  1  0  0  0  0
 11 16  1  0  0  0  0
 23 28  1  0  0  0  0
 23 29  1  0  0  0  0
 23 30  1  0  0  0  0
 42 44  1  0  0  0  0
 42 45  1  0  0  0  0
 42 46  1  0  0  0  0
 32 37  1  0  0  0  0
  8 13  1  0  0  0  0
 18 25  1  0  0  0  0
 21 26  1  0  0  0  0
 41 43  1  0  0  0  0
  7 12  1  0  0  0  0
 31 36  1  0  0  0  0
 17 24  1  0  0  0  0
 22 27  1  0  0  0  0
M  END
$$$$

  -OEChem-02062319033D

 46 45  0     1  0  0  0  0  0999 V2000
   -4.6700    2.7214    1.5150 C   0  0  0  0  0  0  0  0  0  0  0  0
   -5.4532    2.5715    0.5845 O   0  0  0  0  0  0  0  0  0  0  0  0
   -5.0996    3.4865    2.7226 C   0  0  0  0  0  0  0  0  0  0  0  0
   -4.8796    4.5629    2.6387 H   0  0  0  0  0  0  0  0  0  0  0  0
   -6.1861    3.4241    2.8954 H   0  0  0  0  0  0  0  0  0  0  0  0
   -4.6369    3.1693    3.6708 H   0  0  0  0  0  0  0  0  0  0  0  0
   -3.3731    2.2391    1.5790 N   0  0  0  0  0  0  0  0  0  0  0  0
   -2.7599    1.4751    0.5247 C   0  0  2  0  0  0  0  0  0  0  0  0
   -1.5143    0.8067    1.0915 C   0  0  0  0  0  0  0  0  0  0  0  0
   -0.9247    1.2213    2.0872 O   0  0  0  0  0  0  0  0  0  0  0  0
   -2.4106    2.3553   -0.6653 C   0  0  0  0  0  0  0  0  0  0  0  0
   -2.8254    2.4352    2.4150 H   0  0  0  0  0  0  0  0  0  0  0  0
   -3.4836    0.7082    0.2278 H   0  0  0  0  0  0  0  0  0  0  0  0
   -1.6866    3.1298   -0.3871 H   0  0  0  0  0  0  0  0  0  0  0  0
   -1.9704    1.7677   -1.4777 H   0  0  0  0  0  0  0  0  0  0  0  0
   -3.3030    2.8584   -1.0531 H   0  0  0  0  0  0  0  0  0  0  0  0
   -1.1107   -0.2839    0.3303 N   0  0  0  0  0  0  0  0  0  0  0  0
   -0.4511   -0.1457   -0.9429 C   0  0  2  0  0  0  0  0  0  0  0  0
   -1.3951    0.6136   -1.8707 C   0  0  0  0  0  0  0  0  0  0  0  0
   -1.0339    1.5621   -2.5644 O   0  0  0  0  0  0  0  0  0  0  0  0
   -0.0316   -1.4946   -1.5450 C   0  0  2  0  0  0  0  0  0  0  0  0
   -1.1712   -2.3226   -1.7716 O   0  0  0  0  0  0  0  0  0  0  0  0
    0.9257   -2.2582   -0.6378 C   0  0  0  0  0  0  0  0  0  0  0  0
   -1.2487   -1.2229    0.6973 H   0  0  0  0  0  0  0  0  0  0  0  0
    0.4346    0.4771   -0.7675 H   0  0  0  0  0  0  0  0  0  0  0  0
    0.4575   -1.3426   -2.5142 H   0  0  0  0  0  0  0  0  0  0  0  0
   -0.8438   -3.1307   -2.1949 H   0  0  0  0  0  0  0  0  0  0  0  0
    0.4846   -2.4378    0.3486 H   0  0  0  0  0  0  0  0  0  0  0  0
    1.8688   -1.7183   -0.5105 H   0  0  0  0  0  0  0  0  0  0  0  0
    1.1447   -3.2439   -1.0631 H   0  0  0  0  0  0  0  0  0  0  0  0
   -2.6969    0.1391   -1.7951 N   0  0  0  0  0  0  0  0  0  0  0  0
   -3.7802    0.7174   -2.5549 C   0  0  2  0  0  0  0  0  0  0  0  0
   -3.6863    0.1930   -3.9817 C   0  0  0  0  0  0  0  0  0  0  0  0
   -2.6448   -0.2411   -4.4696 O   0  0  0  0  0  0  0  0  0  0  0  0
   -3.7246    2.2369   -2.5295 C   0  0  0  0  0  0  0  0  0  0  0  0
   -2.8956   -0.6455   -1.1813 H   0  0  0  0  0  0  0  0  0  0  0  0
   -4.7110    0.3658   -2.0966 H   0  0  0  0  0  0  0  0  0  0  0  0
   -2.7989    2.6078   -2.9846 H   0  0  0  0  0  0  0  0  0  0  0  0
   -4.5627    2.6740   -3.0822 H   0  0  0  0  0  0  0  0  0  0  0  0
   -3.7623    2.6111   -1.5008 H   0  0  0  0  0  0  0  0  0  0  0  0
   -4.8917    0.3068   -4.6600 N   0  0  0  0  0  0  0  0  0  0  0  0
   -5.0562   -0.1104   -6.0329 C   0  0  0  0  0  0  0  0  0  0  0  0
   -5.7087    0.6609   -4.1711 H   0  0  0  0  0  0  0  0  0  0  0  0
   -4.8726    0.7441   -6.7009 H   0  0  0  0  0  0  0  0  0  0  0  0
   -4.3401   -0.9138   -6.2602 H   0  0  0  0  0  0  0  0  0  0  0  0
   -6.0814   -0.4797   -6.1835 H   0  0  0  0  0  0  0  0  0  0  0  0
  1  3  1  0  0  0  0
  1  7  1  0  0  0  0
  1  2  2  0  0  0  0
 32 33  1  0  0  0  0
 33 41  1  0  0  0  0
 33 34  2  0  0  0  0
  8  9  1  0  0  0  0
  9 17  1  0  0  0  0
  9 10  2  0  0  0  0
 18 19  1  0  0  0  0
 19 31  1  0  0  0  0
 19 20  2  0  0  0  0
 32 35  1  0  0  0  0
  8 11  1  0  0  0  0
 21 23  1  0  0  0  0
 41 42  1  0  0  0  0
 31 32  1  0  0  0  0
  7  8  1  0  0  0  0
 18 21  1  0  0  0  0
 17 18  1  0  0  0  0
 21 22  1  0  0  0  0
  3  4  1  0  0  0  0
  3  5  1  0  0  0  0
  3  6  1  0  0  0  0
 35 38  1  0  0  0  0
 35 39  1  0  0  0  0
 35 40  1  0  0  0  0
 11 14  1  0  0  0  0
 11 15  1  0  0  0  0
 11 16  1  0  0  0  0
 23 28  1  0  0  0  0
 23 29  1  0  0  0  0
 23 30  1  0  0  0  0
 42 44  1  0  0  0  0
 42 45  1  0  0  0  0
 42 46  1  0  0  0  0
 32 37  1  0  0  0  0
  8 13  1  0  0  0  0
 18 25  1  0  0  0  0
 21 26  1  0  0  0  0
 41 43  1  0  0  0  0
  7 12  1  0  0  0  0
 31 36  1  0  0  0  0
 17 24  1  0  0  0  0
 22 27  1  0  0  0  0
M  END
$$$$

  -OEChem-02062319033D

 46 45  0     1  0  0  0  0  0999 V2000
   -4.6700    2.7214    1.5150 C   0  0  0  0  0  0  0  0  0  0  0  0
   -5.4532    2.5715    0.5845 O   0  0  0  0  0  0  0  0  0  0  0  0
   -5.0996    3.4865    2.7226 C   0  0  0  0  0  0  0  0  0  0  0  0
   -4.8796    4.5629    2.6387 H   0  0  0  0  0  0  0  0  0  0  0  0
   -6.1861    3.4241    2.8954 H   0  0  0  0  0  0  0  0  0  0  0  0
   -4.6369    3.1693    3.6708 H   0  0  0  0  0  0  0  0  0  0  0  0
   -3.3731    2.2391    1.5790 N   0  0  0  0  0  0  0  0  0  0  0  0
   -2.7599    1.4751    0.5247 C   0  0  2  0  0  0  0  0  0  0  0  0
   -1.5143    0.8067    1.0915 C   0  0  0  0  0  0  0  0  0  0  0  0
   -0.9247    1.2213    2.0872 O   0  0  0  0  0  0  0  0  0  0  0  0
   -2.4106    2.3553   -0.6653 C   0  0  0  0  0  0  0  0  0  0  0  0
   -2.8254    2.4352    2.4150 H   0  0  0  0  0  0  0  0  0  0  0  0
   -3.4836    0.7082    0.2278 H   0  0  0  0  0  0  0  0  0  0  0  0
   -1.6866    3.1298   -0.3871 H   0  0  0  0  0  0  0  0  0  0  0  0
   -1.9704    1.7677   -1.4777 H   0  0  0  0  0  0  0  0  0  0  0  0
   -3.3030    2.8584   -1.0531 H   0  0  0  0  0  0  0  0  0  0  0  0
   -1.1107   -0.2839    0.3303 N   0  0  0  0  0  0  0  0  0  0  0  0
   -0.1876   -0.1690   -0.7697 C   0  0  2  0  0  0  0  0  0  0  0  0
   -0.8070    0.7776   -1.7938 C   0  0  0  0  0  0  0  0  0  0  0  0
   -0.1854    1.7016   -2.3144 O   0  0  0  0  0  0  0  0  0  0  0  0
    0.1636   -1.5266   -1.3957 C   0  0  2  0  0  0  0  0  0  0  0  0
   -1.0042   -2.1596   -1.9165 O   0  0  0  0  0  0  0  0  0  0  0  0
    0.7995   -2.4782   -0.3895 C   0  0  0  0  0  0  0  0  0  0  0  0
   -1.4467   -1.2121    0.5770 H   0  0  0  0  0  0  0  0  0  0  0  0
    0.7173    0.3025   -0.3675 H   0  0  0  0  0  0  0  0  0  0  0  0
    0.8599   -1.3910   -2.2314 H   0  0  0  0  0  0  0  0  0  0  0  0
   -0.7069   -2.9805   -2.3376 H   0  0  0  0  0  0  0  0  0  0  0  0
    0.1424   -2.6492    0.4701 H   0  0  0  0  0  0  0  0  0  0  0  0
    1.7590   -2.0941   -0.0303 H   0  0  0  0  0  0  0  0  0  0  0  0
    0.9683   -3.4580   -0.8498 H   0  0  0  0  0  0  0  0  0  0  0  0
   -2.1476    0.4994   -2.0199 N   0  0  0  0  0  0  0  0  0  0  0  0
   -2.9612    1.2780   -2.9239 C   0  0  2  0  0  0  0  0  0  0  0  0
   -2.6429    0.8328   -4.3452 C   0  0  0  0  0  0  0  0  0  0  0  0
   -1.5904    0.2782   -4.6545 O   0  0  0  0  0  0  0  0  0  0  0  0
   -2.7090    2.7678   -2.7516 C   0  0  0  0  0  0  0  0  0  0  0  0
   -2.5732   -0.2825   -1.5306 H   0  0  0  0  0  0  0  0  0  0  0  0
   -4.0056    1.0425   -2.6920 H   0  0  0  0  0  0  0  0  0  0  0  0
   -1.6676    3.0229   -2.9796 H   0  0  0  0  0  0  0  0  0  0  0  0
   -3.3472    3.3579   -3.4175 H   0  0  0  0  0  0  0  0  0  0  0  0
   -2.9098    3.0805   -1.7212 H   0  0  0  0  0  0  0  0  0  0  0  0
   -3.6541    1.1664   -5.2353 N   0  0  0  0  0  0  0  0  0  0  0  0
   -3.5830    0.8623   -6.6455 C   0  0  0  0  0  0  0  0  0  0  0  0
   -4.5000    1.6083   -4.8878 H   0  0  0  0  0  0  0  0  0  0  0  0
   -3.1514    1.7186   -7.1844 H   0  0  0  0  0  0  0  0  0  0  0  0
   -2.9495   -0.0239   -6.7979 H   0  0  0  0  0  0  0  0  0  0  0  0
   -4.5943    0.6603   -7.0283 H   0  0  0  0  0  0  0  0  0  0  0  0
  1  3  1  0  0  0  0
  1  7  1  0  0  0  0
  1  2  2  0  0  0  0
 32 33  1  0  0  0  0
 33 41  1  0  0  0  0
 33 34  2  0  0  0  0
  8  9  1  0  0  0  0
  9 17  1  0  0  0  0
  9 10  2  0  0  0  0
 18 19  1  0  0  0  0
 19 31  1  0  0  0  0
 19 20  2  0  0  0  0
 32 35  1  0  0  0  0
  8 11  1  0  0  0  0
 21 23  1  0  0  0  0
 41 42  1  0  0  0  0
 31 32  1  0  0  0  0
  7  8  1  0  0  0  0
 18 21  1  0  0  0  0
 17 18  1  0  0  0  0
 21 22  1  0  0  0  0
  3  4  1  0  0  0  0
  3  5  1  0  0  0  0
  3  6  1  0  0  0  0
 35 38  1  0  0  0  0
 35 39  1  0  0  0  0
 35 40  1  0  0  0  0
 11 14  1  0  0  0  0
 11 15  1  0  0  0  0
 11 16  1  0  0  0  0
 23 28  1  0  0  0  0
 23 29  1  0  0  0  0
 23 30  1  0  0  0  0
 42 44  1  0  0  0  0
 42 45  1  0  0  0  0
 42 46  1  0  0  0  0
 32 37  1  0  0  0  0
  8 13  1  0  0  0  0
 18 25  1  0  0  0  0
 21 26  1  0  0  0  0
 41 43  1  0  0  0  0
  7 12  1  0  0  0  0
 31 36  1  0  0  0  0
 17 24  1  0  0  0  0
 22 27  1  0  0  0  0
M  END
$$$$

  -OEChem-02062319033D

 46 45  0     1  0  0  0  0  0999 V2000
   -4.6700    2.7214    1.5150 C   0  0  0  0  0  0  0  0  0  0  0  0
   -5.4532    2.5715    0.5845 O   0  0  0  0  0  0  0  0  0  0  0  0
   -5.0996    3.4865    2.7226 C   0  0  0  0  0  0  0  0  0  0  0  0
   -4.8796    4.5629    2.6387 H   0  0  0  0  0  0  0  0  0  0  0  0
   -6.1861    3.4241    2.8954 H   0  0  0  0  0  0  0  0  0  0  0  0
   -4.6369    3.1693    3.6708 H   0  0  0  0  0  0  0  0  0  0  0  0
   -3.3731    2.2391    1.5790 N   0  0  0  0  0  0  0  0  0  0  0  0
   -2.7599    1.4751    0.5247 C   0  0  2  0  0  0  0  0  0  0  0  0
   -1.5143    0.8067    1.0915 C   0  0  0  0  0  0  0  0  0  0  0  0
   -0.9247    1.2213    2.0872 O   0  0  0  0  0  0  0  0  0  0  0  0
   -2.4106    2.3553   -0.6653 C   0  0  0  0  0  0  0  0  0  0  0  0
   -2.8254    2.4352    2.4150 H   0  0  0  0  0  0  0  0  0  0  0  0
   -3.4836    0.7082    0.2278 H   0  0  0  0  0  0  0  0  0  0  0  0
   -1.6866    3.1298   -0.3871 H   0  0  0  0  0  0  0  0  0  0  0  0
   -1.9704    1.7677   -1.4777 H   0  0  0  0  0  0  0  0  0  0  0  0
   -3.3030    2.8584   -1.0531 H   0  0  0  0  0  0  0  0  0  0  0  0
   -1.1107   -0.2839    0.3303 N   0  0  0  0  0  0  0  0  0  0  0  0
    0.0283   -0.2420   -0.5507 C   0  0  2  0  0  0  0  0  0  0  0  0
   -0.2314    0.8469   -1.5878 C   0  0  0  0  0  0  0  0  0  0  0  0
    0.6033    1.6973   -1.8901 O   0  0  0  0  0  0  0  0  0  0  0  0
    0.3173   -1.5964   -1.2142 C   0  0  2  0  0  0  0  0  0  0  0  0
   -0.7903   -2.0150   -2.0103 O   0  0  0  0  0  0  0  0  0  0  0  0
    0.5961   -2.6915   -0.1918 C   0  0  0  0  0  0  0  0  0  0  0  0
   -1.6120   -1.1647    0.4213 H   0  0  0  0  0  0  0  0  0  0  0  0
    0.8843    0.0638    0.0631 H   0  0  0  0  0  0  0  0  0  0  0  0
    1.1842   -1.5161   -1.8802 H   0  0  0  0  0  0  0  0  0  0  0  0
   -0.5245   -2.8441   -2.4363 H   0  0  0  0  0  0  0  0  0  0  0  0
   -0.2427   -2.8140    0.5020 H   0  0  0  0  0  0  0  0  0  0  0  0
    1.5022   -2.4776    0.3830 H   0  0  0  0  0  0  0  0  0  0  0  0
    0.7243   -3.6558   -0.6958 H   0  0  0  0  0  0  0  0  0  0  0  0
   -1.5202    0.7864   -2.0985 N   0  0  0  0  0  0  0  0  0  0  0  0
   -2.0156    1.7312   -3.0718 C   0  0  2  0  0  0  0  0  0  0  0  0
   -1.4706    1.3302   -4.4362 C   0  0  0  0  0  0  0  0  0  0  0  0
   -0.4607    0.6443   -4.5799 O   0  0  0  0  0  0  0  0  0  0  0  0
   -1.6076    3.1533   -2.7200 C   0  0  0  0  0  0  0  0  0  0  0  0
   -2.1393    0.0488   -1.7751 H   0  0  0  0  0  0  0  0  0  0  0  0
   -3.1074    1.6408   -3.0731 H   0  0  0  0  0  0  0  0  0  0  0  0
   -0.5170    3.2632   -2.7137 H   0  0  0  0  0  0  0  0  0  0  0  0
   -2.0080    3.8714   -3.4432 H   0  0  0  0  0  0  0  0  0  0  0  0
   -1.9752    3.4296   -1.7258 H   0  0  0  0  0  0  0  0  0  0  0  0
   -2.2199    1.8645   -5.4751 N   0  0  0  0  0  0  0  0  0  0  0  0
   -1.8978    1.6391   -6.8648 C   0  0  0  0  0  0  0  0  0  0  0  0
   -3.0527    2.4061   -5.2634 H   0  0  0  0  0  0  0  0  0  0  0  0
   -1.2525    2.4523   -7.2287 H   0  0  0  0  0  0  0  0  0  0  0  0
   -1.3709    0.6790   -6.9680 H   0  0  0  0  0  0  0  0  0  0  0  0
   -2.8248    1.6141   -7.4565 H   0  0  0  0  0  0  0  0  0  0  0  0
  1  3  1  0  0  0  0
  1  7  1  0  0  0  0
  1  2  2  0  0  0  0
 32 33  1  0  0  0  0
 33 41  1  0  0  0  0
 33 34  2  0  0  0  0
  8  9  1  0  0  0  0
  9 17  1  0  0  0  0
  9 10  2  0  0  0  0
 18 19  1  0  0  0  0
 19 31  1  0  0  0  0
 19 20  2  0  0  0  0
 32 35  1  0  0  0  0
  8 11  1  0  0  0  0
 21 23  1  0  0  0  0
 41 42  1  0  0  0  0
 31 32  1  0  0  0  0
  7  8  1  0  0  0  0
 18 21  1  0  0  0  0
 17 18  1  0  0  0  0
 21 22  1  0  0  0  0
  3  4  1  0  0  0  0
  3  5  1  0  0  0  0
  3  6  1  0  0  0  0
 35 38  1  0  0  0  0
 35 39  1  0  0  0  0
 35 40  1  0  0  0  0
 11 14  1  0  0  0  0
 11 15  1  0  0  0  0
 11 16  1  0  0  0  0
 23 28  1  0  0  0  0
 23 29  1  0  0  0  0
 23 30  1  0  0  0  0
 42 44  1  0  0  0  0
 42 45  1  0  0  0  0
 42 46  1  0  0  0  0
 32 37  1  0  0  0  0
  8 13  1  0  0  0  0
 18 25  1  0  0  0  0
 21 26  1  0  0  0  0
 41 43  1  0  0  0  0
  7 12  1  0  0  0  0
 31 36  1  0  0  0  0
 17 24  1  0  0  0  0
 22 27  1  0  0  0  0
M  END
$$$$

  -OEChem-02062319033D

 46 45  0     1  0  0  0  0  0999 V2000
   -4.6700    2.7214    1.5150 C   0  0  0  0  0  0  0  0  0  0  0  0
   -5.4532    2.5715    0.5845 O   0  0  0  0  0  0  0  0  0  0  0  0
   -5.0996    3.4865    2.7226 C   0  0  0  0  0  0  0  0  0  0  0  0
   -4.8796    4.5629    2.6387 H   0  0  0  0  0  0  0  0  0  0  0  0
   -6.1861    3.4241    2.8954 H   0  0  0  0  0  0  0  0  0  0  0  0
   -4.6369    3.1693    3.6708 H   0  0  0  0  0  0  0  0  0  0  0  0
   -3.3731    2.2391    1.5790 N   0  0  0  0  0  0  0  0  0  0  0  0
   -2.7599    1.4751    0.5247 C   0  0  2  0  0  0  0  0  0  0  0  0
   -1.5143    0.8067    1.0915 C   0  0  0  0  0  0  0  0  0  0  0  0
   -0.9247    1.2213    2.0872 O   0  0  0  0  0  0  0  0  0  0  0  0
   -2.4106    2.3553   -0.6653 C   0  0  0  0  0  0  0  0  0  0  0  0
   -2.8254    2.4352    2.4150 H   0  0  0  0  0  0  0  0  0  0  0  0
   -3.4836    0.7082    0.2278 H   0  0  0  0  0  0  0  0  0  0  0  0
   -1.6866    3.1298   -0.3871 H   0  0  0  0  0  0  0  0  0  0  0  0
   -1.9704    1.7677   -1.4777 H   0  0  0  0  0  0  0  0  0  0  0  0
   -3.3030    2.8584   -1.0531 H   0  0  0  0  0  0  0  0  0  0  0  0
   -1.1107   -0.2839    0.3303 N   0  0  0  0  0  0  0  0  0  0  0  0
    0.1821   -0.3595   -0.3008 C   0  0  2  0  0  0  0  0  0  0  0  0
    0.2927    0.8167   -1.2666 C   0  0  0  0  0  0  0  0  0  0  0  0
    1.2782    1.5495   -1.3204 O   0  0  0  0  0  0  0  0  0  0  0  0
    0.4189   -1.6992   -1.0130 C   0  0  2  0  0  0  0  0  0  0  0  0
   -0.5441   -1.8985   -2.0466 O   0  0  0  0  0  0  0  0  0  0  0  0
    0.3291   -2.8835   -0.0582 C   0  0  0  0  0  0  0  0  0  0  0  0
   -1.7333   -1.0837    0.2410 H   0  0  0  0  0  0  0  0  0  0  0  0
    0.9244   -0.2229    0.4951 H   0  0  0  0  0  0  0  0  0  0  0  0
    1.4085   -1.7093   -1.4845 H   0  0  0  0  0  0  0  0  0  0  0  0
   -0.3089   -2.7308   -2.4844 H   0  0  0  0  0  0  0  0  0  0  0  0
   -0.6445   -2.9211    0.4423 H   0  0  0  0  0  0  0  0  0  0  0  0
    1.1158   -2.8427    0.7012 H   0  0  0  0  0  0  0  0  0  0  0  0
    0.4292   -3.8239   -0.6114 H   0  0  0  0  0  0  0  0  0  0  0  0
   -0.8576    0.9806   -2.0254 N   0  0  0  0  0  0  0  0  0  0  0  0
   -1.0080    2.0460   -2.9885 C   0  0  2  0  0  0  0  0  0  0  0  0
   -0.2492    1.6514   -4.2487 C   0  0  0  0  0  0  0  0  0  0  0  0
    0.6673    0.8321   -4.2510 O   0  0  0  0  0  0  0  0  0  0  0  0
   -0.4956    3.3672   -2.4367 C   0  0  0  0  0  0  0  0  0  0  0  0
   -1.6236    0.3257   -1.8984 H   0  0  0  0  0  0  0  0  0  0  0  0
   -2.0775    2.1201   -3.2137 H   0  0  0  0  0  0  0  0  0  0  0  0
    0.5744    3.3123   -2.2052 H   0  0  0  0  0  0  0  0  0  0  0  0
   -0.6365    4.1795   -3.1574 H   0  0  0  0  0  0  0  0  0  0  0  0
   -1.0220    3.6346   -1.5141 H   0  0  0  0  0  0  0  0  0  0  0  0
   -0.6869    2.3535   -5.3629 N   0  0  0  0  0  0  0  0  0  0  0  0
   -0.1153    2.1671   -6.6761 C   0  0  0  0  0  0  0  0  0  0  0  0
   -1.4653    2.9998   -5.2722 H   0  0  0  0  0  0  0  0  0  0  0  0
    0.6947    2.8951   -6.8307 H   0  0  0  0  0  0  0  0  0  0  0  0
    0.2880    1.1470   -6.7588 H   0  0  0  0  0  0  0  0  0  0  0  0
   -0.8933    2.3168   -7.4392 H   0  0  0  0  0  0  0  0  0  0  0  0
  1  3  1  0  0  0  0
  1  7  1  0  0  0  0
  1  2  2  0  0  0  0
 32 33  1  0  0  0  0
 33 41  1  0  0  0  0
 33 34  2  0  0  0  0
  8  9  1  0  0  0  0
  9 17  1  0  0  0  0
  9 10  2  0  0  0  0
 18 19  1  0  0  0  0
 19 31  1  0  0  0  0
 19 20  2  0  0  0  0
 32 35  1  0  0  0  0
  8 11  1  0  0  0  0
 21 23  1  0  0  0  0
 41 42  1  0  0  0  0
 31 32  1  0  0  0  0
  7  8  1  0  0  0  0
 18 21  1  0  0  0  0
 17 18  1  0  0  0  0
 21 22  1  0  0  0  0
  3  4  1  0  0  0  0
  3  5  1  0  0  0  0
  3  6  1  0  0  0  0
 35 38  1  0  0  0  0
 35 39  1  0  0  0  0
 35 40  1  0  0  0  0
 11 14  1  0  0  0  0
 11 15  1  0  0  0  0
 11 16  1  0  0  0  0
 23 28  1  0  0  0  0
 23 29  1  0  0  0  0
 23 30  1  0  0  0  0
 42 44  1  0  0  0  0
 42 45  1  0  0  0  0
 42 46  1  0  0  0  0
 32 37  1  0  0  0  0
  8 13  1  0  0  0  0
 18 25  1  0  0  0  0
 21 26  1  0  0  0  0
 41 43  1  0  0  0  0
  7 12  1  0  0  0  0
 31 36  1  0  0  0  0
 17 24  1  0  0  0  0
 22 27  1  0  0  0  0
M  END
$$$$

  -OEChem-02062319033D

 46 45  0     1  0  0  0  0  0999 V2000
   -4.6700    2.7214    1.5150 C   0  0  0  0  0  0  0  0  0  0  0  0
   -5.4532    2.5715    0.5845 O   0  0  0  0  0  0  0  0  0  0  0  0
   -5.0996    3.4865    2.7226 C   0  0  0  0  0  0  0  0  0  0  0  0
   -4.8796    4.5629    2.6387 H   0  0  0  0  0  0  0  0  0  0  0  0
   -6.1861    3.4241    2.8954 H   0  0  0  0  0  0  0  0  0  0  0  0
   -4.6369    3.1693    3.6708 H   0  0  0  0  0  0  0  0  0  0  0  0
   -3.3731    2.2391    1.5790 N   0  0  0  0  0  0  0  0  0  0  0  0
   -2.7599    1.4751    0.5247 C   0  0  2  0  0  0  0  0  0  0  0  0
   -1.5143    0.8067    1.0915 C   0  0  0  0  0  0  0  0  0  0  0  0
   -0.9247    1.2213    2.0872 O   0  0  0  0  0  0  0  0  0  0  0  0
   -2.4106    2.3553   -0.6653 C   0  0  0  0  0  0  0  0  0  0  0  0
   -2.8254    2.4352    2.4150 H   0  0  0  0  0  0  0  0  0  0  0  0
   -3.4836    0.7082    0.2278 H   0  0  0  0  0  0  0  0  0  0  0  0
   -1.6866    3.1298   -0.3871 H   0  0  0  0  0  0  0  0  0  0  0  0
   -1.9704    1.7677   -1.4777 H   0  0  0  0  0  0  0  0  0  0  0  0
   -3.3030    2.8584   -1.0531 H   0  0  0  0  0  0  0  0  0  0  0  0
   -1.1107   -0.2839    0.3303 N   0  0  0  0  0  0  0  0  0  0  0  0
    0.2633   -0.5136   -0.0369 C   0  0  2  0  0  0  0  0  0  0  0  0
    0.7293    0.6891   -0.8523 C   0  0  0  0  0  0  0  0  0  0  0  0
    1.7935    1.2683   -0.6441 O   0  0  0  0  0  0  0  0  0  0  0  0
    0.4617   -1.8281   -0.8057 C   0  0  2  0  0  0  0  0  0  0  0  0
   -0.2825   -1.8182   -2.0229 O   0  0  0  0  0  0  0  0  0  0  0  0
    0.0169   -3.0412    0.0023 C   0  0  0  0  0  0  0  0  0  0  0  0
   -1.8024   -0.9747    0.0482 H   0  0  0  0  0  0  0  0  0  0  0  0
    0.8347   -0.5379    0.8989 H   0  0  0  0  0  0  0  0  0  0  0  0
    1.5173   -1.9574   -1.0712 H   0  0  0  0  0  0  0  0  0  0  0  0
   -0.0748   -2.6483   -2.4785 H   0  0  0  0  0  0  0  0  0  0  0  0
   -1.0357   -2.9630    0.2949 H   0  0  0  0  0  0  0  0  0  0  0  0
    0.6262   -3.1645    0.9027 H   0  0  0  0  0  0  0  0  0  0  0  0
    0.1033   -3.9508   -0.6024 H   0  0  0  0  0  0  0  0  0  0  0  0
   -0.2049    1.0688   -1.8056 N   0  0  0  0  0  0  0  0  0  0  0  0
   -0.0071    2.2010   -2.6798 C   0  0  2  0  0  0  0  0  0  0  0  0
    0.9380    1.7744   -3.7953 C   0  0  0  0  0  0  0  0  0  0  0  0
    1.7166    0.8290   -3.6900 O   0  0  0  0  0  0  0  0  0  0  0  0
    0.5514    3.3949   -1.9212 C   0  0  0  0  0  0  0  0  0  0  0  0
   -1.0612    0.5292   -1.8918 H   0  0  0  0  0  0  0  0  0  0  0  0
   -0.9863    2.4477   -3.1044 H   0  0  0  0  0  0  0  0  0  0  0  0
    1.5323    3.1667   -1.4886 H   0  0  0  0  0  0  0  0  0  0  0  0
    0.6740    4.2613   -2.5796 H   0  0  0  0  0  0  0  0  0  0  0  0
   -0.1151    3.6817   -1.1007 H   0  0  0  0  0  0  0  0  0  0  0  0
    0.8403    2.6002   -4.9065 N   0  0  0  0  0  0  0  0  0  0  0  0
    1.6430    2.4102   -6.0921 C   0  0  0  0  0  0  0  0  0  0  0  0
    0.1539    3.3489   -4.9138 H   0  0  0  0  0  0  0  0  0  0  0  0
    2.5574    3.0170   -6.0175 H   0  0  0  0  0  0  0  0  0  0  0  0
    1.9143    1.3482   -6.1847 H   0  0  0  0  0  0  0  0  0  0  0  0
    1.0684    2.7205   -6.9773 H   0  0  0  0  0  0  0  0  0  0  0  0
  1  3  1  0  0  0  0
  1  7  1  0  0  0  0
  1  2  2  0  0  0  0
 32 33  1  0  0  0  0
 33 41  1  0  0  0  0
 33 34  2  0  0  0  0
  8  9  1  0  0  0  0
  9 17  1  0  0  0  0
  9 10  2  0  0  0  0
 18 19  1  0  0  0  0
 19 31  1  0  0  0  0
 19 20  2  0  0  0  0
 32 35  1  0  0  0  0
  8 11  1  0  0  0  0
 21 23  1  0  0  0  0
 41 42  1  0  0  0  0
 31 32  1  0  0  0  0
  7  8  1  0  0  0  0
 18 21  1  0  0  0  0
 17 18  1  0  0  0  0
 21 22  1  0  0  0  0
  3  4  1  0  0  0  0
  3  5  1  0  0  0  0
  3  6  1  0  0  0  0
 35 38  1  0  0  0  0
 35 39  1  0  0  0  0
 35 40  1  0  0  0  0
 11 14  1  0  0  0  0
 11 15  1  0  0  0  0
 11 16  1  0  0  0  0
 23 28  1  0  0  0  0
 23 29  1  0  0  0  0
 23 30  1  0  0  0  0
 42 44  1  0  0  0  0
 42 45  1  0  0  0  0
 42 46  1  0  0  0  0
 32 37  1  0  0  0  0
  8 13  1  0  0  0  0
 18 25  1  0  0  0  0
 21 26  1  0  0  0  0
 41 43  1  0  0  0  0
  7 12  1  0  0  0  0
 31 36  1  0  0  0  0
 17 24  1  0  0  0  0
 22 27  1  0  0  0  0
M  END
$$$$

  -OEChem-02062319033D

 46 45  0     1  0  0  0  0  0999 V2000
   -4.6700    2.7214    1.5150 C   0  0  0  0  0  0  0  0  0  0  0  0
   -5.4532    2.5715    0.5845 O   0  0  0  0  0  0  0  0  0  0  0  0
   -5.0996    3.4865    2.7226 C   0  0  0  0  0  0  0  0  0  0  0  0
   -4.8796    4.5629    2.6387 H   0  0  0  0  0  0  0  0  0  0  0  0
   -6.1861    3.4241    2.8954 H   0  0  0  0  0  0  0  0  0  0  0  0
   -4.6369    3.1693    3.6708 H   0  0  0  0  0  0  0  0  0  0  0  0
   -3.3731    2.2391    1.5790 N   0  0  0  0  0  0  0  0  0  0  0  0
   -2.7599    1.4751    0.5247 C   0  0  2  0  0  0  0  0  0  0  0  0
   -1.5143    0.8067    1.0915 C   0  0  0  0  0  0  0  0  0  0  0  0
   -0.9247    1.2213    2.0872 O   0  0  0  0  0  0  0  0  0  0  0  0
   -2.4106    2.3553   -0.6653 C   0  0  0  0  0  0  0  0  0  0  0  0
   -2.8254    2.4352    2.4150 H   0  0  0  0  0  0  0  0  0  0  0  0
   -3.4836    0.7082    0.2278 H   0  0  0  0  0  0  0  0  0  0  0  0
   -1.6866    3.1298   -0.3871 H   0  0  0  0  0  0  0  0  0  0  0  0
   -1.9704    1.7677   -1.4777 H   0  0  0  0  0  0  0  0  0  0  0  0
   -3.3030    2.8584   -1.0531 H   0  0  0  0  0  0  0  0  0  0  0  0
   -1.1107   -0.2839    0.3303 N   0  0  0  0  0  0  0  0  0  0  0  0
    0.2662   -0.6938    0.2228 C   0  0  2  0  0  0  0  0  0  0  0  0
    1.0489    0.4729   -0.3730 C   0  0  0  0  0  0  0  0  0  0  0  0
    2.1141    0.8728    0.0926 O   0  0  0  0  0  0  0  0  0  0  0  0
    0.4426   -1.9742   -0.6064 C   0  0  2  0  0  0  0  0  0  0  0  0
   -0.0232   -1.7796   -1.9409 O   0  0  0  0  0  0  0  0  0  0  0  0
   -0.3192   -3.1539   -0.0146 C   0  0  0  0  0  0  0  0  0  0  0  0
   -1.8145   -0.8452   -0.1439 H   0  0  0  0  0  0  0  0  0  0  0  0
    0.6214   -0.8598    1.2471 H   0  0  0  0  0  0  0  0  0  0  0  0
    1.5034   -2.2435   -0.6686 H   0  0  0  0  0  0  0  0  0  0  0  0
    0.1618   -2.6022   -2.4190 H   0  0  0  0  0  0  0  0  0  0  0  0
   -1.3896   -2.9370    0.0700 H   0  0  0  0  0  0  0  0  0  0  0  0
    0.0667   -3.4211    0.9737 H   0  0  0  0  0  0  0  0  0  0  0  0
   -0.2314   -4.0278   -0.6695 H   0  0  0  0  0  0  0  0  0  0  0  0
    0.3935    1.0449   -1.4541 N   0  0  0  0  0  0  0  0  0  0  0  0
    0.9191    2.1856   -2.1667 C   0  0  2  0  0  0  0  0  0  0  0  0
    2.0101    1.6908   -3.1071 C   0  0  0  0  0  0  0  0  0  0  0  0
    2.6158    0.6350   -2.9352 O   0  0  0  0  0  0  0  0  0  0  0  0
    1.4619    3.2345   -1.2086 C   0  0  0  0  0  0  0  0  0  0  0  0
   -0.4905    0.6457   -1.7560 H   0  0  0  0  0  0  0  0  0  0  0  0
    0.0920    2.6012   -2.7525 H   0  0  0  0  0  0  0  0  0  0  0  0
    2.2914    2.8365   -0.6129 H   0  0  0  0  0  0  0  0  0  0  0  0
    1.8340    4.1111   -1.7492 H   0  0  0  0  0  0  0  0  0  0  0  0
    0.6835    3.5675   -0.5136 H   0  0  0  0  0  0  0  0  0  0  0  0
    2.2578    2.5877   -4.1369 N   0  0  0  0  0  0  0  0  0  0  0  0
    3.2572    2.3520   -5.1526 C   0  0  0  0  0  0  0  0  0  0  0  0
    1.6946    3.4296   -4.2125 H   0  0  0  0  0  0  0  0  0  0  0  0
    4.2089    2.8095   -4.8445 H   0  0  0  0  0  0  0  0  0  0  0  0
    3.3970    1.2689   -5.2848 H   0  0  0  0  0  0  0  0  0  0  0  0
    2.9267    2.7976   -6.1024 H   0  0  0  0  0  0  0  0  0  0  0  0
  1  3  1  0  0  0  0
  1  7  1  0  0  0  0
  1  2  2  0  0  0  0
 32 33  1  0  0  0  0
 33 41  1  0  0  0  0
 33 34  2  0  0  0  0
  8  9  1  0  0  0  0
  9 17  1  0  0  0  0
  9 10  2  0  0  0  0
 18 19  1  0  0  0  0
 19 31  1  0  0  0  0
 19 20  2  0  0  0  0
 32 35  1  0  0  0  0
  8 11  1  0  0  0  0
 21 23  1  0  0  0  0
 41 42  1  0  0  0  0
 31 32  1  0  0  0  0
  7  8  1  0  0  0  0
 18 21  1  0  0  0  0
 17 18  1  0  0  0  0
 21 22  1  0  0  0  0
  3  4  1  0  0  0  0
  3  5  1  0  0  0  0
  3  6  1  0  0  0  0
 35 38  1  0  0  0  0
 35 39  1  0  0  0  0
 35 40  1  0  0  0  0
 11 14  1  0  0  0  0
 11 15  1  0  0  0  0
 11 16  1  0  0  0  0
 23 28  1  0  0  0  0
 23 29  1  0  0  0  0
 23 30  1  0  0  0  0
 42 44  1  0  0  0  0
 42 45  1  0  0  0  0
 42 46  1  0  0  0  0
 32 37  1  0  0  0  0
  8 13  1  0  0  0  0
 18 25  1  0  0  0  0
 21 26  1  0  0  0  0
 41 43  1  0  0  0  0
  7 12  1  0  0  0  0
 31 36  1  0  0  0  0
 17 24  1  0  0  0  0
 22 27  1  0  0  0  0
M  END
$$$$

  -OEChem-02062319033D

 46 45  0     1  0  0  0  0  0999 V2000
   -4.6700    2.7214    1.5150 C   0  0  0  0  0  0  0  0  0  0  0  0
   -5.4532    2.5715    0.5845 O   0  0  0  0  0  0  0  0  0  0  0  0
   -5.0996    3.4865    2.7226 C   0  0  0  0  0  0  0  0  0  0  0  0
   -4.8796    4.5629    2.6387 H   0  0  0  0  0  0  0  0  0  0  0  0
   -6.1861    3.4241    2.8954 H   0  0  0  0  0  0  0  0  0  0  0  0
   -4.6369    3.1693    3.6708 H   0  0  0  0  0  0  0  0  0  0  0  0
   -3.3731    2.2391    1.5790 N   0  0  0  0  0  0  0  0  0  0  0  0
   -2.7599    1.4751    0.5247 C   0  0  2  0  0  0  0  0  0  0  0  0
   -1.5143    0.8067    1.0915 C   0  0  0  0  0  0  0  0  0  0  0  0
   -0.9247    1.2213    2.0872 O   0  0  0  0  0  0  0  0  0  0  0  0
   -2.4106    2.3553   -0.6653 C   0  0  0  0  0  0  0  0  0  0  0  0
   -2.8254    2.4352    2.4150 H   0  0  0  0  0  0  0  0  0  0  0  0
   -3.4836    0.7082    0.2278 H   0  0  0  0  0  0  0  0  0  0  0  0
   -1.6866    3.1298   -0.3871 H   0  0  0  0  0  0  0  0  0  0  0  0
   -1.9704    1.7677   -1.4777 H   0  0  0  0  0  0  0  0  0  0  0  0
   -3.3030    2.8584   -1.0531 H   0  0  0  0  0  0  0  0  0  0  0  0
   -1.1107   -0.2839    0.3303 N   0  0  0  0  0  0  0  0  0  0  0  0
    0.1908   -0.8877    0.4607 C   0  0  2  0  0  0  0  0  0  0  0  0
    1.2295    0.1827    0.1387 C   0  0  0  0  0  0  0  0  0  0  0  0
    2.2180    0.3899    0.8396 O   0  0  0  0  0  0  0  0  0  0  0  0
    0.3630   -2.1276   -0.4288 C   0  0  2  0  0  0  0  0  0  0  0  0
    0.2161   -1.7851   -1.8061 O   0  0  0  0  0  0  0  0  0  0  0  0
   -0.6565   -3.2137   -0.1077 C   0  0  0  0  0  0  0  0  0  0  0  0
   -1.7689   -0.7039   -0.3221 H   0  0  0  0  0  0  0  0  0  0  0  0
    0.2991   -1.1667    1.5159 H   0  0  0  0  0  0  0  0  0  0  0  0
    1.3676   -2.5483   -0.3040 H   0  0  0  0  0  0  0  0  0  0  0  0
    0.3848   -2.5957   -2.3101 H   0  0  0  0  0  0  0  0  0  0  0  0
   -1.6821   -2.8448   -0.2172 H   0  0  0  0  0  0  0  0  0  0  0  0
   -0.5245   -3.5950    0.9093 H   0  0  0  0  0  0  0  0  0  0  0  0
   -0.5519   -4.0497   -0.8081 H   0  0  0  0  0  0  0  0  0  0  0  0
    0.8967    0.9106   -0.9949 N   0  0  0  0  0  0  0  0  0  0  0  0
    1.7073    2.0010   -1.4841 C   0  0  2  0  0  0  0  0  0  0  0  0
    2.8941    1.4064   -2.2308 C   0  0  0  0  0  0  0  0  0  0  0  0
    3.3035    0.2635   -2.0382 O   0  0  0  0  0  0  0  0  0  0  0  0
    2.1739    2.8970   -0.3474 C   0  0  0  0  0  0  0  0  0  0  0  0
    0.0498    0.6671   -1.5002 H   0  0  0  0  0  0  0  0  0  0  0  0
    1.0838    2.5702   -2.1822 H   0  0  0  0  0  0  0  0  0  0  0  0
    2.8000    2.3441    0.3624 H   0  0  0  0  0  0  0  0  0  0  0  0
    2.7645    3.7391   -0.7228 H   0  0  0  0  0  0  0  0  0  0  0  0
    1.3195    3.3000    0.2071 H   0  0  0  0  0  0  0  0  0  0  0  0
    3.4689    2.3169   -3.1065 N   0  0  0  0  0  0  0  0  0  0  0  0
    4.6173    1.9963   -3.9216 C   0  0  0  0  0  0  0  0  0  0  0  0
    3.0518    3.2366   -3.2161 H   0  0  0  0  0  0  0  0  0  0  0  0
    5.5364    2.2869   -3.3917 H   0  0  0  0  0  0  0  0  0  0  0  0
    4.6353    0.9145   -4.1203 H   0  0  0  0  0  0  0  0  0  0  0  0
    4.5549    2.5430   -4.8741 H   0  0  0  0  0  0  0  0  0  0  0  0
  1  3  1  0  0  0  0
  1  7  1  0  0  0  0
  1  2  2  0  0  0  0
 32 33  1  0  0  0  0
 33 41  1  0  0  0  0
 33 34  2  0  0  0  0
  8  9  1  0  0  0  0
  9 17  1  0  0  0  0
  9 10  2  0  0  0  0
 18 19  1  0  0  0  0
 19 31  1  0  0  0  0
 19 20  2  0  0  0  0
 32 35  1  0  0  0  0
  8 11  1  0  0  0  0
 21 23  1  0  0  0  0
 41 42  1  0  0  0  0
 31 32  1  0  0  0  0
  7  8  1  0  0  0  0
 18 21  1  0  0  0  0
 17 18  1  0  0  0  0
 21 22  1  0  0  0  0
  3  4  1  0  0  0  0
  3  5  1  0  0  0  0
  3  6  1  0  0  0  0
 35 38  1  0  0  0  0
 35 39  1  0  0  0  0
 35 40  1  0  0  0  0
 11 14  1  0  0  0  0
 11 15  1  0  0  0  0
 11 16  1  0  0  0  0
 23 28  1  0  0  0  0
 23 29  1  0  0  0  0
 23 30  1  0  0  0  0
 42 44  1  0  0  0  0
 42 45  1  0  0  0  0
 42 46  1  0  0  0  0
 32 37  1  0  0  0  0
  8 13  1  0  0  0  0
 18 25  1  0  0  0  0
 21 26  1  0  0  0  0
 41 43  1  0  0  0  0
  7 12  1  0  0  0  0
 31 36  1  0  0  0  0
 17 24  1  0  0  0  0
 22 27  1  0  0  0  0
M  END
$$$$
