
  -OEChem-02062319133D

 46 45  0     1  0  0  0  0  0999 V2000
   -5.1520    1.4794    1.8925 C   0  0  0  0  0  0  0  0  0  0  0  0
   -5.9421    0.9214    1.1475 O   0  0  0  0  0  0  0  0  0  0  0  0
   -5.6550    2.2631    3.0903 C   0  0  0  0  0  0  0  0  0  0  0  0
   -5.3898    3.3178    2.9835 H   0  0  0  0  0  0  0  0  0  0  0  0
   -6.7428    2.1791    3.1668 H   0  0  0  0  0  0  0  0  0  0  0  0
   -5.2069    1.8731    4.0075 H   0  0  0  0  0  0  0  0  0  0  0  0
   -3.7978    1.3917    1.6502 N   0  0  0  0  0  0  0  0  0  0  0  0
   -3.1948    0.5339    0.6221 C   0  0  2  0  0  0  0  0  0  0  0  0
   -1.7732    0.0881    1.0243 C   0  0  0  0  0  0  0  0  0  0  0  0
   -1.2402    0.5485    2.0263 O   0  0  0  0  0  0  0  0  0  0  0  0
   -3.1639    1.3064   -0.7016 C   0  0  0  0  0  0  0  0  0  0  0  0
   -3.1702    1.7535    2.3685 H   0  0  0  0  0  0  0  0  0  0  0  0
   -3.7988   -0.3719    0.4982 H   0  0  0  0  0  0  0  0  0  0  0  0
   -2.5559    2.2113   -0.6024 H   0  0  0  0  0  0  0  0  0  0  0  0
   -2.7441    0.6882   -1.5008 H   0  0  0  0  0  0  0  0  0  0  0  0
   -4.1777    1.5990   -0.9934 H   0  0  0  0  0  0  0  0  0  0  0  0
   -1.0893   -0.8472    0.2730 N   0  0  0  0  0  0  0  0  0  0  0  0
    0.2690   -1.3395    0.5690 C   0  0  2  0  0  0  0  0  0  0  0  0
    1.3421   -0.2371    0.5761 C   0  0  0  0  0  0  0  0  0  0  0  0
    2.3648   -0.4116    1.2267 O   0  0  0  0  0  0  0  0  0  0  0  0
    0.6627   -2.4143   -0.4635 C   0  0  2  0  0  0  0  0  0  0  0  0
    0.4790   -1.9207   -1.7964 O   0  0  0  0  0  0  0  0  0  0  0  0
   -0.1888   -3.6739   -0.3091 C   0  0  0  0  0  0  0  0  0  0  0  0
   -1.5312   -1.1941   -0.5764 H   0  0  0  0  0  0  0  0  0  0  0  0
    0.2723   -1.7898    1.5671 H   0  0  0  0  0  0  0  0  0  0  0  0
    1.7137   -2.6907   -0.3180 H   0  0  0  0  0  0  0  0  0  0  0  0
    1.3308   -1.5382   -2.1328 H   0  0  0  0  0  0  0  0  0  0  0  0
   -1.2454   -3.4599   -0.4935 H   0  0  0  0  0  0  0  0  0  0  0  0
   -0.0847   -4.0825    0.7004 H   0  0  0  0  0  0  0  0  0  0  0  0
    0.1397   -4.4346   -1.0237 H   0  0  0  0  0  0  0  0  0  0  0  0
    1.3256    0.6933   -0.4522 N   0  0  0  0  0  0  0  0  0  0  0  0
    2.5394    1.2462   -1.0744 C   0  0  2  0  0  0  0  0  0  0  0  0
    3.3930    0.1170   -1.7010 C   0  0  0  0  0  0  0  0  0  0  0  0
    2.8304   -0.7190   -2.4054 O   0  0  0  0  0  0  0  0  0  0  0  0
    3.3099    2.1623   -0.1073 C   0  0  0  0  0  0  0  0  0  0  0  0
    0.5218    0.5802   -1.0641 H   0  0  0  0  0  0  0  0  0  0  0  0
    2.2193    1.8794   -1.9073 H   0  0  0  0  0  0  0  0  0  0  0  0
    3.7830    1.5936    0.6983 H   0  0  0  0  0  0  0  0  0  0  0  0
    4.0904    2.7083   -0.6457 H   0  0  0  0  0  0  0  0  0  0  0  0
    2.6280    2.8909    0.3423 H   0  0  0  0  0  0  0  0  0  0  0  0
    4.7510    0.0032   -1.4693 N   0  0  0  0  0  0  0  0  0  0  0  0
    5.5323   -1.1477   -1.9059 C   0  0  0  0  0  0  0  0  0  0  0  0
    5.1281    0.5868   -0.7276 H   0  0  0  0  0  0  0  0  0  0  0  0
    5.2027   -2.0527   -1.3848 H   0  0  0  0  0  0  0  0  0  0  0  0
    5.4228   -1.3024   -2.9846 H   0  0  0  0  0  0  0  0  0  0  0  0
    6.5930   -0.9877   -1.6893 H   0  0  0  0  0  0  0  0  0  0  0  0
  1  2  2  0  0  0  0
  1  3  1  0  0  0  0
  1  7  1  0  0  0  0
  3  4  1  0  0  0  0
  3  5  1  0  0  0  0
  3  6  1  0  0  0  0
  7  8  1  0  0  0  0
  7 12  1  0  0  0  0
  8  9  1  0  0  0  0
  8 11  1  0  0  0  0
  8 13  1  0  0  0  0
  9 10  2  0  0  0  0
  9 17  1  0  0  0  0
 11 14  1  0  0  0  0
 11 15  1  0  0  0  0
 11 16  1  0  0  0  0
 17 18  1  0  0  0  0
 17 24  1  0  0  0  0
 18 19  1  0  0  0  0
 18 21  1  0  0  0  0
 18 25  1  0  0  0  0
 19 20  2  0  0  0  0
 19 31  1  0  0  0  0
 21 22  1  0  0  0  0
 21 23  1  0  0  0  0
 21 26  1  0  0  0  0
 22 27  1  0  0  0  0
 23 28  1  0  0  0  0
 23 29  1  0  0  0  0
 23 30  1  0  0  0  0
 31 32  1  0  0  0  0
 31 36  1  0  0  0  0
 32 33  1  0  0  0  0
 32 35  1  0  0  0  0
 32 37  1  0  0  0  0
 33 34  2  0  0  0  0
 33 41  1  0  0  0  0
 35 38  1  0  0  0  0
 35 39  1  0  0  0  0
 35 40  1  0  0  0  0
 41 42  1  0  0  0  0
 41 43  1  0  0  0  0
 42 44  1  0  0  0  0
 42 45  1  0  0  0  0
 42 46  1  0  0  0  0
M  END
$$$$

  -OEChem-02062319133D

 46 45  0     1  0  0  0  0  0999 V2000
   -5.1867    1.4844    1.7324 C   0  0  0  0  0  0  0  0  0  0  0  0
   -5.9341    0.9112    0.9556 O   0  0  0  0  0  0  0  0  0  0  0  0
   -5.7541    2.2608    2.9056 C   0  0  0  0  0  0  0  0  0  0  0  0
   -5.5022    3.3196    2.8079 H   0  0  0  0  0  0  0  0  0  0  0  0
   -6.8424    2.1580    2.9347 H   0  0  0  0  0  0  0  0  0  0  0  0
   -5.3396    1.8798    3.8420 H   0  0  0  0  0  0  0  0  0  0  0  0
   -3.8220    1.4233    1.5470 N   0  0  0  0  0  0  0  0  0  0  0  0
   -3.1599    0.5846    0.5396 C   0  0  2  0  0  0  0  0  0  0  0  0
   -1.7431    0.1694    0.9890 C   0  0  0  0  0  0  0  0  0  0  0  0
   -1.2722    0.6130    2.0289 O   0  0  0  0  0  0  0  0  0  0  0  0
   -3.0979    1.3626   -0.7792 C   0  0  0  0  0  0  0  0  0  0  0  0
   -3.2324    1.7942    2.2920 H   0  0  0  0  0  0  0  0  0  0  0  0
   -3.7380   -0.3339    0.3899 H   0  0  0  0  0  0  0  0  0  0  0  0
   -2.5143    2.2803   -0.6548 H   0  0  0  0  0  0  0  0  0  0  0  0
   -2.6347    0.7564   -1.5634 H   0  0  0  0  0  0  0  0  0  0  0  0
   -4.1066    1.6337   -1.1075 H   0  0  0  0  0  0  0  0  0  0  0  0
   -1.0520   -0.8133    0.3071 N   0  0  0  0  0  0  0  0  0  0  0  0
    0.1501   -1.5073    0.8092 C   0  0  2  0  0  0  0  0  0  0  0  0
    1.3395   -0.5753    1.0998 C   0  0  0  0  0  0  0  0  0  0  0  0
    2.1876   -0.9339    1.9079 O   0  0  0  0  0  0  0  0  0  0  0  0
    0.5885   -2.5898   -0.1975 C   0  0  2  0  0  0  0  0  0  0  0  0
    0.7526   -2.0296   -1.5056 O   0  0  0  0  0  0  0  0  0  0  0  0
   -0.4493   -3.7078   -0.2969 C   0  0  0  0  0  0  0  0  0  0  0  0
   -1.4614   -1.1678   -0.5549 H   0  0  0  0  0  0  0  0  0  0  0  0
   -0.0993   -1.9945    1.7574 H   0  0  0  0  0  0  0  0  0  0  0  0
    1.5370   -3.0300    0.1321 H   0  0  0  0  0  0  0  0  0  0  0  0
    1.6934   -1.7427   -1.6362 H   0  0  0  0  0  0  0  0  0  0  0  0
   -1.4061   -3.3266   -0.6644 H   0  0  0  0  0  0  0  0  0  0  0  0
   -0.6085   -4.1678    0.6828 H   0  0  0  0  0  0  0  0  0  0  0  0
   -0.0979   -4.4802   -0.9876 H   0  0  0  0  0  0  0  0  0  0  0  0
    1.6459    0.3986    0.1617 N   0  0  0  0  0  0  0  0  0  0  0  0
    3.0198    0.7924   -0.1880 C   0  0  2  0  0  0  0  0  0  0  0  0
    3.8195   -0.4276   -0.7043 C   0  0  0  0  0  0  0  0  0  0  0  0
    3.3160   -1.1278   -1.5804 O   0  0  0  0  0  0  0  0  0  0  0  0
    3.6991    1.5587    0.9602 C   0  0  0  0  0  0  0  0  0  0  0  0
    0.9571    0.4515   -0.5844 H   0  0  0  0  0  0  0  0  0  0  0  0
    2.9579    1.4894   -1.0292 H   0  0  0  0  0  0  0  0  0  0  0  0
    3.9049    0.9080    1.8145 H   0  0  0  0  0  0  0  0  0  0  0  0
    4.6457    1.9889    0.6196 H   0  0  0  0  0  0  0  0  0  0  0  0
    3.0528    2.3742    1.2990 H   0  0  0  0  0  0  0  0  0  0  0  0
    5.0478   -0.7791   -0.1772 N   0  0  0  0  0  0  0  0  0  0  0  0
    5.7276   -2.0208   -0.5245 C   0  0  0  0  0  0  0  0  0  0  0  0
    5.3137   -0.3092    0.6840 H   0  0  0  0  0  0  0  0  0  0  0  0
    5.1247   -2.8840   -0.2236 H   0  0  0  0  0  0  0  0  0  0  0  0
    5.9050   -2.0731   -1.6039 H   0  0  0  0  0  0  0  0  0  0  0  0
    6.6943   -2.0772   -0.0150 H   0  0  0  0  0  0  0  0  0  0  0  0
  1  2  2  0  0  0  0
  1  3  1  0  0  0  0
  1  7  1  0  0  0  0
  3  4  1  0  0  0  0
  3  5  1  0  0  0  0
  3  6  1  0  0  0  0
  7  8  1  0  0  0  0
  7 12  1  0  0  0  0
  8  9  1  0  0  0  0
  8 11  1  0  0  0  0
  8 13  1  0  0  0  0
  9 10  2  0  0  0  0
  9 17  1  0  0  0  0
 11 14  1  0  0  0  0
 11 15  1  0  0  0  0
 11 16  1  0  0  0  0
 17 18  1  0  0  0  0
 17 24  1  0  0  0  0
 18 19  1  0  0  0  0
 18 21  1  0  0  0  0
 18 25  1  0  0  0  0
 19 20  2  0  0  0  0
 19 31  1  0  0  0  0
 21 22  1  0  0  0  0
 21 23  1  0  0  0  0
 21 26  1  0  0  0  0
 22 27  1  0  0  0  0
 23 28  1  0  0  0  0
 23 29  1  0  0  0  0
 23 30  1  0  0  0  0
 31 32  1  0  0  0  0
 31 36  1  0  0  0  0
 32 33  1  0  0  0  0
 32 35  1  0  0  0  0
 32 37  1  0  0  0  0
 33 34  2  0  0  0  0
 33 41  1  0  0  0  0
 35 38  1  0  0  0  0
 35 39  1  0  0  0  0
 35 40  1  0  0  0  0
 41 42  1  0  0  0  0
 41 43  1  0  0  0  0
 42 44  1  0  0  0  0
 42 45  1  0  0  0  0
 42 46  1  0  0  0  0
M  END
$$$$

  -OEChem-02062319133D

 46 45  0     1  0  0  0  0  0999 V2000
   -5.1773    1.5278    1.5968 C   0  0  0  0  0  0  0  0  0  0  0  0
   -5.9053    0.9310    0.8193 O   0  0  0  0  0  0  0  0  0  0  0  0
   -5.7712    2.3005    2.7595 C   0  0  0  0  0  0  0  0  0  0  0  0
   -5.5030    3.3568    2.6806 H   0  0  0  0  0  0  0  0  0  0  0  0
   -6.8613    2.2125    2.7543 H   0  0  0  0  0  0  0  0  0  0  0  0
   -5.3907    1.9044    3.7042 H   0  0  0  0  0  0  0  0  0  0  0  0
   -3.8097    1.4910    1.4269 N   0  0  0  0  0  0  0  0  0  0  0  0
   -3.1218    0.6354    0.4515 C   0  0  2  0  0  0  0  0  0  0  0  0
   -1.7130    0.2362    0.9399 C   0  0  0  0  0  0  0  0  0  0  0  0
   -1.2914    0.6731    2.0035 O   0  0  0  0  0  0  0  0  0  0  0  0
   -3.0365    1.3836   -0.8825 C   0  0  0  0  0  0  0  0  0  0  0  0
   -3.2381    1.8715    2.1812 H   0  0  0  0  0  0  0  0  0  0  0  0
   -3.6920   -0.2892    0.3093 H   0  0  0  0  0  0  0  0  0  0  0  0
   -2.4591    2.3064   -0.7678 H   0  0  0  0  0  0  0  0  0  0  0  0
   -2.5554    0.7618   -1.6433 H   0  0  0  0  0  0  0  0  0  0  0  0
   -4.0395    1.6428   -1.2364 H   0  0  0  0  0  0  0  0  0  0  0  0
   -1.0343   -0.7982    0.3243 N   0  0  0  0  0  0  0  0  0  0  0  0
   -0.0549   -1.6760    0.9976 C   0  0  2  0  0  0  0  0  0  0  0  0
    1.1651   -0.9432    1.5833 C   0  0  0  0  0  0  0  0  0  0  0  0
    1.7747   -1.4605    2.5120 O   0  0  0  0  0  0  0  0  0  0  0  0
    0.4332   -2.7692    0.0246 C   0  0  2  0  0  0  0  0  0  0  0  0
    0.9294   -2.1912   -1.1878 O   0  0  0  0  0  0  0  0  0  0  0  0
   -0.6981   -3.7272   -0.3483 C   0  0  0  0  0  0  0  0  0  0  0  0
   -1.4220   -1.1446   -0.5501 H   0  0  0  0  0  0  0  0  0  0  0  0
   -0.5518   -2.1626    1.8431 H   0  0  0  0  0  0  0  0  0  0  0  0
    1.2305   -3.3505    0.5025 H   0  0  0  0  0  0  0  0  0  0  0  0
    1.9044   -2.0250   -1.1108 H   0  0  0  0  0  0  0  0  0  0  0  0
   -1.4960   -3.2053   -0.8840 H   0  0  0  0  0  0  0  0  0  0  0  0
   -1.1204   -4.1875    0.5500 H   0  0  0  0  0  0  0  0  0  0  0  0
   -0.3128   -4.5224   -0.9938 H   0  0  0  0  0  0  0  0  0  0  0  0
    1.7828    0.0192    0.8003 N   0  0  0  0  0  0  0  0  0  0  0  0
    3.2395    0.2180    0.7479 C   0  0  2  0  0  0  0  0  0  0  0  0
    3.9515   -1.0862    0.3151 C   0  0  0  0  0  0  0  0  0  0  0  0
    3.5495   -1.6656   -0.6919 O   0  0  0  0  0  0  0  0  0  0  0  0
    3.7725    0.8281    2.0560 C   0  0  0  0  0  0  0  0  0  0  0  0
    1.2652    0.2217   -0.0514 H   0  0  0  0  0  0  0  0  0  0  0  0
    3.4437    0.9489   -0.0405 H   0  0  0  0  0  0  0  0  0  0  0  0
    3.7068    0.1210    2.8877 H   0  0  0  0  0  0  0  0  0  0  0  0
    4.8194    1.1233    1.9367 H   0  0  0  0  0  0  0  0  0  0  0  0
    3.1918    1.7183    2.3170 H   0  0  0  0  0  0  0  0  0  0  0  0
    4.9770   -1.6451    1.0546 N   0  0  0  0  0  0  0  0  0  0  0  0
    5.5175   -2.9698    0.7752 C   0  0  0  0  0  0  0  0  0  0  0  0
    5.1171   -1.2557    1.9830 H   0  0  0  0  0  0  0  0  0  0  0  0
    4.7448   -3.7341    0.9101 H   0  0  0  0  0  0  0  0  0  0  0  0
    5.8922   -3.0241   -0.2524 H   0  0  0  0  0  0  0  0  0  0  0  0
    6.3469   -3.1904    1.4541 H   0  0  0  0  0  0  0  0  0  0  0  0
  1  2  2  0  0  0  0
  1  3  1  0  0  0  0
  1  7  1  0  0  0  0
  3  4  1  0  0  0  0
  3  5  1  0  0  0  0
  3  6  1  0  0  0  0
  7  8  1  0  0  0  0
  7 12  1  0  0  0  0
  8  9  1  0  0  0  0
  8 11  1  0  0  0  0
  8 13  1  0  0  0  0
  9 10  2  0  0  0  0
  9 17  1  0  0  0  0
 11 14  1  0  0  0  0
 11 15  1  0  0  0  0
 11 16  1  0  0  0  0
 17 18  1  0  0  0  0
 17 24  1  0  0  0  0
 18 19  1  0  0  0  0
 18 21  1  0  0  0  0
 18 25  1  0  0  0  0
 19 20  2  0  0  0  0
 19 31  1  0  0  0  0
 21 22  1  0  0  0  0
 21 23  1  0  0  0  0
 21 26  1  0  0  0  0
 22 27  1  0  0  0  0
 23 28  1  0  0  0  0
 23 29  1  0  0  0  0
 23 30  1  0  0  0  0
 31 32  1  0  0  0  0
 31 36  1  0  0  0  0
 32 33  1  0  0  0  0
 32 35  1  0  0  0  0
 32 37  1  0  0  0  0
 33 34  2  0  0  0  0
 33 41  1  0  0  0  0
 35 38  1  0  0  0  0
 35 39  1  0  0  0  0
 35 40  1  0  0  0  0
 41 42  1  0  0  0  0
 41 43  1  0  0  0  0
 42 44  1  0  0  0  0
 42 45  1  0  0  0  0
 42 46  1  0  0  0  0
M  END
$$$$

  -OEChem-02062319133D

 46 45  0     1  0  0  0  0  0999 V2000
   -5.1480    1.5336    1.4578 C   0  0  0  0  0  0  0  0  0  0  0  0
   -5.8401    0.9243    0.6575 O   0  0  0  0  0  0  0  0  0  0  0  0
   -5.7915    2.2698    2.6175 C   0  0  0  0  0  0  0  0  0  0  0  0
   -5.5542    3.3348    2.5600 H   0  0  0  0  0  0  0  0  0  0  0  0
   -6.8778    2.1482    2.5845 H   0  0  0  0  0  0  0  0  0  0  0  0
   -5.4211    1.8714    3.5653 H   0  0  0  0  0  0  0  0  0  0  0  0
   -3.7768    1.5438    1.3151 N   0  0  0  0  0  0  0  0  0  0  0  0
   -3.0442    0.7223    0.3427 C   0  0  2  0  0  0  0  0  0  0  0  0
   -1.6462    0.3245    0.8621 C   0  0  0  0  0  0  0  0  0  0  0  0
   -1.2490    0.7811    1.9265 O   0  0  0  0  0  0  0  0  0  0  0  0
   -2.9231    1.5071   -0.9668 C   0  0  0  0  0  0  0  0  0  0  0  0
   -3.2321    1.9342    2.0840 H   0  0  0  0  0  0  0  0  0  0  0  0
   -3.5983   -0.2045    0.1565 H   0  0  0  0  0  0  0  0  0  0  0  0
   -2.3696    2.4378   -0.8057 H   0  0  0  0  0  0  0  0  0  0  0  0
   -2.3997    0.9155   -1.7239 H   0  0  0  0  0  0  0  0  0  0  0  0
   -3.9173    1.7559   -1.3518 H   0  0  0  0  0  0  0  0  0  0  0  0
   -1.0192   -0.7890    0.3356 N   0  0  0  0  0  0  0  0  0  0  0  0
   -0.3267   -1.8090    1.1520 C   0  0  2  0  0  0  0  0  0  0  0  0
    0.8502   -1.2836    1.9937 C   0  0  0  0  0  0  0  0  0  0  0  0
    1.1804   -1.9049    2.9971 O   0  0  0  0  0  0  0  0  0  0  0  0
    0.1669   -2.9642    0.2562 C   0  0  2  0  0  0  0  0  0  0  0  0
    0.9708   -2.4746   -0.8221 O   0  0  0  0  0  0  0  0  0  0  0  0
   -1.0060   -3.7316   -0.3544 C   0  0  0  0  0  0  0  0  0  0  0  0
   -1.3837   -1.1206   -0.5540 H   0  0  0  0  0  0  0  0  0  0  0  0
   -1.0465   -2.2164    1.8694 H   0  0  0  0  0  0  0  0  0  0  0  0
    0.7568   -3.6636    0.8601 H   0  0  0  0  0  0  0  0  0  0  0  0
    1.9243   -2.4427   -0.5502 H   0  0  0  0  0  0  0  0  0  0  0  0
   -1.5901   -3.0926   -1.0224 H   0  0  0  0  0  0  0  0  0  0  0  0
   -1.6643   -4.1133    0.4317 H   0  0  0  0  0  0  0  0  0  0  0  0
   -0.6318   -4.5820   -0.9323 H   0  0  0  0  0  0  0  0  0  0  0  0
    1.7474   -0.4200    1.3865 N   0  0  0  0  0  0  0  0  0  0  0  0
    3.2002   -0.4524    1.6144 C   0  0  2  0  0  0  0  0  0  0  0  0
    3.7785   -1.8442    1.2635 C   0  0  0  0  0  0  0  0  0  0  0  0
    3.4912   -2.3400    0.1762 O   0  0  0  0  0  0  0  0  0  0  0  0
    3.5601    0.0457    3.0243 C   0  0  0  0  0  0  0  0  0  0  0  0
    1.4345   -0.1102    0.4697 H   0  0  0  0  0  0  0  0  0  0  0  0
    3.6581    0.2499    0.9114 H   0  0  0  0  0  0  0  0  0  0  0  0
    3.2195   -0.6494    3.7970 H   0  0  0  0  0  0  0  0  0  0  0  0
    4.6440    0.1622    3.1189 H   0  0  0  0  0  0  0  0  0  0  0  0
    3.0922    1.0181    3.2075 H   0  0  0  0  0  0  0  0  0  0  0  0
    4.5612   -2.5623    2.1483 N   0  0  0  0  0  0  0  0  0  0  0  0
    4.9604   -3.9430    1.9047 C   0  0  0  0  0  0  0  0  0  0  0  0
    4.5903   -2.2136    3.1026 H   0  0  0  0  0  0  0  0  0  0  0  0
    4.0788   -4.5858    1.8118 H   0  0  0  0  0  0  0  0  0  0  0  0
    5.5489   -4.0157    0.9841 H   0  0  0  0  0  0  0  0  0  0  0  0
    5.5724   -4.3118    2.7334 H   0  0  0  0  0  0  0  0  0  0  0  0
  1  2  2  0  0  0  0
  1  3  1  0  0  0  0
  1  7  1  0  0  0  0
  3  4  1  0  0  0  0
  3  5  1  0  0  0  0
  3  6  1  0  0  0  0
  7  8  1  0  0  0  0
  7 12  1  0  0  0  0
  8  9  1  0  0  0  0
  8 11  1  0  0  0  0
  8 13  1  0  0  0  0
  9 10  2  0  0  0  0
  9 17  1  0  0  0  0
 11 14  1  0  0  0  0
 11 15  1  0  0  0  0
 11 16  1  0  0  0  0
 17 18  1  0  0  0  0
 17 24  1  0  0  0  0
 18 19  1  0  0  0  0
 18 21  1  0  0  0  0
 18 25  1  0  0  0  0
 19 20  2  0  0  0  0
 19 31  1  0  0  0  0
 21 22  1  0  0  0  0
 21 23  1  0  0  0  0
 21 26  1  0  0  0  0
 22 27  1  0  0  0  0
 23 28  1  0  0  0  0
 23 29  1  0  0  0  0
 23 30  1  0  0  0  0
 31 32  1  0  0  0  0
 31 36  1  0  0  0  0
 32 33  1  0  0  0  0
 32 35  1  0  0  0  0
 32 37  1  0  0  0  0
 33 34  2  0  0  0  0
 33 41  1  0  0  0  0
 35 38  1  0  0  0  0
 35 39  1  0  0  0  0
 35 40  1  0  0  0  0
 41 42  1  0  0  0  0
 41 43  1  0  0  0  0
 42 44  1  0  0  0  0
 42 45  1  0  0  0  0
 42 46  1  0  0  0  0
M  END
$$$$

  -OEChem-02062319133D

 46 45  0     1  0  0  0  0  0999 V2000
   -5.0728    1.6213    1.3982 C   0  0  0  0  0  0  0  0  0  0  0  0
   -5.7822    1.0218    0.6056 O   0  0  0  0  0  0  0  0  0  0  0  0
   -5.6955    2.3981    2.5430 C   0  0  0  0  0  0  0  0  0  0  0  0
   -5.4388    3.4568    2.4581 H   0  0  0  0  0  0  0  0  0  0  0  0
   -6.7842    2.2959    2.5197 H   0  0  0  0  0  0  0  0  0  0  0  0
   -5.3267    2.0163    3.4981 H   0  0  0  0  0  0  0  0  0  0  0  0
   -3.7016    1.5830    1.2602 N   0  0  0  0  0  0  0  0  0  0  0  0
   -2.9947    0.7203    0.3045 C   0  0  2  0  0  0  0  0  0  0  0  0
   -1.5972    0.3122    0.8182 C   0  0  0  0  0  0  0  0  0  0  0  0
   -1.2080    0.7541    1.8916 O   0  0  0  0  0  0  0  0  0  0  0  0
   -2.8748    1.4620   -1.0301 C   0  0  0  0  0  0  0  0  0  0  0  0
   -3.1467    1.9646    2.0262 H   0  0  0  0  0  0  0  0  0  0  0  0
   -3.5681   -0.2009    0.1535 H   0  0  0  0  0  0  0  0  0  0  0  0
   -2.3022    2.3867   -0.9041 H   0  0  0  0  0  0  0  0  0  0  0  0
   -2.3715    0.8375   -1.7743 H   0  0  0  0  0  0  0  0  0  0  0  0
   -3.8684    1.7176   -1.4123 H   0  0  0  0  0  0  0  0  0  0  0  0
   -1.0006   -0.8280    0.3131 N   0  0  0  0  0  0  0  0  0  0  0  0
   -0.6111   -1.9728    1.1659 C   0  0  2  0  0  0  0  0  0  0  0  0
    0.4131   -1.6555    2.2704 C   0  0  0  0  0  0  0  0  0  0  0  0
    0.4454   -2.3718    3.2645 O   0  0  0  0  0  0  0  0  0  0  0  0
   -0.0729   -3.1321    0.3002 C   0  0  2  0  0  0  0  0  0  0  0  0
    0.9983   -2.6983   -0.5439 O   0  0  0  0  0  0  0  0  0  0  0  0
   -1.1669   -3.7036   -0.6019 C   0  0  0  0  0  0  0  0  0  0  0  0
   -1.3123   -1.0914   -0.6181 H   0  0  0  0  0  0  0  0  0  0  0  0
   -1.5068   -2.3261    1.6867 H   0  0  0  0  0  0  0  0  0  0  0  0
    0.2846   -3.9355    0.9546 H   0  0  0  0  0  0  0  0  0  0  0  0
    1.8668   -2.7983   -0.0760 H   0  0  0  0  0  0  0  0  0  0  0  0
   -1.5103   -2.9588   -1.3253 H   0  0  0  0  0  0  0  0  0  0  0  0
   -2.0215   -4.0348   -0.0043 H   0  0  0  0  0  0  0  0  0  0  0  0
   -0.7787   -4.5650   -1.1539 H   0  0  0  0  0  0  0  0  0  0  0  0
    1.5109   -0.8797    1.9372 N   0  0  0  0  0  0  0  0  0  0  0  0
    2.8683   -1.1167    2.4491 C   0  0  2  0  0  0  0  0  0  0  0  0
    3.3273   -2.5585    2.1253 C   0  0  0  0  0  0  0  0  0  0  0  0
    3.2500   -2.9498    0.9627 O   0  0  0  0  0  0  0  0  0  0  0  0
    2.9791   -0.7347    3.9346 C   0  0  0  0  0  0  0  0  0  0  0  0
    1.4318   -0.4568    1.0151 H   0  0  0  0  0  0  0  0  0  0  0  0
    3.5477   -0.4532    1.9052 H   0  0  0  0  0  0  0  0  0  0  0  0
    2.3937   -1.4066    4.5684 H   0  0  0  0  0  0  0  0  0  0  0  0
    4.0234   -0.7769    4.2587 H   0  0  0  0  0  0  0  0  0  0  0  0
    2.6120    0.2851    4.0859 H   0  0  0  0  0  0  0  0  0  0  0  0
    3.7412   -3.4360    3.1099 N   0  0  0  0  0  0  0  0  0  0  0  0
    3.9678   -4.8530    2.8549 C   0  0  0  0  0  0  0  0  0  0  0  0
    3.5555   -3.1454    4.0662 H   0  0  0  0  0  0  0  0  0  0  0  0
    3.0374   -5.3391    2.5424 H   0  0  0  0  0  0  0  0  0  0  0  0
    4.7175   -4.9877    2.0681 H   0  0  0  0  0  0  0  0  0  0  0  0
    4.3307   -5.3458    3.7619 H   0  0  0  0  0  0  0  0  0  0  0  0
  1  2  2  0  0  0  0
  1  3  1  0  0  0  0
  1  7  1  0  0  0  0
  3  4  1  0  0  0  0
  3  5  1  0  0  0  0
  3  6  1  0  0  0  0
  7  8  1  0  0  0  0
  7 12  1  0  0  0  0
  8  9  1  0  0  0  0
  8 11  1  0  0  0  0
  8 13  1  0  0  0  0
  9 10  2  0  0  0  0
  9 17  1  0  0  0  0
 11 14  1  0  0  0  0
 11 15  1  0  0  0  0
 11 16  1  0  0  0  0
 17 18  1  0  0  0  0
 17 24  1  0  0  0  0
 18 19  1  0  0  0  0
 18 21  1  0  0  0  0
 18 25  1  0  0  0  0
 19 20  2  0  0  0  0
 19 31  1  0  0  0  0
 21 22  1  0  0  0  0
 21 23  1  0  0  0  0
 21 26  1  0  0  0  0
 22 27  1  0  0  0  0
 23 28  1  0  0  0  0
 23 29  1  0  0  0  0
 23 30  1  0  0  0  0
 31 32  1  0  0  0  0
 31 36  1  0  0  0  0
 32 33  1  0  0  0  0
 32 35  1  0  0  0  0
 32 37  1  0  0  0  0
 33 34  2  0  0  0  0
 33 41  1  0  0  0  0
 35 38  1  0  0  0  0
 35 39  1  0  0  0  0
 35 40  1  0  0  0  0
 41 42  1  0  0  0  0
 41 43  1  0  0  0  0
 42 44  1  0  0  0  0
 42 45  1  0  0  0  0
 42 46  1  0  0  0  0
M  END
$$$$

  -OEChem-02062319133D

 46 45  0     1  0  0  0  0  0999 V2000
   -4.9702    1.6782    1.3766 C   0  0  0  0  0  0  0  0  0  0  0  0
   -5.7031    1.0985    0.5906 O   0  0  0  0  0  0  0  0  0  0  0  0
   -5.5581    2.4398    2.5497 C   0  0  0  0  0  0  0  0  0  0  0  0
   -5.2181    3.4781    2.5293 H   0  0  0  0  0  0  0  0  0  0  0  0
   -6.6505    2.4259    2.4992 H   0  0  0  0  0  0  0  0  0  0  0  0
   -5.2428    1.9787    3.4891 H   0  0  0  0  0  0  0  0  0  0  0  0
   -3.6029    1.6249    1.2096 N   0  0  0  0  0  0  0  0  0  0  0  0
   -2.9259    0.7601    0.2345 C   0  0  2  0  0  0  0  0  0  0  0  0
   -1.5369    0.3076    0.7352 C   0  0  0  0  0  0  0  0  0  0  0  0
   -1.1240    0.7399    1.8034 O   0  0  0  0  0  0  0  0  0  0  0  0
   -2.7950    1.5208   -1.0883 C   0  0  0  0  0  0  0  0  0  0  0  0
   -3.0289    1.9854    1.9719 H   0  0  0  0  0  0  0  0  0  0  0  0
   -3.5239   -0.1433    0.0707 H   0  0  0  0  0  0  0  0  0  0  0  0
   -2.1974    2.4278   -0.9512 H   0  0  0  0  0  0  0  0  0  0  0  0
   -2.3135    0.8964   -1.8469 H   0  0  0  0  0  0  0  0  0  0  0  0
   -3.7842    1.8090   -1.4583 H   0  0  0  0  0  0  0  0  0  0  0  0
   -0.9967   -0.8690    0.2524 N   0  0  0  0  0  0  0  0  0  0  0  0
   -0.9522   -2.0948    1.0813 C   0  0  2  0  0  0  0  0  0  0  0  0
   -0.1532   -1.9800    2.3925 C   0  0  0  0  0  0  0  0  0  0  0  0
   -0.4401   -2.7257    3.3217 O   0  0  0  0  0  0  0  0  0  0  0  0
   -0.4048   -3.2859    0.2648 C   0  0  2  0  0  0  0  0  0  0  0  0
    0.8832   -2.9962   -0.2871 O   0  0  0  0  0  0  0  0  0  0  0  0
   -1.3360   -3.6371   -0.8962 C   0  0  0  0  0  0  0  0  0  0  0  0
   -1.2295   -1.0550   -0.7191 H   0  0  0  0  0  0  0  0  0  0  0  0
   -1.9766   -2.3371    1.3822 H   0  0  0  0  0  0  0  0  0  0  0  0
   -0.3270   -4.1633    0.9173 H   0  0  0  0  0  0  0  0  0  0  0  0
    1.5970   -3.2377    0.3574 H   0  0  0  0  0  0  0  0  0  0  0  0
   -1.3905   -2.8184   -1.6189 H   0  0  0  0  0  0  0  0  0  0  0  0
   -2.3439   -3.8507   -0.5278 H   0  0  0  0  0  0  0  0  0  0  0  0
   -0.9632   -4.5263   -1.4137 H   0  0  0  0  0  0  0  0  0  0  0  0
    1.0839   -1.3596    2.3546 N   0  0  0  0  0  0  0  0  0  0  0  0
    2.2516   -1.7971    3.1332 C   0  0  2  0  0  0  0  0  0  0  0  0
    2.5864   -3.2779    2.8325 C   0  0  0  0  0  0  0  0  0  0  0  0
    2.6828   -3.6333    1.6598 O   0  0  0  0  0  0  0  0  0  0  0  0
    2.0725   -1.4804    4.6277 C   0  0  0  0  0  0  0  0  0  0  0  0
    1.2617   -0.8762    1.4765 H   0  0  0  0  0  0  0  0  0  0  0  0
    3.1137   -1.2161    2.7917 H   0  0  0  0  0  0  0  0  0  0  0  0
    1.2835   -2.0902    5.0765 H   0  0  0  0  0  0  0  0  0  0  0  0
    3.0045   -1.6688    5.1691 H   0  0  0  0  0  0  0  0  0  0  0  0
    1.8058   -0.4269    4.7573 H   0  0  0  0  0  0  0  0  0  0  0  0
    2.7165   -4.2179    3.8380 N   0  0  0  0  0  0  0  0  0  0  0  0
    2.8328   -5.6459    3.5715 C   0  0  0  0  0  0  0  0  0  0  0  0
    2.4101   -3.9252    4.7619 H   0  0  0  0  0  0  0  0  0  0  0  0
    1.9370   -6.0139    3.0604 H   0  0  0  0  0  0  0  0  0  0  0  0
    3.7063   -5.8501    2.9435 H   0  0  0  0  0  0  0  0  0  0  0  0
    2.9487   -6.1968    4.5098 H   0  0  0  0  0  0  0  0  0  0  0  0
  1  2  2  0  0  0  0
  1  3  1  0  0  0  0
  1  7  1  0  0  0  0
  3  4  1  0  0  0  0
  3  5  1  0  0  0  0
  3  6  1  0  0  0  0
  7  8  1  0  0  0  0
  7 12  1  0  0  0  0
  8  9  1  0  0  0  0
  8 11  1  0  0  0  0
  8 13  1  0  0  0  0
  9 10  2  0  0  0  0
  9 17  1  0  0  0  0
 11 14  1  0  0  0  0
 11 15  1  0  0  0  0
 11 16  1  0  0  0  0
 17 18  1  0  0  0  0
 17 24  1  0  0  0  0
 18 19  1  0  0  0  0
 18 21  1  0  0  0  0
 18 25  1  0  0  0  0
 19 20  2  0  0  0  0
 19 31  1  0  0  0  0
 21 22  1  0  0  0  0
 21 23  1  0  0  0  0
 21 26  1  0  0  0  0
 22 27  1  0  0  0  0
 23 28  1  0  0  0  0
 23 29  1  0  0  0  0
 23 30  1  0  0  0  0
 31 32  1  0  0  0  0
 31 36  1  0  0  0  0
 32 33  1  0  0  0  0
 32 35  1  0  0  0  0
 32 37  1  0  0  0  0
 33 34  2  0  0  0  0
 33 41  1  0  0  0  0
 35 38  1  0  0  0  0
 35 39  1  0  0  0  0
 35 40  1  0  0  0  0
 41 42  1  0  0  0  0
 41 43  1  0  0  0  0
 42 44  1  0  0  0  0
 42 45  1  0  0  0  0
 42 46  1  0  0  0  0
M  END
$$$$

  -OEChem-02062319133D

 46 45  0     1  0  0  0  0  0999 V2000
   -4.7102    1.5993    1.8414 C   0  0  0  0  0  0  0  0  0  0  0  0
   -5.4612    0.6514    1.6782 O   0  0  0  0  0  0  0  0  0  0  0  0
   -5.0273    2.6451    2.8940 C   0  0  0  0  0  0  0  0  0  0  0  0
   -5.0502    3.6387    2.4398 H   0  0  0  0  0  0  0  0  0  0  0  0
   -6.0030    2.4423    3.3448 H   0  0  0  0  0  0  0  0  0  0  0  0
   -4.2663    2.6273    3.6780 H   0  0  0  0  0  0  0  0  0  0  0  0
   -3.5646    1.7203    1.0825 N   0  0  0  0  0  0  0  0  0  0  0  0
   -3.0501    0.6740    0.1872 C   0  0  2  0  0  0  0  0  0  0  0  0
   -1.6590    0.1863    0.6379 C   0  0  0  0  0  0  0  0  0  0  0  0
   -0.8427    0.9728    1.0963 O   0  0  0  0  0  0  0  0  0  0  0  0
   -2.9887    1.2586   -1.2260 C   0  0  0  0  0  0  0  0  0  0  0  0
   -2.9048    2.4402    1.3700 H   0  0  0  0  0  0  0  0  0  0  0  0
   -3.7153   -0.1958    0.1768 H   0  0  0  0  0  0  0  0  0  0  0  0
   -2.3110    2.1177   -1.2574 H   0  0  0  0  0  0  0  0  0  0  0  0
   -2.6302    0.5059   -1.9350 H   0  0  0  0  0  0  0  0  0  0  0  0
   -3.9836    1.5858   -1.5433 H   0  0  0  0  0  0  0  0  0  0  0  0
   -1.0893   -0.9462    0.1155 N   0  0  0  0  0  0  0  0  0  0  0  0
   -1.3541   -2.2335    0.7803 C   0  0  2  0  0  0  0  0  0  0  0  0
   -0.8898   -2.2816    2.2488 C   0  0  0  0  0  0  0  0  0  0  0  0
   -1.4987   -2.9989    3.0300 O   0  0  0  0  0  0  0  0  0  0  0  0
   -0.6398   -3.3662    0.0161 C   0  0  2  0  0  0  0  0  0  0  0  0
    0.7670   -3.1062   -0.0688 O   0  0  0  0  0  0  0  0  0  0  0  0
   -1.1793   -3.5122   -1.4063 C   0  0  0  0  0  0  0  0  0  0  0  0
   -0.0991   -0.8034   -0.0745 H   0  0  0  0  0  0  0  0  0  0  0  0
   -2.4311   -2.4323    0.7712 H   0  0  0  0  0  0  0  0  0  0  0  0
   -0.8016   -4.3140    0.5426 H   0  0  0  0  0  0  0  0  0  0  0  0
    1.2403   -3.5524    0.6806 H   0  0  0  0  0  0  0  0  0  0  0  0
   -0.9925   -2.6069   -1.9917 H   0  0  0  0  0  0  0  0  0  0  0  0
   -2.2565   -3.7027   -1.3883 H   0  0  0  0  0  0  0  0  0  0  0  0
   -0.6878   -4.3530   -1.9052 H   0  0  0  0  0  0  0  0  0  0  0  0
    0.3576   -1.7841    2.5924 N   0  0  0  0  0  0  0  0  0  0  0  0
    1.2141   -2.3735    3.6342 C   0  0  2  0  0  0  0  0  0  0  0  0
    1.5026   -3.8650    3.3335 C   0  0  0  0  0  0  0  0  0  0  0  0
    1.8250   -4.1819    2.1902 O   0  0  0  0  0  0  0  0  0  0  0  0
    0.6495   -2.1105    5.0406 C   0  0  0  0  0  0  0  0  0  0  0  0
    0.8331   -1.3040    1.8320 H   0  0  0  0  0  0  0  0  0  0  0  0
    2.1820   -1.8651    3.5883 H   0  0  0  0  0  0  0  0  0  0  0  0
   -0.2676   -2.6791    5.2188 H   0  0  0  0  0  0  0  0  0  0  0  0
    1.3833   -2.3928    5.8016 H   0  0  0  0  0  0  0  0  0  0  0  0
    0.4232   -1.0465    5.1603 H   0  0  0  0  0  0  0  0  0  0  0  0
    1.3824   -4.8468    4.2995 N   0  0  0  0  0  0  0  0  0  0  0  0
    1.4786   -6.2696    3.9958 C   0  0  0  0  0  0  0  0  0  0  0  0
    0.9342   -4.5693    5.1682 H   0  0  0  0  0  0  0  0  0  0  0  0
    0.6500   -6.5795    3.3504 H   0  0  0  0  0  0  0  0  0  0  0  0
    2.4233   -6.4929    3.4886 H   0  0  0  0  0  0  0  0  0  0  0  0
    1.4388   -6.8563    4.9186 H   0  0  0  0  0  0  0  0  0  0  0  0
  1  2  2  0  0  0  0
  1  3  1  0  0  0  0
  1  7  1  0  0  0  0
  3  4  1  0  0  0  0
  3  5  1  0  0  0  0
  3  6  1  0  0  0  0
  7  8  1  0  0  0  0
  7 12  1  0  0  0  0
  8  9  1  0  0  0  0
  8 11  1  0  0  0  0
  8 13  1  0  0  0  0
  9 10  2  0  0  0  0
  9 17  1  0  0  0  0
 11 14  1  0  0  0  0
 11 15  1  0  0  0  0
 11 16  1  0  0  0  0
 17 18  1  0  0  0  0
 17 24  1  0  0  0  0
 18 19  1  0  0  0  0
 18 21  1  0  0  0  0
 18 25  1  0  0  0  0
 19 20  2  0  0  0  0
 19 31  1  0  0  0  0
 21 22  1  0  0  0  0
 21 23  1  0  0  0  0
 21 26  1  0  0  0  0
 22 27  1  0  0  0  0
 23 28  1  0  0  0  0
 23 29  1  0  0  0  0
 23 30  1  0  0  0  0
 31 32  1  0  0  0  0
 31 36  1  0  0  0  0
 32 33  1  0  0  0  0
 32 35  1  0  0  0  0
 32 37  1  0  0  0  0
 33 34  2  0  0  0  0
 33 41  1  0  0  0  0
 35 38  1  0  0  0  0
 35 39  1  0  0  0  0
 35 40  1  0  0  0  0
 41 42  1  0  0  0  0
 41 43  1  0  0  0  0
 42 44  1  0  0  0  0
 42 45  1  0  0  0  0
 42 46  1  0  0  0  0
M  END
$$$$

  -OEChem-02062319133D

 46 45  0     1  0  0  0  0  0999 V2000
   -4.7406    2.0174    1.6778 C   0  0  0  0  0  0  0  0  0  0  0  0
   -5.6472    1.2560    1.3816 O   0  0  0  0  0  0  0  0  0  0  0  0
   -4.9851    3.1421    2.6661 C   0  0  0  0  0  0  0  0  0  0  0  0
   -4.8259    4.1072    2.1791 H   0  0  0  0  0  0  0  0  0  0  0  0
   -6.0125    3.1004    3.0388 H   0  0  0  0  0  0  0  0  0  0  0  0
   -4.3000    3.0507    3.5126 H   0  0  0  0  0  0  0  0  0  0  0  0
   -3.4874    1.8520    1.1267 N   0  0  0  0  0  0  0  0  0  0  0  0
   -3.0844    0.6983    0.3117 C   0  0  2  0  0  0  0  0  0  0  0  0
   -1.6946    0.1786    0.7325 C   0  0  0  0  0  0  0  0  0  0  0  0
   -0.8726    0.9287    1.2390 O   0  0  0  0  0  0  0  0  0  0  0  0
   -3.0846    1.1291   -1.1572 C   0  0  0  0  0  0  0  0  0  0  0  0
   -2.7387    2.4367    1.4951 H   0  0  0  0  0  0  0  0  0  0  0  0
   -3.7940   -0.1258    0.4419 H   0  0  0  0  0  0  0  0  0  0  0  0
   -2.3670    1.9395   -1.3199 H   0  0  0  0  0  0  0  0  0  0  0  0
   -2.8133    0.2883   -1.8030 H   0  0  0  0  0  0  0  0  0  0  0  0
   -4.0799    1.4799   -1.4476 H   0  0  0  0  0  0  0  0  0  0  0  0
   -1.1453   -0.9593    0.1986 N   0  0  0  0  0  0  0  0  0  0  0  0
   -1.6549   -2.2741    0.6230 C   0  0  2  0  0  0  0  0  0  0  0  0
   -1.5076   -2.5292    2.1343 C   0  0  0  0  0  0  0  0  0  0  0  0
   -2.3435   -3.2235    2.6945 O   0  0  0  0  0  0  0  0  0  0  0  0
   -0.9035   -3.3919   -0.1272 C   0  0  2  0  0  0  0  0  0  0  0  0
    0.5066   -3.2989    0.1106 O   0  0  0  0  0  0  0  0  0  0  0  0
   -1.1324   -3.3086   -1.6361 C   0  0  0  0  0  0  0  0  0  0  0  0
   -0.1286   -0.9064    0.1673 H   0  0  0  0  0  0  0  0  0  0  0  0
   -2.7198   -2.3483    0.3791 H   0  0  0  0  0  0  0  0  0  0  0  0
   -1.2663   -4.3656    0.2226 H   0  0  0  0  0  0  0  0  0  0  0  0
    0.7604   -3.8758    0.8773 H   0  0  0  0  0  0  0  0  0  0  0  0
   -0.7253   -2.3781   -2.0430 H   0  0  0  0  0  0  0  0  0  0  0  0
   -2.2014   -3.3532   -1.8640 H   0  0  0  0  0  0  0  0  0  0  0  0
   -0.6376   -4.1481   -2.1337 H   0  0  0  0  0  0  0  0  0  0  0  0
   -0.3176   -2.2129    2.7708 N   0  0  0  0  0  0  0  0  0  0  0  0
    0.2337   -2.9817    3.8992 C   0  0  2  0  0  0  0  0  0  0  0  0
    0.4781   -4.4580    3.4986 C   0  0  0  0  0  0  0  0  0  0  0  0
    0.9528   -4.6991    2.3903 O   0  0  0  0  0  0  0  0  0  0  0  0
   -0.6139   -2.8080    5.1713 C   0  0  0  0  0  0  0  0  0  0  0  0
    0.3615   -1.7634    2.1603 H   0  0  0  0  0  0  0  0  0  0  0  0
    1.2196   -2.5643    4.1257 H   0  0  0  0  0  0  0  0  0  0  0  0
   -1.5707   -3.3318    5.0912 H   0  0  0  0  0  0  0  0  0  0  0  0
   -0.0783   -3.2019    6.0403 H   0  0  0  0  0  0  0  0  0  0  0  0
   -0.8152   -1.7464    5.3452 H   0  0  0  0  0  0  0  0  0  0  0  0
    0.1925   -5.5078    4.3517 N   0  0  0  0  0  0  0  0  0  0  0  0
    0.3107   -6.9067    3.9579 C   0  0  0  0  0  0  0  0  0  0  0  0
   -0.3328   -5.2826    5.1917 H   0  0  0  0  0  0  0  0  0  0  0  0
   -0.3427   -7.1220    3.1057 H   0  0  0  0  0  0  0  0  0  0  0  0
    1.3434   -7.1417    3.6789 H   0  0  0  0  0  0  0  0  0  0  0  0
    0.0225   -7.5584    4.7885 H   0  0  0  0  0  0  0  0  0  0  0  0
  1  2  2  0  0  0  0
  1  3  1  0  0  0  0
  1  7  1  0  0  0  0
  3  4  1  0  0  0  0
  3  5  1  0  0  0  0
  3  6  1  0  0  0  0
  7  8  1  0  0  0  0
  7 12  1  0  0  0  0
  8  9  1  0  0  0  0
  8 11  1  0  0  0  0
  8 13  1  0  0  0  0
  9 10  2  0  0  0  0
  9 17  1  0  0  0  0
 11 14  1  0  0  0  0
 11 15  1  0  0  0  0
 11 16  1  0  0  0  0
 17 18  1  0  0  0  0
 17 24  1  0  0  0  0
 18 19  1  0  0  0  0
 18 21  1  0  0  0  0
 18 25  1  0  0  0  0
 19 20  2  0  0  0  0
 19 31  1  0  0  0  0
 21 22  1  0  0  0  0
 21 23  1  0  0  0  0
 21 26  1  0  0  0  0
 22 27  1  0  0  0  0
 23 28  1  0  0  0  0
 23 29  1  0  0  0  0
 23 30  1  0  0  0  0
 31 32  1  0  0  0  0
 31 36  1  0  0  0  0
 32 33  1  0  0  0  0
 32 35  1  0  0  0  0
 32 37  1  0  0  0  0
 33 34  2  0  0  0  0
 33 41  1  0  0  0  0
 35 38  1  0  0  0  0
 35 39  1  0  0  0  0
 35 40  1  0  0  0  0
 41 42  1  0  0  0  0
 41 43  1  0  0  0  0
 42 44  1  0  0  0  0
 42 45  1  0  0  0  0
 42 46  1  0  0  0  0
M  END
$$$$

  -OEChem-02062319133D

 46 45  0     1  0  0  0  0  0999 V2000
   -4.7111    1.8967    1.9716 C   0  0  0  0  0  0  0  0  0  0  0  0
   -5.6694    1.2507    1.5789 O   0  0  0  0  0  0  0  0  0  0  0  0
   -4.9088    3.0244    2.9668 C   0  0  0  0  0  0  0  0  0  0  0  0
   -4.5032    3.9551    2.5628 H   0  0  0  0  0  0  0  0  0  0  0  0
   -5.9741    3.1646    3.1709 H   0  0  0  0  0  0  0  0  0  0  0  0
   -4.3983    2.7882    3.9036 H   0  0  0  0  0  0  0  0  0  0  0  0
   -3.4445    1.5980    1.5164 N   0  0  0  0  0  0  0  0  0  0  0  0
   -3.1187    0.4572    0.6508 C   0  0  2  0  0  0  0  0  0  0  0  0
   -1.6700   -0.0269    0.8824 C   0  0  0  0  0  0  0  0  0  0  0  0
   -0.8592    0.6698    1.4754 O   0  0  0  0  0  0  0  0  0  0  0  0
   -3.3304    0.8779   -0.8076 C   0  0  0  0  0  0  0  0  0  0  0  0
   -2.6622    2.1014    1.9330 H   0  0  0  0  0  0  0  0  0  0  0  0
   -3.7852   -0.3801    0.8845 H   0  0  0  0  0  0  0  0  0  0  0  0
   -2.6642    1.7065   -1.0672 H   0  0  0  0  0  0  0  0  0  0  0  0
   -3.1276    0.0415   -1.4829 H   0  0  0  0  0  0  0  0  0  0  0  0
   -4.3648    1.2002   -0.9636 H   0  0  0  0  0  0  0  0  0  0  0  0
   -1.0974   -1.0489    0.1653 N   0  0  0  0  0  0  0  0  0  0  0  0
   -1.6924   -2.3953    0.1890 C   0  0  2  0  0  0  0  0  0  0  0  0
   -1.7497   -3.0005    1.6037 C   0  0  0  0  0  0  0  0  0  0  0  0
   -2.7919   -3.5172    1.9813 O   0  0  0  0  0  0  0  0  0  0  0  0
   -0.8384   -3.3257   -0.6900 C   0  0  2  0  0  0  0  0  0  0  0  0
    0.5424   -3.2029   -0.3220 O   0  0  0  0  0  0  0  0  0  0  0  0
   -0.9716   -2.9737   -2.1714 C   0  0  0  0  0  0  0  0  0  0  0  0
   -0.0810   -1.0350    0.2342 H   0  0  0  0  0  0  0  0  0  0  0  0
   -2.7126   -2.3647   -0.2077 H   0  0  0  0  0  0  0  0  0  0  0  0
   -1.1695   -4.3609   -0.5457 H   0  0  0  0  0  0  0  0  0  0  0  0
    1.0927   -3.8064   -0.8550 H   0  0  0  0  0  0  0  0  0  0  0  0
   -0.6122   -1.9583   -2.3656 H   0  0  0  0  0  0  0  0  0  0  0  0
   -2.0181   -3.0374   -2.4847 H   0  0  0  0  0  0  0  0  0  0  0  0
   -0.3885   -3.6711   -2.7801 H   0  0  0  0  0  0  0  0  0  0  0  0
   -0.6535   -2.9170    2.4453 N   0  0  0  0  0  0  0  0  0  0  0  0
   -0.5772   -3.2998    3.8695 C   0  0  2  0  0  0  0  0  0  0  0  0
   -0.6834   -4.8171    4.1475 C   0  0  0  0  0  0  0  0  0  0  0  0
    0.1314   -5.3529    4.8872 O   0  0  0  0  0  0  0  0  0  0  0  0
   -1.6050   -2.5179    4.6987 C   0  0  0  0  0  0  0  0  0  0  0  0
    0.1933   -2.5562    2.0094 H   0  0  0  0  0  0  0  0  0  0  0  0
    0.4133   -2.9977    4.2253 H   0  0  0  0  0  0  0  0  0  0  0  0
   -2.6259   -2.8372    4.4704 H   0  0  0  0  0  0  0  0  0  0  0  0
   -1.4281   -2.6824    5.7661 H   0  0  0  0  0  0  0  0  0  0  0  0
   -1.5207   -1.4461    4.4949 H   0  0  0  0  0  0  0  0  0  0  0  0
   -1.6881   -5.5810    3.5883 N   0  0  0  0  0  0  0  0  0  0  0  0
   -1.8905   -6.9948    3.8703 C   0  0  0  0  0  0  0  0  0  0  0  0
   -2.3761   -5.0768    3.0235 H   0  0  0  0  0  0  0  0  0  0  0  0
   -0.9794   -7.5633    3.6568 H   0  0  0  0  0  0  0  0  0  0  0  0
   -2.1587   -7.1395    4.9218 H   0  0  0  0  0  0  0  0  0  0  0  0
   -2.6977   -7.3915    3.2473 H   0  0  0  0  0  0  0  0  0  0  0  0
  1  2  2  0  0  0  0
  1  3  1  0  0  0  0
  1  7  1  0  0  0  0
  3  4  1  0  0  0  0
  3  5  1  0  0  0  0
  3  6  1  0  0  0  0
  7  8  1  0  0  0  0
  7 12  1  0  0  0  0
  8  9  1  0  0  0  0
  8 11  1  0  0  0  0
  8 13  1  0  0  0  0
  9 10  2  0  0  0  0
  9 17  1  0  0  0  0
 11 14  1  0  0  0  0
 11 15  1  0  0  0  0
 11 16  1  0  0  0  0
 17 18  1  0  0  0  0
 17 24  1  0  0  0  0
 18 19  1  0  0  0  0
 18 21  1  0  0  0  0
 18 25  1  0  0  0  0
 19 20  2  0  0  0  0
 19 31  1  0  0  0  0
 21 22  1  0  0  0  0
 21 23  1  0  0  0  0
 21 26  1  0  0  0  0
 22 27  1  0  0  0  0
 23 28  1  0  0  0  0
 23 29  1  0  0  0  0
 23 30  1  0  0  0  0
 31 32  1  0  0  0  0
 31 36  1  0  0  0  0
 32 33  1  0  0  0  0
 32 35  1  0  0  0  0
 32 37  1  0  0  0  0
 33 34  2  0  0  0  0
 33 41  1  0  0  0  0
 35 38  1  0  0  0  0
 35 39  1  0  0  0  0
 35 40  1  0  0  0  0
 41 42  1  0  0  0  0
 41 43  1  0  0  0  0
 42 44  1  0  0  0  0
 42 45  1  0  0  0  0
 42 46  1  0  0  0  0
M  END
$$$$

  -OEChem-02062319133D

 46 45  0     1  0  0  0  0  0999 V2000
   -4.6894    1.9709    1.9163 C   0  0  0  0  0  0  0  0  0  0  0  0
   -5.6524    1.3576    1.4853 O   0  0  0  0  0  0  0  0  0  0  0  0
   -4.8832    3.0620    2.9525 C   0  0  0  0  0  0  0  0  0  0  0  0
   -4.5236    4.0167    2.5610 H   0  0  0  0  0  0  0  0  0  0  0  0
   -5.9435    3.1602    3.2021 H   0  0  0  0  0  0  0  0  0  0  0  0
   -4.3287    2.8165    3.8616 H   0  0  0  0  0  0  0  0  0  0  0  0
   -3.4218    1.6701    1.4648 N   0  0  0  0  0  0  0  0  0  0  0  0
   -3.1029    0.5601    0.5578 C   0  0  2  0  0  0  0  0  0  0  0  0
   -1.6702    0.0354    0.8018 C   0  0  0  0  0  0  0  0  0  0  0  0
   -0.8512    0.6978    1.4220 O   0  0  0  0  0  0  0  0  0  0  0  0
   -3.2616    1.0523   -0.8849 C   0  0  0  0  0  0  0  0  0  0  0  0
   -2.6368    2.1406    1.9136 H   0  0  0  0  0  0  0  0  0  0  0  0
   -3.7966   -0.2689    0.7365 H   0  0  0  0  0  0  0  0  0  0  0  0
   -2.5697    1.8762   -1.0860 H   0  0  0  0  0  0  0  0  0  0  0  0
   -3.0563    0.2439   -1.5928 H   0  0  0  0  0  0  0  0  0  0  0  0
   -4.2836    1.4060   -1.0554 H   0  0  0  0  0  0  0  0  0  0  0  0
   -1.1330   -1.0489    0.1499 N   0  0  0  0  0  0  0  0  0  0  0  0
   -1.8862   -2.3005   -0.0360 C   0  0  2  0  0  0  0  0  0  0  0  0
   -2.3077   -2.9488    1.2944 C   0  0  0  0  0  0  0  0  0  0  0  0
   -3.4579   -3.3450    1.4181 O   0  0  0  0  0  0  0  0  0  0  0  0
   -0.9977   -3.3057   -0.7904 C   0  0  2  0  0  0  0  0  0  0  0  0
    0.2921   -3.3733   -0.1672 O   0  0  0  0  0  0  0  0  0  0  0  0
   -0.8022   -2.8926   -2.2484 C   0  0  0  0  0  0  0  0  0  0  0  0
   -0.1347   -1.1564    0.3227 H   0  0  0  0  0  0  0  0  0  0  0  0
   -2.7916   -2.1141   -0.6229 H   0  0  0  0  0  0  0  0  0  0  0  0
   -1.4721   -4.2940   -0.7680 H   0  0  0  0  0  0  0  0  0  0  0  0
    0.8583   -4.0233   -0.6232 H   0  0  0  0  0  0  0  0  0  0  0  0
   -0.2970   -1.9239   -2.3148 H   0  0  0  0  0  0  0  0  0  0  0  0
   -1.7692   -2.8153   -2.7547 H   0  0  0  0  0  0  0  0  0  0  0  0
   -0.1979   -3.6371   -2.7751 H   0  0  0  0  0  0  0  0  0  0  0  0
   -1.4045   -3.0513    2.3386 N   0  0  0  0  0  0  0  0  0  0  0  0
   -1.6564   -3.5597    3.7020 C   0  0  2  0  0  0  0  0  0  0  0  0
   -1.9694   -5.0719    3.7865 C   0  0  0  0  0  0  0  0  0  0  0  0
   -1.3523   -5.7715    4.5788 O   0  0  0  0  0  0  0  0  0  0  0  0
   -2.7440   -2.7324    4.4011 C   0  0  0  0  0  0  0  0  0  0  0  0
   -0.4481   -2.7927    2.1019 H   0  0  0  0  0  0  0  0  0  0  0  0
   -0.7321   -3.4116    4.2698 H   0  0  0  0  0  0  0  0  0  0  0  0
   -3.7261   -2.9049    3.9512 H   0  0  0  0  0  0  0  0  0  0  0  0
   -2.8012   -3.0075    5.4589 H   0  0  0  0  0  0  0  0  0  0  0  0
   -2.5117   -1.6652    4.3334 H   0  0  0  0  0  0  0  0  0  0  0  0
   -2.9318   -5.6533    2.9850 N   0  0  0  0  0  0  0  0  0  0  0  0
   -3.2936   -7.0630    3.0345 C   0  0  0  0  0  0  0  0  0  0  0  0
   -3.4419   -5.0228    2.3611 H   0  0  0  0  0  0  0  0  0  0  0  0
   -2.4224   -7.6894    2.8162 H   0  0  0  0  0  0  0  0  0  0  0  0
   -3.6773   -7.3248    4.0262 H   0  0  0  0  0  0  0  0  0  0  0  0
   -4.0695   -7.2798    2.2942 H   0  0  0  0  0  0  0  0  0  0  0  0
  1  2  2  0  0  0  0
  1  3  1  0  0  0  0
  1  7  1  0  0  0  0
  3  4  1  0  0  0  0
  3  5  1  0  0  0  0
  3  6  1  0  0  0  0
  7  8  1  0  0  0  0
  7 12  1  0  0  0  0
  8  9  1  0  0  0  0
  8 11  1  0  0  0  0
  8 13  1  0  0  0  0
  9 10  2  0  0  0  0
  9 17  1  0  0  0  0
 11 14  1  0  0  0  0
 11 15  1  0  0  0  0
 11 16  1  0  0  0  0
 17 18  1  0  0  0  0
 17 24  1  0  0  0  0
 18 19  1  0  0  0  0
 18 21  1  0  0  0  0
 18 25  1  0  0  0  0
 19 20  2  0  0  0  0
 19 31  1  0  0  0  0
 21 22  1  0  0  0  0
 21 23  1  0  0  0  0
 21 26  1  0  0  0  0
 22 27  1  0  0  0  0
 23 28  1  0  0  0  0
 23 29  1  0  0  0  0
 23 30  1  0  0  0  0
 31 32  1  0  0  0  0
 31 36  1  0  0  0  0
 32 33  1  0  0  0  0
 32 35  1  0  0  0  0
 32 37  1  0  0  0  0
 33 34  2  0  0  0  0
 33 41  1  0  0  0  0
 35 38  1  0  0  0  0
 35 39  1  0  0  0  0
 35 40  1  0  0  0  0
 41 42  1  0  0  0  0
 41 43  1  0  0  0  0
 42 44  1  0  0  0  0
 42 45  1  0  0  0  0
 42 46  1  0  0  0  0
M  END
$$$$

  -OEChem-02062319133D

 46 45  0     1  0  0  0  0  0999 V2000
   -4.6723    1.9359    1.9284 C   0  0  0  0  0  0  0  0  0  0  0  0
   -5.6354    1.3559    1.4540 O   0  0  0  0  0  0  0  0  0  0  0  0
   -4.8626    2.9241    3.0638 C   0  0  0  0  0  0  0  0  0  0  0  0
   -4.4137    3.8856    2.8029 H   0  0  0  0  0  0  0  0  0  0  0  0
   -5.9285    3.0746    3.2571 H   0  0  0  0  0  0  0  0  0  0  0  0
   -4.3892    2.5434    3.9724 H   0  0  0  0  0  0  0  0  0  0  0  0
   -3.4068    1.6857    1.4422 N   0  0  0  0  0  0  0  0  0  0  0  0
   -3.0844    0.6481    0.4539 C   0  0  2  0  0  0  0  0  0  0  0  0
   -1.6664    0.0812    0.6944 C   0  0  0  0  0  0  0  0  0  0  0  0
   -0.8506    0.6892    1.3721 O   0  0  0  0  0  0  0  0  0  0  0  0
   -3.1919    1.2635   -0.9447 C   0  0  0  0  0  0  0  0  0  0  0  0
   -2.6224    2.1155    1.9313 H   0  0  0  0  0  0  0  0  0  0  0  0
   -3.7993   -0.1771    0.5413 H   0  0  0  0  0  0  0  0  0  0  0  0
   -2.4906    2.0972   -1.0507 H   0  0  0  0  0  0  0  0  0  0  0  0
   -2.9654    0.5183   -1.7128 H   0  0  0  0  0  0  0  0  0  0  0  0
   -4.2064    1.6371   -1.1171 H   0  0  0  0  0  0  0  0  0  0  0  0
   -1.1598   -1.0425    0.0843 N   0  0  0  0  0  0  0  0  0  0  0  0
   -1.9812   -2.1845   -0.3514 C   0  0  2  0  0  0  0  0  0  0  0  0
   -2.7430   -2.8438    0.8101 C   0  0  0  0  0  0  0  0  0  0  0  0
   -3.9296   -3.1015    0.6672 O   0  0  0  0  0  0  0  0  0  0  0  0
   -1.0615   -3.2461   -0.9809 C   0  0  2  0  0  0  0  0  0  0  0  0
    0.0513   -3.4979   -0.1122 O   0  0  0  0  0  0  0  0  0  0  0  0
   -0.5165   -2.7825   -2.3311 C   0  0  0  0  0  0  0  0  0  0  0  0
   -0.1967   -1.2479    0.3470 H   0  0  0  0  0  0  0  0  0  0  0  0
   -2.7154   -1.8603   -1.0959 H   0  0  0  0  0  0  0  0  0  0  0  0
   -1.6299   -4.1714   -1.1317 H   0  0  0  0  0  0  0  0  0  0  0  0
    0.6217   -4.1981   -0.4804 H   0  0  0  0  0  0  0  0  0  0  0  0
    0.0884   -1.8775   -2.2176 H   0  0  0  0  0  0  0  0  0  0  0  0
   -1.3391   -2.5662   -3.0193 H   0  0  0  0  0  0  0  0  0  0  0  0
    0.1065   -3.5639   -2.7761 H   0  0  0  0  0  0  0  0  0  0  0  0
   -2.0960   -3.1020    2.0060 N   0  0  0  0  0  0  0  0  0  0  0  0
   -2.6901   -3.6043    3.2607 C   0  0  2  0  0  0  0  0  0  0  0  0
   -3.1968   -5.0634    3.1988 C   0  0  0  0  0  0  0  0  0  0  0  0
   -2.8093   -5.8723    4.0317 O   0  0  0  0  0  0  0  0  0  0  0  0
   -3.7909   -2.6569    3.7591 C   0  0  0  0  0  0  0  0  0  0  0  0
   -1.0883   -2.9516    1.9868 H   0  0  0  0  0  0  0  0  0  0  0  0
   -1.8962   -3.5929    4.0147 H   0  0  0  0  0  0  0  0  0  0  0  0
   -4.6690   -2.6884    3.1074 H   0  0  0  0  0  0  0  0  0  0  0  0
   -4.1053   -2.9452    4.7670 H   0  0  0  0  0  0  0  0  0  0  0  0
   -3.4199   -1.6280    3.7938 H   0  0  0  0  0  0  0  0  0  0  0  0
   -4.0745   -5.4755    2.2163 N   0  0  0  0  0  0  0  0  0  0  0  0
   -4.5955   -6.8299    2.0999 C   0  0  0  0  0  0  0  0  0  0  0  0
   -4.3613   -4.7640    1.5393 H   0  0  0  0  0  0  0  0  0  0  0  0
   -3.7785   -7.5429    1.9486 H   0  0  0  0  0  0  0  0  0  0  0  0
   -5.1444   -7.1078    3.0057 H   0  0  0  0  0  0  0  0  0  0  0  0
   -5.2778   -6.8989    1.2473 H   0  0  0  0  0  0  0  0  0  0  0  0
  1  2  2  0  0  0  0
  1  3  1  0  0  0  0
  1  7  1  0  0  0  0
  3  4  1  0  0  0  0
  3  5  1  0  0  0  0
  3  6  1  0  0  0  0
  7  8  1  0  0  0  0
  7 12  1  0  0  0  0
  8  9  1  0  0  0  0
  8 11  1  0  0  0  0
  8 13  1  0  0  0  0
  9 10  2  0  0  0  0
  9 17  1  0  0  0  0
 11 14  1  0  0  0  0
 11 15  1  0  0  0  0
 11 16  1  0  0  0  0
 17 18  1  0  0  0  0
 17 24  1  0  0  0  0
 18 19  1  0  0  0  0
 18 21  1  0  0  0  0
 18 25  1  0  0  0  0
 19 20  2  0  0  0  0
 19 31  1  0  0  0  0
 21 22  1  0  0  0  0
 21 23  1  0  0  0  0
 21 26  1  0  0  0  0
 22 27  1  0  0  0  0
 23 28  1  0  0  0  0
 23 29  1  0  0  0  0
 23 30  1  0  0  0  0
 31 32  1  0  0  0  0
 31 36  1  0  0  0  0
 32 33  1  0  0  0  0
 32 35  1  0  0  0  0
 32 37  1  0  0  0  0
 33 34  2  0  0  0  0
 33 41  1  0  0  0  0
 35 38  1  0  0  0  0
 35 39  1  0  0  0  0
 35 40  1  0  0  0  0
 41 42  1  0  0  0  0
 41 43  1  0  0  0  0
 42 44  1  0  0  0  0
 42 45  1  0  0  0  0
 42 46  1  0  0  0  0
M  END
$$$$

  -OEChem-02062319133D

 46 45  0     1  0  0  0  0  0999 V2000
   -4.4363    1.8322    2.1653 C   0  0  0  0  0  0  0  0  0  0  0  0
   -5.2628    0.9361    2.1183 O   0  0  0  0  0  0  0  0  0  0  0  0
   -4.4829    2.8447    3.2939 C   0  0  0  0  0  0  0  0  0  0  0  0
   -4.5842    3.8534    2.8864 H   0  0  0  0  0  0  0  0  0  0  0  0
   -5.3350    2.6414    3.9484 H   0  0  0  0  0  0  0  0  0  0  0  0
   -3.5647    2.7872    3.8835 H   0  0  0  0  0  0  0  0  0  0  0  0
   -3.4404    1.9216    1.2152 N   0  0  0  0  0  0  0  0  0  0  0  0
   -3.1209    0.8493    0.2605 C   0  0  2  0  0  0  0  0  0  0  0  0
   -1.7294    0.2406    0.5566 C   0  0  0  0  0  0  0  0  0  0  0  0
   -0.9111    0.8453    1.2342 O   0  0  0  0  0  0  0  0  0  0  0  0
   -3.1598    1.4621   -1.1414 C   0  0  0  0  0  0  0  0  0  0  0  0
   -2.6791    2.5584    1.4420 H   0  0  0  0  0  0  0  0  0  0  0  0
   -3.8666    0.0502    0.3139 H   0  0  0  0  0  0  0  0  0  0  0  0
   -2.4153    2.2593   -1.2332 H   0  0  0  0  0  0  0  0  0  0  0  0
   -2.9515    0.7033   -1.9007 H   0  0  0  0  0  0  0  0  0  0  0  0
   -4.1499    1.8843   -1.3403 H   0  0  0  0  0  0  0  0  0  0  0  0
   -1.2548   -0.9462    0.0460 N   0  0  0  0  0  0  0  0  0  0  0  0
   -2.0506   -1.9991   -0.6080 C   0  0  2  0  0  0  0  0  0  0  0  0
   -3.1442   -2.5933    0.2940 C   0  0  0  0  0  0  0  0  0  0  0  0
   -4.2594   -2.7736   -0.1752 O   0  0  0  0  0  0  0  0  0  0  0  0
   -1.1081   -3.1423   -1.0268 C   0  0  2  0  0  0  0  0  0  0  0  0
   -0.2554   -3.4933    0.0712 O   0  0  0  0  0  0  0  0  0  0  0  0
   -0.2229   -2.7319   -2.2028 C   0  0  0  0  0  0  0  0  0  0  0  0
   -0.3341   -1.2096    0.3946 H   0  0  0  0  0  0  0  0  0  0  0  0
   -2.5388   -1.5972   -1.5008 H   0  0  0  0  0  0  0  0  0  0  0  0
   -1.7051   -4.0121   -1.3262 H   0  0  0  0  0  0  0  0  0  0  0  0
    0.3141   -4.2489   -0.1643 H   0  0  0  0  0  0  0  0  0  0  0  0
    0.4105   -1.8803   -1.9353 H   0  0  0  0  0  0  0  0  0  0  0  0
   -0.8389   -2.4506   -3.0623 H   0  0  0  0  0  0  0  0  0  0  0  0
    0.4211   -3.5647   -2.5004 H   0  0  0  0  0  0  0  0  0  0  0  0
   -2.8521   -2.9274    1.6046 N   0  0  0  0  0  0  0  0  0  0  0  0
   -3.7745   -3.4751    2.6187 C   0  0  2  0  0  0  0  0  0  0  0  0
   -4.2927   -4.9000    2.3166 C   0  0  0  0  0  0  0  0  0  0  0  0
   -4.0976   -5.7981    3.1253 O   0  0  0  0  0  0  0  0  0  0  0  0
   -4.9365   -2.5078    2.8820 C   0  0  0  0  0  0  0  0  0  0  0  0
   -1.8664   -2.8549    1.8522 H   0  0  0  0  0  0  0  0  0  0  0  0
   -3.2103   -3.5516    3.5538 H   0  0  0  0  0  0  0  0  0  0  0  0
   -5.5888   -2.4156    2.0089 H   0  0  0  0  0  0  0  0  0  0  0  0
   -5.5405   -2.8656    3.7215 H   0  0  0  0  0  0  0  0  0  0  0  0
   -4.5521   -1.5150    3.1332 H   0  0  0  0  0  0  0  0  0  0  0  0
   -4.9562   -5.1876    1.1405 N   0  0  0  0  0  0  0  0  0  0  0  0
   -5.4423   -6.5118    0.7791 C   0  0  0  0  0  0  0  0  0  0  0  0
   -5.0494   -4.4155    0.4754 H   0  0  0  0  0  0  0  0  0  0  0  0
   -4.6149   -7.2282    0.7488 H   0  0  0  0  0  0  0  0  0  0  0  0
   -6.1834   -6.8589    1.5065 H   0  0  0  0  0  0  0  0  0  0  0  0
   -5.9131   -6.4846   -0.2081 H   0  0  0  0  0  0  0  0  0  0  0  0
  1  2  2  0  0  0  0
  1  3  1  0  0  0  0
  1  7  1  0  0  0  0
  3  4  1  0  0  0  0
  3  5  1  0  0  0  0
  3  6  1  0  0  0  0
  7  8  1  0  0  0  0
  7 12  1  0  0  0  0
  8  9  1  0  0  0  0
  8 11  1  0  0  0  0
  8 13  1  0  0  0  0
  9 10  2  0  0  0  0
  9 17  1  0  0  0  0
 11 14  1  0  0  0  0
 11 15  1  0  0  0  0
 11 16  1  0  0  0  0
 17 18  1  0  0  0  0
 17 24  1  0  0  0  0
 18 19  1  0  0  0  0
 18 21  1  0  0  0  0
 18 25  1  0  0  0  0
 19 20  2  0  0  0  0
 19 31  1  0  0  0  0
 21 22  1  0  0  0  0
 21 23  1  0  0  0  0
 21 26  1  0  0  0  0
 22 27  1  0  0  0  0
 23 28  1  0  0  0  0
 23 29  1  0  0  0  0
 23 30  1  0  0  0  0
 31 32  1  0  0  0  0
 31 36  1  0  0  0  0
 32 33  1  0  0  0  0
 32 35  1  0  0  0  0
 32 37  1  0  0  0  0
 33 34  2  0  0  0  0
 33 41  1  0  0  0  0
 35 38  1  0  0  0  0
 35 39  1  0  0  0  0
 35 40  1  0  0  0  0
 41 42  1  0  0  0  0
 41 43  1  0  0  0  0
 42 44  1  0  0  0  0
 42 45  1  0  0  0  0
 42 46  1  0  0  0  0
M  END
$$$$

  -OEChem-02062319133D

 46 45  0     1  0  0  0  0  0999 V2000
   -4.4574    2.0875    2.0688 C   0  0  0  0  0  0  0  0  0  0  0  0
   -5.4446    1.4615    1.7182 O   0  0  0  0  0  0  0  0  0  0  0  0
   -4.5333    3.0144    3.2672 C   0  0  0  0  0  0  0  0  0  0  0  0
   -4.2397    4.0257    2.9758 H   0  0  0  0  0  0  0  0  0  0  0  0
   -5.5545    3.0429    3.6574 H   0  0  0  0  0  0  0  0  0  0  0  0
   -3.8645    2.6605    4.0553 H   0  0  0  0  0  0  0  0  0  0  0  0
   -3.2649    1.9458    1.3912 N   0  0  0  0  0  0  0  0  0  0  0  0
   -3.0165    0.9397    0.3491 C   0  0  2  0  0  0  0  0  0  0  0  0
   -1.6420    0.2585    0.5596 C   0  0  0  0  0  0  0  0  0  0  0  0
   -0.8133    0.7492    1.3132 O   0  0  0  0  0  0  0  0  0  0  0  0
   -3.0796    1.6506   -1.0049 C   0  0  0  0  0  0  0  0  0  0  0  0
   -2.4410    2.3575    1.8278 H   0  0  0  0  0  0  0  0  0  0  0  0
   -3.7916    0.1693    0.3844 H   0  0  0  0  0  0  0  0  0  0  0  0
   -2.3061    2.4226   -1.0690 H   0  0  0  0  0  0  0  0  0  0  0  0
   -2.9331    0.9409   -1.8232 H   0  0  0  0  0  0  0  0  0  0  0  0
   -4.0579    2.1246   -1.1349 H   0  0  0  0  0  0  0  0  0  0  0  0
   -1.2378   -0.9377    0.0093 N   0  0  0  0  0  0  0  0  0  0  0  0
   -2.0041   -1.8241   -0.8848 C   0  0  2  0  0  0  0  0  0  0  0  0
   -3.3088   -2.3444   -0.2635 C   0  0  0  0  0  0  0  0  0  0  0  0
   -4.3326   -2.3236   -0.9323 O   0  0  0  0  0  0  0  0  0  0  0  0
   -1.1355   -3.0399   -1.2562 C   0  0  2  0  0  0  0  0  0  0  0  0
   -0.5497   -3.6001   -0.0741 O   0  0  0  0  0  0  0  0  0  0  0  0
   -0.0053   -2.6461   -2.2063 C   0  0  0  0  0  0  0  0  0  0  0  0
   -0.3465   -1.2818    0.3627 H   0  0  0  0  0  0  0  0  0  0  0  0
   -2.2649   -1.2868   -1.8012 H   0  0  0  0  0  0  0  0  0  0  0  0
   -1.7612   -3.7922   -1.7513 H   0  0  0  0  0  0  0  0  0  0  0  0
   -0.0385   -4.4019   -0.2903 H   0  0  0  0  0  0  0  0  0  0  0  0
    0.6620   -1.9161   -1.7379 H   0  0  0  0  0  0  0  0  0  0  0  0
   -0.4137   -2.2061   -3.1213 H   0  0  0  0  0  0  0  0  0  0  0  0
    0.5816   -3.5271   -2.4826 H   0  0  0  0  0  0  0  0  0  0  0  0
   -3.3086   -2.8171    1.0367 N   0  0  0  0  0  0  0  0  0  0  0  0
   -4.4646   -3.2978    1.8186 C   0  0  2  0  0  0  0  0  0  0  0  0
   -5.0882   -4.6128    1.2978 C   0  0  0  0  0  0  0  0  0  0  0  0
   -5.1815   -5.5760    2.0476 O   0  0  0  0  0  0  0  0  0  0  0  0
   -5.5287   -2.1997    1.9616 C   0  0  0  0  0  0  0  0  0  0  0  0
   -2.3839   -2.9014    1.4571 H   0  0  0  0  0  0  0  0  0  0  0  0
   -4.0976   -3.5155    2.8270 H   0  0  0  0  0  0  0  0  0  0  0  0
   -6.0002   -1.9701    1.0017 H   0  0  0  0  0  0  0  0  0  0  0  0
   -6.3108   -2.5244    2.6548 H   0  0  0  0  0  0  0  0  0  0  0  0
   -5.0795   -1.2827    2.3547 H   0  0  0  0  0  0  0  0  0  0  0  0
   -5.5237   -4.7306   -0.0071 N   0  0  0  0  0  0  0  0  0  0  0  0
   -6.1038   -5.9419   -0.5687 C   0  0  0  0  0  0  0  0  0  0  0  0
   -5.3946   -3.9085   -0.6026 H   0  0  0  0  0  0  0  0  0  0  0  0
   -5.4025   -6.7784   -0.4834 H   0  0  0  0  0  0  0  0  0  0  0  0
   -7.0287   -6.2011   -0.0434 H   0  0  0  0  0  0  0  0  0  0  0  0
   -6.3361   -5.7923   -1.6274 H   0  0  0  0  0  0  0  0  0  0  0  0
  1  2  2  0  0  0  0
  1  3  1  0  0  0  0
  1  7  1  0  0  0  0
  3  4  1  0  0  0  0
  3  5  1  0  0  0  0
  3  6  1  0  0  0  0
  7  8  1  0  0  0  0
  7 12  1  0  0  0  0
  8  9  1  0  0  0  0
  8 11  1  0  0  0  0
  8 13  1  0  0  0  0
  9 10  2  0  0  0  0
  9 17  1  0  0  0  0
 11 14  1  0  0  0  0
 11 15  1  0  0  0  0
 11 16  1  0  0  0  0
 17 18  1  0  0  0  0
 17 24  1  0  0  0  0
 18 19  1  0  0  0  0
 18 21  1  0  0  0  0
 18 25  1  0  0  0  0
 19 20  2  0  0  0  0
 19 31  1  0  0  0  0
 21 22  1  0  0  0  0
 21 23  1  0  0  0  0
 21 26  1  0  0  0  0
 22 27  1  0  0  0  0
 23 28  1  0  0  0  0
 23 29  1  0  0  0  0
 23 30  1  0  0  0  0
 31 32  1  0  0  0  0
 31 36  1  0  0  0  0
 32 33  1  0  0  0  0
 32 35  1  0  0  0  0
 32 37  1  0  0  0  0
 33 34  2  0  0  0  0
 33 41  1  0  0  0  0
 35 38  1  0  0  0  0
 35 39  1  0  0  0  0
 35 40  1  0  0  0  0
 41 42  1  0  0  0  0
 41 43  1  0  0  0  0
 42 44  1  0  0  0  0
 42 45  1  0  0  0  0
 42 46  1  0  0  0  0
M  END
$$$$

  -OEChem-02062319133D

 46 45  0     1  0  0  0  0  0999 V2000
   -4.3392    2.2764    2.1134 C   0  0  0  0  0  0  0  0  0  0  0  0
   -5.3669    1.7599    1.7047 O   0  0  0  0  0  0  0  0  0  0  0  0
   -4.3740    3.1725    3.3373 C   0  0  0  0  0  0  0  0  0  0  0  0
   -4.0497    4.1810    3.0695 H   0  0  0  0  0  0  0  0  0  0  0  0
   -5.3903    3.2242    3.7385 H   0  0  0  0  0  0  0  0  0  0  0  0
   -3.7102    2.7763    4.1098 H   0  0  0  0  0  0  0  0  0  0  0  0
   -3.1395    2.0362    1.4771 N   0  0  0  0  0  0  0  0  0  0  0  0
   -2.9502    1.0378    0.4154 C   0  0  2  0  0  0  0  0  0  0  0  0
   -1.5907    0.3135    0.5784 C   0  0  0  0  0  0  0  0  0  0  0  0
   -0.7627    0.7256    1.3786 O   0  0  0  0  0  0  0  0  0  0  0  0
   -3.0462    1.7637   -0.9293 C   0  0  0  0  0  0  0  0  0  0  0  0
   -2.2963    2.3594    1.9504 H   0  0  0  0  0  0  0  0  0  0  0  0
   -3.7431    0.2879    0.4762 H   0  0  0  0  0  0  0  0  0  0  0  0
   -2.2437    2.5018   -1.0246 H   0  0  0  0  0  0  0  0  0  0  0  0
   -2.9735    1.0575   -1.7602 H   0  0  0  0  0  0  0  0  0  0  0  0
   -4.0077    2.2812   -1.0082 H   0  0  0  0  0  0  0  0  0  0  0  0
   -1.2322   -0.8886    0.0087 N   0  0  0  0  0  0  0  0  0  0  0  0
   -1.8977   -1.6071   -1.0944 C   0  0  2  0  0  0  0  0  0  0  0  0
   -3.3552   -1.9939   -0.8027 C   0  0  0  0  0  0  0  0  0  0  0  0
   -4.2085   -1.7826   -1.6535 O   0  0  0  0  0  0  0  0  0  0  0  0
   -1.1200   -2.9018   -1.3977 C   0  0  2  0  0  0  0  0  0  0  0  0
   -0.8843   -3.6271   -0.1849 O   0  0  0  0  0  0  0  0  0  0  0  0
    0.2334   -2.6033   -2.0417 C   0  0  0  0  0  0  0  0  0  0  0  0
   -0.3587   -1.2728    0.3637 H   0  0  0  0  0  0  0  0  0  0  0  0
   -1.8947   -0.9804   -1.9914 H   0  0  0  0  0  0  0  0  0  0  0  0
   -1.7057   -3.5196   -2.0888 H   0  0  0  0  0  0  0  0  0  0  0  0
   -0.4425   -4.4762   -0.3704 H   0  0  0  0  0  0  0  0  0  0  0  0
    0.8677   -2.0196   -1.3674 H   0  0  0  0  0  0  0  0  0  0  0  0
    0.0967   -2.0366   -2.9678 H   0  0  0  0  0  0  0  0  0  0  0  0
    0.7506   -3.5363   -2.2844 H   0  0  0  0  0  0  0  0  0  0  0  0
   -3.6800   -2.5496    0.4220 N   0  0  0  0  0  0  0  0  0  0  0  0
   -5.0116   -2.9867    0.8865 C   0  0  2  0  0  0  0  0  0  0  0  0
   -5.6071   -4.1732    0.0942 C   0  0  0  0  0  0  0  0  0  0  0  0
   -5.8876   -5.2111    0.6794 O   0  0  0  0  0  0  0  0  0  0  0  0
   -5.9943   -1.8089    0.9406 C   0  0  0  0  0  0  0  0  0  0  0  0
   -2.8744   -2.7993    0.9952 H   0  0  0  0  0  0  0  0  0  0  0  0
   -4.8890   -3.3420    1.9151 H   0  0  0  0  0  0  0  0  0  0  0  0
   -6.2022   -1.4131   -0.0573 H   0  0  0  0  0  0  0  0  0  0  0  0
   -6.9421   -2.1310    1.3830 H   0  0  0  0  0  0  0  0  0  0  0  0
   -5.5859   -1.0023    1.5561 H   0  0  0  0  0  0  0  0  0  0  0  0
   -5.8086   -4.0948   -1.2695 N   0  0  0  0  0  0  0  0  0  0  0  0
   -6.3314   -5.1843   -2.0812 C   0  0  0  0  0  0  0  0  0  0  0  0
   -5.4991   -3.2312   -1.7224 H   0  0  0  0  0  0  0  0  0  0  0  0
   -5.6919   -6.0685   -1.9935 H   0  0  0  0  0  0  0  0  0  0  0  0
   -7.3440   -5.4474   -1.7594 H   0  0  0  0  0  0  0  0  0  0  0  0
   -6.3689   -4.8867   -3.1335 H   0  0  0  0  0  0  0  0  0  0  0  0
  1  2  2  0  0  0  0
  1  3  1  0  0  0  0
  1  7  1  0  0  0  0
  3  4  1  0  0  0  0
  3  5  1  0  0  0  0
  3  6  1  0  0  0  0
  7  8  1  0  0  0  0
  7 12  1  0  0  0  0
  8  9  1  0  0  0  0
  8 11  1  0  0  0  0
  8 13  1  0  0  0  0
  9 10  2  0  0  0  0
  9 17  1  0  0  0  0
 11 14  1  0  0  0  0
 11 15  1  0  0  0  0
 11 16  1  0  0  0  0
 17 18  1  0  0  0  0
 17 24  1  0  0  0  0
 18 19  1  0  0  0  0
 18 21  1  0  0  0  0
 18 25  1  0  0  0  0
 19 20  2  0  0  0  0
 19 31  1  0  0  0  0
 21 22  1  0  0  0  0
 21 23  1  0  0  0  0
 21 26  1  0  0  0  0
 22 27  1  0  0  0  0
 23 28  1  0  0  0  0
 23 29  1  0  0  0  0
 23 30  1  0  0  0  0
 31 32  1  0  0  0  0
 31 36  1  0  0  0  0
 32 33  1  0  0  0  0
 32 35  1  0  0  0  0
 32 37  1  0  0  0  0
 33 34  2  0  0  0  0
 33 41  1  0  0  0  0
 35 38  1  0  0  0  0
 35 39  1  0  0  0  0
 35 40  1  0  0  0  0
 41 42  1  0  0  0  0
 41 43  1  0  0  0  0
 42 44  1  0  0  0  0
 42 45  1  0  0  0  0
 42 46  1  0  0  0  0
M  END
$$$$

  -OEChem-02062319133D

 46 45  0     1  0  0  0  0  0999 V2000
   -4.2571    2.3320    2.1753 C   0  0  0  0  0  0  0  0  0  0  0  0
   -5.2856    1.9408    1.6472 O   0  0  0  0  0  0  0  0  0  0  0  0
   -4.3212    3.1462    3.4536 C   0  0  0  0  0  0  0  0  0  0  0  0
   -3.8870    4.1351    3.2877 H   0  0  0  0  0  0  0  0  0  0  0  0
   -5.3601    3.2665    3.7734 H   0  0  0  0  0  0  0  0  0  0  0  0
   -3.7654    2.6397    4.2462 H   0  0  0  0  0  0  0  0  0  0  0  0
   -3.0326    2.0256    1.6207 N   0  0  0  0  0  0  0  0  0  0  0  0
   -2.8389    1.1168    0.4824 C   0  0  2  0  0  0  0  0  0  0  0  0
   -1.4996    0.3493    0.6040 C   0  0  0  0  0  0  0  0  0  0  0  0
   -0.6819    0.6774    1.4522 O   0  0  0  0  0  0  0  0  0  0  0  0
   -2.8821    1.9549   -0.7998 C   0  0  0  0  0  0  0  0  0  0  0  0
   -2.2035    2.2546    2.1682 H   0  0  0  0  0  0  0  0  0  0  0  0
   -3.6489    0.3849    0.4663 H   0  0  0  0  0  0  0  0  0  0  0  0
   -2.0762    2.6955   -0.7996 H   0  0  0  0  0  0  0  0  0  0  0  0
   -2.7739    1.3226   -1.6847 H   0  0  0  0  0  0  0  0  0  0  0  0
   -3.8391    2.4816   -0.8743 H   0  0  0  0  0  0  0  0  0  0  0  0
   -1.1895   -0.8584    0.0168 N   0  0  0  0  0  0  0  0  0  0  0  0
   -1.7093   -1.4008   -1.2552 C   0  0  2  0  0  0  0  0  0  0  0  0
   -3.2335   -1.5936   -1.3013 C   0  0  0  0  0  0  0  0  0  0  0  0
   -3.8560   -1.2168   -2.2852 O   0  0  0  0  0  0  0  0  0  0  0  0
   -1.0568   -2.7687   -1.5352 C   0  0  2  0  0  0  0  0  0  0  0  0
   -1.1746   -3.6117   -0.3834 O   0  0  0  0  0  0  0  0  0  0  0  0
    0.4281   -2.6248   -1.8683 C   0  0  0  0  0  0  0  0  0  0  0  0
   -0.3388   -1.2763    0.3871 H   0  0  0  0  0  0  0  0  0  0  0  0
   -1.4451   -0.7160   -2.0675 H   0  0  0  0  0  0  0  0  0  0  0  0
   -1.5604   -3.2392   -2.3882 H   0  0  0  0  0  0  0  0  0  0  0  0
   -0.8097   -4.4975   -0.5630 H   0  0  0  0  0  0  0  0  0  0  0  0
    0.9794   -2.2027   -1.0227 H   0  0  0  0  0  0  0  0  0  0  0  0
    0.5629   -1.9687   -2.7336 H   0  0  0  0  0  0  0  0  0  0  0  0
    0.8576   -3.6016   -2.1098 H   0  0  0  0  0  0  0  0  0  0  0  0
   -3.8749   -2.1776   -0.2232 N   0  0  0  0  0  0  0  0  0  0  0  0
   -5.3107   -2.4999   -0.1031 C   0  0  2  0  0  0  0  0  0  0  0  0
   -5.8137   -3.5491   -1.1207 C   0  0  0  0  0  0  0  0  0  0  0  0
   -6.2287   -4.6295   -0.7220 O   0  0  0  0  0  0  0  0  0  0  0  0
   -6.1729   -1.2307   -0.1478 C   0  0  0  0  0  0  0  0  0  0  0  0
   -3.2421   -2.5856    0.4650 H   0  0  0  0  0  0  0  0  0  0  0  0
   -5.4574   -2.9444    0.8869 H   0  0  0  0  0  0  0  0  0  0  0  0
   -6.1140   -0.7389   -1.1227 H   0  0  0  0  0  0  0  0  0  0  0  0
   -7.2204   -1.4823    0.0448 H   0  0  0  0  0  0  0  0  0  0  0  0
   -5.8461   -0.5234    0.6193 H   0  0  0  0  0  0  0  0  0  0  0  0
   -5.7824   -3.2979   -2.4781 N   0  0  0  0  0  0  0  0  0  0  0  0
   -6.1841   -4.2608   -3.4931 C   0  0  0  0  0  0  0  0  0  0  0  0
   -5.3142   -2.4339   -2.7628 H   0  0  0  0  0  0  0  0  0  0  0  0
   -5.5493   -5.1517   -3.4487 H   0  0  0  0  0  0  0  0  0  0  0  0
   -7.2264   -4.5615   -3.3441 H   0  0  0  0  0  0  0  0  0  0  0  0
   -6.0925   -3.8164   -4.4887 H   0  0  0  0  0  0  0  0  0  0  0  0
  1  2  2  0  0  0  0
  1  3  1  0  0  0  0
  1  7  1  0  0  0  0
  3  4  1  0  0  0  0
  3  5  1  0  0  0  0
  3  6  1  0  0  0  0
  7  8  1  0  0  0  0
  7 12  1  0  0  0  0
  8  9  1  0  0  0  0
  8 11  1  0  0  0  0
  8 13  1  0  0  0  0
  9 10  2  0  0  0  0
  9 17  1  0  0  0  0
 11 14  1  0  0  0  0
 11 15  1  0  0  0  0
 11 16  1  0  0  0  0
 17 18  1  0  0  0  0
 17 24  1  0  0  0  0
 18 19  1  0  0  0  0
 18 21  1  0  0  0  0
 18 25  1  0  0  0  0
 19 20  2  0  0  0  0
 19 31  1  0  0  0  0
 21 22  1  0  0  0  0
 21 23  1  0  0  0  0
 21 26  1  0  0  0  0
 22 27  1  0  0  0  0
 23 28  1  0  0  0  0
 23 29  1  0  0  0  0
 23 30  1  0  0  0  0
 31 32  1  0  0  0  0
 31 36  1  0  0  0  0
 32 33  1  0  0  0  0
 32 35  1  0  0  0  0
 32 37  1  0  0  0  0
 33 34  2  0  0  0  0
 33 41  1  0  0  0  0
 35 38  1  0  0  0  0
 35 39  1  0  0  0  0
 35 40  1  0  0  0  0
 41 42  1  0  0  0  0
 41 43  1  0  0  0  0
 42 44  1  0  0  0  0
 42 45  1  0  0  0  0
 42 46  1  0  0  0  0
M  END
$$$$

  -OEChem-02062319133D

 46 45  0     1  0  0  0  0  0999 V2000
   -4.2351    2.2382    2.2817 C   0  0  0  0  0  0  0  0  0  0  0  0
   -5.2351    1.9350    1.6505 O   0  0  0  0  0  0  0  0  0  0  0  0
   -4.3643    2.9216    3.6306 C   0  0  0  0  0  0  0  0  0  0  0  0
   -3.8169    3.8673    3.6243 H   0  0  0  0  0  0  0  0  0  0  0  0
   -5.4160    3.1255    3.8507 H   0  0  0  0  0  0  0  0  0  0  0  0
   -3.9583    2.2792    4.4159 H   0  0  0  0  0  0  0  0  0  0  0  0
   -2.9848    1.9507    1.7761 N   0  0  0  0  0  0  0  0  0  0  0  0
   -2.7387    1.1758    0.5521 C   0  0  2  0  0  0  0  0  0  0  0  0
   -1.4192    0.3744    0.6516 C   0  0  0  0  0  0  0  0  0  0  0  0
   -0.6272    0.6222    1.5499 O   0  0  0  0  0  0  0  0  0  0  0  0
   -2.6971    2.1592   -0.6225 C   0  0  0  0  0  0  0  0  0  0  0  0
   -2.1849    2.1028    2.3897 H   0  0  0  0  0  0  0  0  0  0  0  0
   -3.5541    0.4652    0.4097 H   0  0  0  0  0  0  0  0  0  0  0  0
   -1.9131    2.9072   -0.4669 H   0  0  0  0  0  0  0  0  0  0  0  0
   -2.4967    1.6412   -1.5637 H   0  0  0  0  0  0  0  0  0  0  0  0
   -3.6584    2.6752   -0.7150 H   0  0  0  0  0  0  0  0  0  0  0  0
   -1.1467   -0.8343    0.0485 N   0  0  0  0  0  0  0  0  0  0  0  0
   -1.4513   -1.2054   -1.3502 C   0  0  2  0  0  0  0  0  0  0  0  0
   -2.9370   -1.1674   -1.7459 C   0  0  0  0  0  0  0  0  0  0  0  0
   -3.2578   -0.6512   -2.8082 O   0  0  0  0  0  0  0  0  0  0  0  0
   -0.9330   -2.6299   -1.6310 C   0  0  2  0  0  0  0  0  0  0  0  0
   -1.4343   -3.5372   -0.6435 O   0  0  0  0  0  0  0  0  0  0  0  0
    0.5945   -2.6914   -1.6008 C   0  0  0  0  0  0  0  0  0  0  0  0
   -0.3406   -1.2909    0.4685 H   0  0  0  0  0  0  0  0  0  0  0  0
   -0.9298   -0.5082   -2.0144 H   0  0  0  0  0  0  0  0  0  0  0  0
   -1.2729   -2.9448   -2.6248 H   0  0  0  0  0  0  0  0  0  0  0  0
   -1.1444   -4.4487   -0.8307 H   0  0  0  0  0  0  0  0  0  0  0  0
    0.9787   -2.4327   -0.6095 H   0  0  0  0  0  0  0  0  0  0  0  0
    1.0184   -1.9953   -2.3310 H   0  0  0  0  0  0  0  0  0  0  0  0
    0.9364   -3.6999   -1.8520 H   0  0  0  0  0  0  0  0  0  0  0  0
   -3.8857   -1.7183   -0.9020 N   0  0  0  0  0  0  0  0  0  0  0  0
   -5.3411   -1.8242   -1.1337 C   0  0  2  0  0  0  0  0  0  0  0  0
   -5.7365   -2.7411   -2.3144 C   0  0  0  0  0  0  0  0  0  0  0  0
   -6.4859   -3.6896   -2.1221 O   0  0  0  0  0  0  0  0  0  0  0  0
   -5.9894   -0.4398   -1.2779 C   0  0  0  0  0  0  0  0  0  0  0  0
   -3.4923   -2.2604   -0.1326 H   0  0  0  0  0  0  0  0  0  0  0  0
   -5.7738   -2.2814   -0.2376 H   0  0  0  0  0  0  0  0  0  0  0  0
   -5.6456    0.0723   -2.1806 H   0  0  0  0  0  0  0  0  0  0  0  0
   -7.0775   -0.5417   -1.3377 H   0  0  0  0  0  0  0  0  0  0  0  0
   -5.7535    0.1845   -0.4118 H   0  0  0  0  0  0  0  0  0  0  0  0
   -5.2552   -2.5132   -3.5885 N   0  0  0  0  0  0  0  0  0  0  0  0
   -5.6049   -3.3169   -4.7513 C   0  0  0  0  0  0  0  0  0  0  0  0
   -4.6119   -1.7247   -3.6936 H   0  0  0  0  0  0  0  0  0  0  0  0
   -5.3400   -4.3667   -4.5876 H   0  0  0  0  0  0  0  0  0  0  0  0
   -6.6794   -3.2506   -4.9513 H   0  0  0  0  0  0  0  0  0  0  0  0
   -5.0653   -2.9573   -5.6326 H   0  0  0  0  0  0  0  0  0  0  0  0
  1  2  2  0  0  0  0
  1  3  1  0  0  0  0
  1  7  1  0  0  0  0
  3  4  1  0  0  0  0
  3  5  1  0  0  0  0
  3  6  1  0  0  0  0
  7  8  1  0  0  0  0
  7 12  1  0  0  0  0
  8  9  1  0  0  0  0
  8 11  1  0  0  0  0
  8 13  1  0  0  0  0
  9 10  2  0  0  0  0
  9 17  1  0  0  0  0
 11 14  1  0  0  0  0
 11 15  1  0  0  0  0
 11 16  1  0  0  0  0
 17 18  1  0  0  0  0
 17 24  1  0  0  0  0
 18 19  1  0  0  0  0
 18 21  1  0  0  0  0
 18 25  1  0  0  0  0
 19 20  2  0  0  0  0
 19 31  1  0  0  0  0
 21 22  1  0  0  0  0
 21 23  1  0  0  0  0
 21 26  1  0  0  0  0
 22 27  1  0  0  0  0
 23 28  1  0  0  0  0
 23 29  1  0  0  0  0
 23 30  1  0  0  0  0
 31 32  1  0  0  0  0
 31 36  1  0  0  0  0
 32 33  1  0  0  0  0
 32 35  1  0  0  0  0
 32 37  1  0  0  0  0
 33 34  2  0  0  0  0
 33 41  1  0  0  0  0
 35 38  1  0  0  0  0
 35 39  1  0  0  0  0
 35 40  1  0  0  0  0
 41 42  1  0  0  0  0
 41 43  1  0  0  0  0
 42 44  1  0  0  0  0
 42 45  1  0  0  0  0
 42 46  1  0  0  0  0
M  END
$$$$

  -OEChem-02062319133D

 46 45  0     1  0  0  0  0  0999 V2000
   -4.2954    2.0165    2.3138 C   0  0  0  0  0  0  0  0  0  0  0  0
   -5.2354    1.7762    1.5723 O   0  0  0  0  0  0  0  0  0  0  0  0
   -4.5463    2.5337    3.7179 C   0  0  0  0  0  0  0  0  0  0  0  0
   -4.0757    3.5118    3.8449 H   0  0  0  0  0  0  0  0  0  0  0  0
   -5.6206    2.6342    3.8963 H   0  0  0  0  0  0  0  0  0  0  0  0
   -4.1311    1.8388    4.4519 H   0  0  0  0  0  0  0  0  0  0  0  0
   -3.0030    1.8110    1.8788 N   0  0  0  0  0  0  0  0  0  0  0  0
   -2.6494    1.2033    0.5889 C   0  0  2  0  0  0  0  0  0  0  0  0
   -1.3352    0.3930    0.6810 C   0  0  0  0  0  0  0  0  0  0  0  0
   -0.5827    0.5777    1.6272 O   0  0  0  0  0  0  0  0  0  0  0  0
   -2.5233    2.3343   -0.4377 C   0  0  0  0  0  0  0  0  0  0  0  0
   -2.2539    1.9108    2.5629 H   0  0  0  0  0  0  0  0  0  0  0  0
   -3.4446    0.5189    0.2904 H   0  0  0  0  0  0  0  0  0  0  0  0
   -2.2484    1.9451   -1.4206 H   0  0  0  0  0  0  0  0  0  0  0  0
   -1.7578    3.0511   -0.1246 H   0  0  0  0  0  0  0  0  0  0  0  0
   -3.4763    2.8636   -0.5345 H   0  0  0  0  0  0  0  0  0  0  0  0
   -1.0864   -0.8175    0.0718 N   0  0  0  0  0  0  0  0  0  0  0  0
   -1.1300   -1.0459   -1.3895 C   0  0  2  0  0  0  0  0  0  0  0  0
   -2.4788   -0.7723   -2.0770 C   0  0  0  0  0  0  0  0  0  0  0  0
   -2.4990   -0.1348   -3.1217 O   0  0  0  0  0  0  0  0  0  0  0  0
   -0.7395   -2.5037   -1.7043 C   0  0  2  0  0  0  0  0  0  0  0  0
   -1.5599   -3.4064   -0.9555 O   0  0  0  0  0  0  0  0  0  0  0  0
    0.7218   -2.7872   -1.3543 C   0  0  0  0  0  0  0  0  0  0  0  0
   -0.3506   -1.3181    0.5638 H   0  0  0  0  0  0  0  0  0  0  0  0
   -0.3982   -0.3822   -1.8623 H   0  0  0  0  0  0  0  0  0  0  0  0
   -0.8797   -2.6862   -2.7765 H   0  0  0  0  0  0  0  0  0  0  0  0
   -1.3434   -4.3317   -1.1718 H   0  0  0  0  0  0  0  0  0  0  0  0
    0.8971   -2.6784   -0.2798 H   0  0  0  0  0  0  0  0  0  0  0  0
    1.3825   -2.0964   -1.8870 H   0  0  0  0  0  0  0  0  0  0  0  0
    0.9876   -3.8078   -1.6458 H   0  0  0  0  0  0  0  0  0  0  0  0
   -3.6478   -1.2397   -1.5028 N   0  0  0  0  0  0  0  0  0  0  0  0
   -5.0252   -1.0971   -2.0171 C   0  0  2  0  0  0  0  0  0  0  0  0
   -5.2889   -1.8390   -3.3474 C   0  0  0  0  0  0  0  0  0  0  0  0
   -6.1541   -2.7031   -3.3998 O   0  0  0  0  0  0  0  0  0  0  0  0
   -5.4352    0.3789   -2.1233 C   0  0  0  0  0  0  0  0  0  0  0  0
   -3.4996   -1.8904   -0.7310 H   0  0  0  0  0  0  0  0  0  0  0  0
   -5.6902   -1.5546   -1.2769 H   0  0  0  0  0  0  0  0  0  0  0  0
   -4.8427    0.9061   -2.8760 H   0  0  0  0  0  0  0  0  0  0  0  0
   -6.4898    0.4539   -2.4063 H   0  0  0  0  0  0  0  0  0  0  0  0
   -5.3051    0.8818   -1.1607 H   0  0  0  0  0  0  0  0  0  0  0  0
   -4.5553   -1.5524   -4.4818 N   0  0  0  0  0  0  0  0  0  0  0  0
   -4.7254   -2.2347   -5.7567 C   0  0  0  0  0  0  0  0  0  0  0  0
   -3.7961   -0.8759   -4.3688 H   0  0  0  0  0  0  0  0  0  0  0  0
   -4.4951   -3.3003   -5.6539 H   0  0  0  0  0  0  0  0  0  0  0  0
   -5.7553   -2.1280   -6.1130 H   0  0  0  0  0  0  0  0  0  0  0  0
   -4.0544   -1.8044   -6.5065 H   0  0  0  0  0  0  0  0  0  0  0  0
  1  2  2  0  0  0  0
  1  3  1  0  0  0  0
  1  7  1  0  0  0  0
  3  4  1  0  0  0  0
  3  5  1  0  0  0  0
  3  6  1  0  0  0  0
  7  8  1  0  0  0  0
  7 12  1  0  0  0  0
  8  9  1  0  0  0  0
  8 11  1  0  0  0  0
  8 13  1  0  0  0  0
  9 10  2  0  0  0  0
  9 17  1  0  0  0  0
 11 14  1  0  0  0  0
 11 15  1  0  0  0  0
 11 16  1  0  0  0  0
 17 18  1  0  0  0  0
 17 24  1  0  0  0  0
 18 19  1  0  0  0  0
 18 21  1  0  0  0  0
 18 25  1  0  0  0  0
 19 20  2  0  0  0  0
 19 31  1  0  0  0  0
 21 22  1  0  0  0  0
 21 23  1  0  0  0  0
 21 26  1  0  0  0  0
 22 27  1  0  0  0  0
 23 28  1  0  0  0  0
 23 29  1  0  0  0  0
 23 30  1  0  0  0  0
 31 32  1  0  0  0  0
 31 36  1  0  0  0  0
 32 33  1  0  0  0  0
 32 35  1  0  0  0  0
 32 37  1  0  0  0  0
 33 34  2  0  0  0  0
 33 41  1  0  0  0  0
 35 38  1  0  0  0  0
 35 39  1  0  0  0  0
 35 40  1  0  0  0  0
 41 42  1  0  0  0  0
 41 43  1  0  0  0  0
 42 44  1  0  0  0  0
 42 45  1  0  0  0  0
 42 46  1  0  0  0  0
M  END
$$$$

  -OEChem-02062319133D

 46 45  0     1  0  0  0  0  0999 V2000
   -4.3331    1.9334    2.2480 C   0  0  0  0  0  0  0  0  0  0  0  0
   -5.2131    1.7668    1.4179 O   0  0  0  0  0  0  0  0  0  0  0  0
   -4.6884    2.3548    3.6614 C   0  0  0  0  0  0  0  0  0  0  0  0
   -4.2032    3.3044    3.8997 H   0  0  0  0  0  0  0  0  0  0  0  0
   -5.7708    2.4790    3.7574 H   0  0  0  0  0  0  0  0  0  0  0  0
   -4.3563    1.5946    4.3725 H   0  0  0  0  0  0  0  0  0  0  0  0
   -3.0126    1.7416    1.9004 N   0  0  0  0  0  0  0  0  0  0  0  0
   -2.5604    1.2680    0.5859 C   0  0  2  0  0  0  0  0  0  0  0  0
   -1.2495    0.4556    0.6888 C   0  0  0  0  0  0  0  0  0  0  0  0
   -0.5247    0.6187    1.6600 O   0  0  0  0  0  0  0  0  0  0  0  0
   -2.3563    2.4976   -0.3066 C   0  0  0  0  0  0  0  0  0  0  0  0
   -2.3128    1.7987    2.6393 H   0  0  0  0  0  0  0  0  0  0  0  0
   -3.3278    0.6203    0.1569 H   0  0  0  0  0  0  0  0  0  0  0  0
   -2.0238    2.2051   -1.3056 H   0  0  0  0  0  0  0  0  0  0  0  0
   -3.2937    3.0535   -0.4072 H   0  0  0  0  0  0  0  0  0  0  0  0
   -1.6032    3.1634    0.1268 H   0  0  0  0  0  0  0  0  0  0  0  0
   -1.0292   -0.7737    0.1101 N   0  0  0  0  0  0  0  0  0  0  0  0
   -0.7942   -0.9258   -1.3425 C   0  0  2  0  0  0  0  0  0  0  0  0
   -1.9354   -0.4442   -2.2544 C   0  0  0  0  0  0  0  0  0  0  0  0
   -1.6777    0.2623   -3.2199 O   0  0  0  0  0  0  0  0  0  0  0  0
   -0.5264   -2.4048   -1.6842 C   0  0  2  0  0  0  0  0  0  0  0  0
   -1.5930   -3.2247   -1.1950 O   0  0  0  0  0  0  0  0  0  0  0  0
    0.7805   -2.9015   -1.0657 C   0  0  0  0  0  0  0  0  0  0  0  0
   -0.3871   -1.3091    0.6890 H   0  0  0  0  0  0  0  0  0  0  0  0
    0.0923   -0.3410   -1.6109 H   0  0  0  0  0  0  0  0  0  0  0  0
   -0.4546   -2.5108   -2.7732 H   0  0  0  0  0  0  0  0  0  0  0  0
   -1.4477   -4.1590   -1.4305 H   0  0  0  0  0  0  0  0  0  0  0  0
    0.7322   -2.8776    0.0272 H   0  0  0  0  0  0  0  0  0  0  0  0
    1.6181   -2.2770   -1.3916 H   0  0  0  0  0  0  0  0  0  0  0  0
    0.9785   -3.9304   -1.3807 H   0  0  0  0  0  0  0  0  0  0  0  0
   -3.2396   -0.7886   -1.9459 N   0  0  0  0  0  0  0  0  0  0  0  0
   -4.4649   -0.4644   -2.7044 C   0  0  2  0  0  0  0  0  0  0  0  0
   -4.5284   -1.0767   -4.1235 C   0  0  0  0  0  0  0  0  0  0  0  0
   -5.4732   -1.7905   -4.4327 O   0  0  0  0  0  0  0  0  0  0  0  0
   -4.7065    1.0500   -2.7495 C   0  0  0  0  0  0  0  0  0  0  0  0
   -3.3142   -1.5046   -1.2222 H   0  0  0  0  0  0  0  0  0  0  0  0
   -5.3047   -0.8991   -2.1514 H   0  0  0  0  0  0  0  0  0  0  0  0
   -3.9185    1.5642   -3.3068 H   0  0  0  0  0  0  0  0  0  0  0  0
   -4.7442    1.4580   -1.7353 H   0  0  0  0  0  0  0  0  0  0  0  0
   -5.6633    1.2609   -3.2372 H   0  0  0  0  0  0  0  0  0  0  0  0
   -3.5407   -0.8317   -5.0571 N   0  0  0  0  0  0  0  0  0  0  0  0
   -3.5487   -1.3611   -6.4133 C   0  0  0  0  0  0  0  0  0  0  0  0
   -2.7514   -0.2622   -4.7425 H   0  0  0  0  0  0  0  0  0  0  0  0
   -3.5671   -2.4558   -6.3984 H   0  0  0  0  0  0  0  0  0  0  0  0
   -4.4269   -1.0003   -6.9587 H   0  0  0  0  0  0  0  0  0  0  0  0
   -2.6513   -1.0375   -6.9494 H   0  0  0  0  0  0  0  0  0  0  0  0
  1  2  2  0  0  0  0
  1  3  1  0  0  0  0
  1  7  1  0  0  0  0
  3  4  1  0  0  0  0
  3  5  1  0  0  0  0
  3  6  1  0  0  0  0
  7  8  1  0  0  0  0
  7 12  1  0  0  0  0
  8  9  1  0  0  0  0
  8 11  1  0  0  0  0
  8 13  1  0  0  0  0
  9 10  2  0  0  0  0
  9 17  1  0  0  0  0
 11 14  1  0  0  0  0
 11 15  1  0  0  0  0
 11 16  1  0  0  0  0
 17 18  1  0  0  0  0
 17 24  1  0  0  0  0
 18 19  1  0  0  0  0
 18 21  1  0  0  0  0
 18 25  1  0  0  0  0
 19 20  2  0  0  0  0
 19 31  1  0  0  0  0
 21 22  1  0  0  0  0
 21 23  1  0  0  0  0
 21 26  1  0  0  0  0
 22 27  1  0  0  0  0
 23 28  1  0  0  0  0
 23 29  1  0  0  0  0
 23 30  1  0  0  0  0
 31 32  1  0  0  0  0
 31 36  1  0  0  0  0
 32 33  1  0  0  0  0
 32 35  1  0  0  0  0
 32 37  1  0  0  0  0
 33 34  2  0  0  0  0
 33 41  1  0  0  0  0
 35 38  1  0  0  0  0
 35 39  1  0  0  0  0
 35 40  1  0  0  0  0
 41 42  1  0  0  0  0
 41 43  1  0  0  0  0
 42 44  1  0  0  0  0
 42 45  1  0  0  0  0
 42 46  1  0  0  0  0
M  END
$$$$

  -OEChem-02062319133D

 46 45  0     1  0  0  0  0  0999 V2000
   -4.0465    0.6331    1.3286 C   0  0  0  0  0  0  0  0  0  0  0  0
   -3.8975   -0.1408    0.3951 O   0  0  0  0  0  0  0  0  0  0  0  0
   -5.2311    0.4920    2.2647 C   0  0  0  0  0  0  0  0  0  0  0  0
   -4.8843    0.2715    3.2774 H   0  0  0  0  0  0  0  0  0  0  0  0
   -5.8091    1.4193    2.2788 H   0  0  0  0  0  0  0  0  0  0  0  0
   -5.8812   -0.3216    1.9304 H   0  0  0  0  0  0  0  0  0  0  0  0
   -3.1010    1.6130    1.5468 N   0  0  0  0  0  0  0  0  0  0  0  0
   -1.9520    1.8699    0.6641 C   0  0  2  0  0  0  0  0  0  0  0  0
   -0.8421    0.7936    0.8117 C   0  0  0  0  0  0  0  0  0  0  0  0
    0.3208    1.1471    0.9446 O   0  0  0  0  0  0  0  0  0  0  0  0
   -1.4579    3.2883    0.9798 C   0  0  0  0  0  0  0  0  0  0  0  0
   -3.2349    2.2177    2.3531 H   0  0  0  0  0  0  0  0  0  0  0  0
   -2.2856    1.8749   -0.3738 H   0  0  0  0  0  0  0  0  0  0  0  0
   -0.6420    3.5654    0.3041 H   0  0  0  0  0  0  0  0  0  0  0  0
   -2.2673    4.0134    0.8523 H   0  0  0  0  0  0  0  0  0  0  0  0
   -1.0894    3.3490    2.0089 H   0  0  0  0  0  0  0  0  0  0  0  0
   -1.0011   -0.4911    0.3266 N   0  0  0  0  0  0  0  0  0  0  0  0
   -0.5756   -0.8161   -1.0513 C   0  0  2  0  0  0  0  0  0  0  0  0
   -1.2611   -0.0332   -2.1870 C   0  0  0  0  0  0  0  0  0  0  0  0
   -0.5928    0.3526   -3.1376 O   0  0  0  0  0  0  0  0  0  0  0  0
   -0.8087   -2.3154   -1.3070 C   0  0  2  0  0  0  0  0  0  0  0  0
   -2.1623   -2.6565   -0.9875 O   0  0  0  0  0  0  0  0  0  0  0  0
    0.1180   -3.1803   -0.4527 C   0  0  0  0  0  0  0  0  0  0  0  0
   -1.9550   -0.8262    0.4857 H   0  0  0  0  0  0  0  0  0  0  0  0
    0.4974   -0.6108   -1.1333 H   0  0  0  0  0  0  0  0  0  0  0  0
   -0.6129   -2.5346   -2.3632 H   0  0  0  0  0  0  0  0  0  0  0  0
   -2.3320   -3.5978   -1.1694 H   0  0  0  0  0  0  0  0  0  0  0  0
   -0.0766   -3.0238    0.6128 H   0  0  0  0  0  0  0  0  0  0  0  0
    1.1638   -2.9291   -0.6540 H   0  0  0  0  0  0  0  0  0  0  0  0
   -0.0318   -4.2391   -0.6826 H   0  0  0  0  0  0  0  0  0  0  0  0
   -2.6339    0.1540   -2.1841 N   0  0  0  0  0  0  0  0  0  0  0  0
   -3.4632    0.8064   -3.2169 C   0  0  2  0  0  0  0  0  0  0  0  0
   -3.5421    0.0456   -4.5603 C   0  0  0  0  0  0  0  0  0  0  0  0
   -4.6326   -0.1501   -5.0814 O   0  0  0  0  0  0  0  0  0  0  0  0
   -3.0348    2.2631   -3.4415 C   0  0  0  0  0  0  0  0  0  0  0  0
   -3.1278   -0.2848   -1.3992 H   0  0  0  0  0  0  0  0  0  0  0  0
   -4.4851    0.8321   -2.8248 H   0  0  0  0  0  0  0  0  0  0  0  0
   -2.9925    2.8001   -2.4899 H   0  0  0  0  0  0  0  0  0  0  0  0
   -3.7569    2.7680   -4.0907 H   0  0  0  0  0  0  0  0  0  0  0  0
   -2.0521    2.3195   -3.9183 H   0  0  0  0  0  0  0  0  0  0  0  0
   -2.4020   -0.3969   -5.2010 N   0  0  0  0  0  0  0  0  0  0  0  0
   -2.3999   -1.0960   -6.4781 C   0  0  0  0  0  0  0  0  0  0  0  0
   -1.5139   -0.1790   -4.7418 H   0  0  0  0  0  0  0  0  0  0  0  0
   -2.9323   -2.0489   -6.3926 H   0  0  0  0  0  0  0  0  0  0  0  0
   -2.8845   -0.4881   -7.2494 H   0  0  0  0  0  0  0  0  0  0  0  0
   -1.3723   -1.3001   -6.7940 H   0  0  0  0  0  0  0  0  0  0  0  0
  1  2  2  0  0  0  0
  1  3  1  0  0  0  0
  1  7  1  0  0  0  0
  3  4  1  0  0  0  0
  3  5  1  0  0  0  0
  3  6  1  0  0  0  0
  7  8  1  0  0  0  0
  7 12  1  0  0  0  0
  8  9  1  0  0  0  0
  8 11  1  0  0  0  0
  8 13  1  0  0  0  0
  9 10  2  0  0  0  0
  9 17  1  0  0  0  0
 11 14  1  0  0  0  0
 11 15  1  0  0  0  0
 11 16  1  0  0  0  0
 17 18  1  0  0  0  0
 17 24  1  0  0  0  0
 18 19  1  0  0  0  0
 18 21  1  0  0  0  0
 18 25  1  0  0  0  0
 19 20  2  0  0  0  0
 19 31  1  0  0  0  0
 21 22  1  0  0  0  0
 21 23  1  0  0  0  0
 21 26  1  0  0  0  0
 22 27  1  0  0  0  0
 23 28  1  0  0  0  0
 23 29  1  0  0  0  0
 23 30  1  0  0  0  0
 31 32  1  0  0  0  0
 31 36  1  0  0  0  0
 32 33  1  0  0  0  0
 32 35  1  0  0  0  0
 32 37  1  0  0  0  0
 33 34  2  0  0  0  0
 33 41  1  0  0  0  0
 35 38  1  0  0  0  0
 35 39  1  0  0  0  0
 35 40  1  0  0  0  0
 41 42  1  0  0  0  0
 41 43  1  0  0  0  0
 42 44  1  0  0  0  0
 42 45  1  0  0  0  0
 42 46  1  0  0  0  0
M  END
$$$$

  -OEChem-02062319133D

 46 45  0     1  0  0  0  0  0999 V2000
   -4.0178    0.7017    1.1035 C   0  0  0  0  0  0  0  0  0  0  0  0
   -3.7663    0.3004   -0.0216 O   0  0  0  0  0  0  0  0  0  0  0  0
   -5.2945    0.2719    1.7993 C   0  0  0  0  0  0  0  0  0  0  0  0
   -6.1605    0.5820    1.2088 H   0  0  0  0  0  0  0  0  0  0  0  0
   -5.3078   -0.8158    1.9083 H   0  0  0  0  0  0  0  0  0  0  0  0
   -5.3649    0.7254    2.7910 H   0  0  0  0  0  0  0  0  0  0  0  0
   -3.0955    1.5020    1.7445 N   0  0  0  0  0  0  0  0  0  0  0  0
   -1.8546    1.9963    1.1247 C   0  0  2  0  0  0  0  0  0  0  0  0
   -0.7313    0.9267    1.1074 C   0  0  0  0  0  0  0  0  0  0  0  0
    0.4273    1.2674    1.2998 O   0  0  0  0  0  0  0  0  0  0  0  0
   -1.4525    3.2670    1.8856 C   0  0  0  0  0  0  0  0  0  0  0  0
   -3.3102    1.7909    2.6951 H   0  0  0  0  0  0  0  0  0  0  0  0
   -2.0518    2.2858    0.0882 H   0  0  0  0  0  0  0  0  0  0  0  0
   -0.5774    3.7297    1.4174 H   0  0  0  0  0  0  0  0  0  0  0  0
   -1.2033    3.0311    2.9251 H   0  0  0  0  0  0  0  0  0  0  0  0
   -2.2695    3.9949    1.8753 H   0  0  0  0  0  0  0  0  0  0  0  0
   -0.9120   -0.2665    0.4338 N   0  0  0  0  0  0  0  0  0  0  0  0
   -0.2276   -0.4910   -0.8551 C   0  0  2  0  0  0  0  0  0  0  0  0
   -0.5879    0.5178   -1.9588 C   0  0  0  0  0  0  0  0  0  0  0  0
    0.2432    0.7906   -2.8160 O   0  0  0  0  0  0  0  0  0  0  0  0
   -0.5336   -1.9103   -1.3767 C   0  0  2  0  0  0  0  0  0  0  0  0
   -1.9448   -2.1157   -1.5173 O   0  0  0  0  0  0  0  0  0  0  0  0
   -0.0008   -2.9797   -0.4241 C   0  0  0  0  0  0  0  0  0  0  0  0
   -1.8950   -0.5438    0.3883 H   0  0  0  0  0  0  0  0  0  0  0  0
    0.8530   -0.4121   -0.6930 H   0  0  0  0  0  0  0  0  0  0  0  0
   -0.0496   -2.0473   -2.3506 H   0  0  0  0  0  0  0  0  0  0  0  0
   -2.2450   -1.8624   -2.4266 H   0  0  0  0  0  0  0  0  0  0  0  0
   -0.4990   -2.9197    0.5482 H   0  0  0  0  0  0  0  0  0  0  0  0
    1.0755   -2.8548   -0.2739 H   0  0  0  0  0  0  0  0  0  0  0  0
   -0.1793   -3.9742   -0.8431 H   0  0  0  0  0  0  0  0  0  0  0  0
   -1.9171    0.8602   -2.1582 N   0  0  0  0  0  0  0  0  0  0  0  0
   -2.4926    1.0911   -3.4909 C   0  0  2  0  0  0  0  0  0  0  0  0
   -2.2190   -0.1192   -4.4158 C   0  0  0  0  0  0  0  0  0  0  0  0
   -2.5755   -1.2336   -4.0411 O   0  0  0  0  0  0  0  0  0  0  0  0
   -2.0516    2.4461   -4.0689 C   0  0  0  0  0  0  0  0  0  0  0  0
   -2.5564    0.4448   -1.4723 H   0  0  0  0  0  0  0  0  0  0  0  0
   -3.5797    1.1398   -3.3741 H   0  0  0  0  0  0  0  0  0  0  0  0
   -0.9776    2.4685   -4.2728 H   0  0  0  0  0  0  0  0  0  0  0  0
   -2.5848    2.6487   -5.0028 H   0  0  0  0  0  0  0  0  0  0  0  0
   -2.2823    3.2470   -3.3601 H   0  0  0  0  0  0  0  0  0  0  0  0
   -1.4836    0.0016   -5.5800 N   0  0  0  0  0  0  0  0  0  0  0  0
   -0.9968   -1.1553   -6.3209 C   0  0  0  0  0  0  0  0  0  0  0  0
   -0.9877    0.8818   -5.6932 H   0  0  0  0  0  0  0  0  0  0  0  0
   -0.3086   -1.7430   -5.7041 H   0  0  0  0  0  0  0  0  0  0  0  0
   -1.8311   -1.7952   -6.6265 H   0  0  0  0  0  0  0  0  0  0  0  0
   -0.4661   -0.8301   -7.2207 H   0  0  0  0  0  0  0  0  0  0  0  0
  1  2  2  0  0  0  0
  1  3  1  0  0  0  0
  1  7  1  0  0  0  0
  3  4  1  0  0  0  0
  3  5  1  0  0  0  0
  3  6  1  0  0  0  0
  7  8  1  0  0  0  0
  7 12  1  0  0  0  0
  8  9  1  0  0  0  0
  8 11  1  0  0  0  0
  8 13  1  0  0  0  0
  9 10  2  0  0  0  0
  9 17  1  0  0  0  0
 11 14  1  0  0  0  0
 11 15  1  0  0  0  0
 11 16  1  0  0  0  0
 17 18  1  0  0  0  0
 17 24  1  0  0  0  0
 18 19  1  0  0  0  0
 18 21  1  0  0  0  0
 18 25  1  0  0  0  0
 19 20  2  0  0  0  0
 19 31  1  0  0  0  0
 21 22  1  0  0  0  0
 21 23  1  0  0  0  0
 21 26  1  0  0  0  0
 22 27  1  0  0  0  0
 23 28  1  0  0  0  0
 23 29  1  0  0  0  0
 23 30  1  0  0  0  0
 31 32  1  0  0  0  0
 31 36  1  0  0  0  0
 32 33  1  0  0  0  0
 32 35  1  0  0  0  0
 32 37  1  0  0  0  0
 33 34  2  0  0  0  0
 33 41  1  0  0  0  0
 35 38  1  0  0  0  0
 35 39  1  0  0  0  0
 35 40  1  0  0  0  0
 41 42  1  0  0  0  0
 41 43  1  0  0  0  0
 42 44  1  0  0  0  0
 42 45  1  0  0  0  0
 42 46  1  0  0  0  0
M  END
$$$$

  -OEChem-02062319133D

 46 45  0     1  0  0  0  0  0999 V2000
   -4.7516    1.5491    2.7433 C   0  0  0  0  0  0  0  0  0  0  0  0
   -5.7389    1.0361    2.2404 O   0  0  0  0  0  0  0  0  0  0  0  0
   -4.8842    2.3796    4.0058 C   0  0  0  0  0  0  0  0  0  0  0  0
   -4.5632    3.4061    3.8120 H   0  0  0  0  0  0  0  0  0  0  0  0
   -5.9252    2.3925    4.3411 H   0  0  0  0  0  0  0  0  0  0  0  0
   -4.2646    1.9545    4.7992 H   0  0  0  0  0  0  0  0  0  0  0  0
   -3.5139    1.3725    2.1621 N   0  0  0  0  0  0  0  0  0  0  0  0
   -3.2478    0.4865    1.0207 C   0  0  2  0  0  0  0  0  0  0  0  0
   -1.8395   -0.1530    1.1369 C   0  0  0  0  0  0  0  0  0  0  0  0
   -1.0108    0.4168    1.8368 O   0  0  0  0  0  0  0  0  0  0  0  0
   -3.4581    1.3050   -0.2533 C   0  0  0  0  0  0  0  0  0  0  0  0
   -2.7003    1.7204    2.6702 H   0  0  0  0  0  0  0  0  0  0  0  0
   -3.9684   -0.3386    1.0274 H   0  0  0  0  0  0  0  0  0  0  0  0
   -2.6692    2.0561   -0.3619 H   0  0  0  0  0  0  0  0  0  0  0  0
   -3.4641    0.6499   -1.1270 H   0  0  0  0  0  0  0  0  0  0  0  0
   -4.4228    1.8211   -0.2191 H   0  0  0  0  0  0  0  0  0  0  0  0
   -1.3351   -1.0415    0.2025 N   0  0  0  0  0  0  0  0  0  0  0  0
   -0.0884   -0.7828   -0.5548 C   0  0  2  0  0  0  0  0  0  0  0  0
   -0.0423    0.4727   -1.4435 C   0  0  0  0  0  0  0  0  0  0  0  0
    1.0303    1.0293   -1.6318 O   0  0  0  0  0  0  0  0  0  0  0  0
    0.1817   -1.9932   -1.4711 C   0  0  2  0  0  0  0  0  0  0  0  0
   -0.9368   -2.2066   -2.3438 O   0  0  0  0  0  0  0  0  0  0  0  0
    0.4146   -3.2745   -0.6702 C   0  0  0  0  0  0  0  0  0  0  0  0
   -2.0355   -1.5573   -0.3265 H   0  0  0  0  0  0  0  0  0  0  0  0
    0.7368   -0.6921    0.1600 H   0  0  0  0  0  0  0  0  0  0  0  0
    1.0795   -1.8006   -2.0703 H   0  0  0  0  0  0  0  0  0  0  0  0
   -0.7518   -1.7943   -3.2274 H   0  0  0  0  0  0  0  0  0  0  0  0
   -0.4760   -3.5490   -0.0975 H   0  0  0  0  0  0  0  0  0  0  0  0
    1.2497   -3.1425    0.0243 H   0  0  0  0  0  0  0  0  0  0  0  0
    0.6562   -4.0986   -1.3482 H   0  0  0  0  0  0  0  0  0  0  0  0
   -1.1260    0.7652   -2.2553 N   0  0  0  0  0  0  0  0  0  0  0  0
   -1.0136    1.4164   -3.5723 C   0  0  2  0  0  0  0  0  0  0  0  0
   -0.2175    0.5299   -4.5615 C   0  0  0  0  0  0  0  0  0  0  0  0
   -0.3867   -0.6879   -4.5278 O   0  0  0  0  0  0  0  0  0  0  0  0
   -0.4941    2.8609   -3.4644 C   0  0  0  0  0  0  0  0  0  0  0  0
   -1.8554    0.0606   -2.1828 H   0  0  0  0  0  0  0  0  0  0  0  0
   -2.0254    1.4876   -3.9820 H   0  0  0  0  0  0  0  0  0  0  0  0
    0.5773    2.8876   -3.2463 H   0  0  0  0  0  0  0  0  0  0  0  0
   -0.6646    3.3959   -4.4035 H   0  0  0  0  0  0  0  0  0  0  0  0
   -1.0221    3.3917   -2.6661 H   0  0  0  0  0  0  0  0  0  0  0  0
    0.6358    1.0674   -5.5073 N   0  0  0  0  0  0  0  0  0  0  0  0
    1.4576    0.2493   -6.3914 C   0  0  0  0  0  0  0  0  0  0  0  0
    0.8526    2.0563   -5.4200 H   0  0  0  0  0  0  0  0  0  0  0  0
    2.1858   -0.3276   -5.8116 H   0  0  0  0  0  0  0  0  0  0  0  0
    0.8337   -0.4448   -6.9646 H   0  0  0  0  0  0  0  0  0  0  0  0
    2.0008    0.8843   -7.0981 H   0  0  0  0  0  0  0  0  0  0  0  0
  1  2  2  0  0  0  0
  1  3  1  0  0  0  0
  1  7  1  0  0  0  0
  3  4  1  0  0  0  0
  3  5  1  0  0  0  0
  3  6  1  0  0  0  0
  7  8  1  0  0  0  0
  7 12  1  0  0  0  0
  8  9  1  0  0  0  0
  8 11  1  0  0  0  0
  8 13  1  0  0  0  0
  9 10  2  0  0  0  0
  9 17  1  0  0  0  0
 11 14  1  0  0  0  0
 11 15  1  0  0  0  0
 11 16  1  0  0  0  0
 17 18  1  0  0  0  0
 17 24  1  0  0  0  0
 18 19  1  0  0  0  0
 18 21  1  0  0  0  0
 18 25  1  0  0  0  0
 19 20  2  0  0  0  0
 19 31  1  0  0  0  0
 21 22  1  0  0  0  0
 21 23  1  0  0  0  0
 21 26  1  0  0  0  0
 22 27  1  0  0  0  0
 23 28  1  0  0  0  0
 23 29  1  0  0  0  0
 23 30  1  0  0  0  0
 31 32  1  0  0  0  0
 31 36  1  0  0  0  0
 32 33  1  0  0  0  0
 32 35  1  0  0  0  0
 32 37  1  0  0  0  0
 33 34  2  0  0  0  0
 33 41  1  0  0  0  0
 35 38  1  0  0  0  0
 35 39  1  0  0  0  0
 35 40  1  0  0  0  0
 41 42  1  0  0  0  0
 41 43  1  0  0  0  0
 42 44  1  0  0  0  0
 42 45  1  0  0  0  0
 42 46  1  0  0  0  0
M  END
$$$$

  -OEChem-02062319133D

 46 45  0     1  0  0  0  0  0999 V2000
   -4.8228    1.6246    2.4062 C   0  0  0  0  0  0  0  0  0  0  0  0
   -5.7863    1.0746    1.8962 O   0  0  0  0  0  0  0  0  0  0  0  0
   -5.0171    2.6029    3.5492 C   0  0  0  0  0  0  0  0  0  0  0  0
   -4.5875    3.5729    3.2870 H   0  0  0  0  0  0  0  0  0  0  0  0
   -6.0828    2.7344    3.7564 H   0  0  0  0  0  0  0  0  0  0  0  0
   -4.5259    2.2267    4.4499 H   0  0  0  0  0  0  0  0  0  0  0  0
   -3.5522    1.3568    1.9436 N   0  0  0  0  0  0  0  0  0  0  0  0
   -3.2274    0.3433    0.9318 C   0  0  2  0  0  0  0  0  0  0  0  0
   -1.7976   -0.2133    1.1341 C   0  0  0  0  0  0  0  0  0  0  0  0
   -1.0425    0.3530    1.9156 O   0  0  0  0  0  0  0  0  0  0  0  0
   -3.4113    0.9772   -0.4520 C   0  0  0  0  0  0  0  0  0  0  0  0
   -2.7691    1.7417    2.4722 H   0  0  0  0  0  0  0  0  0  0  0  0
   -3.9164   -0.5028    1.0305 H   0  0  0  0  0  0  0  0  0  0  0  0
   -2.7231    1.8187   -0.5810 H   0  0  0  0  0  0  0  0  0  0  0  0
   -3.2290    0.2428   -1.2414 H   0  0  0  0  0  0  0  0  0  0  0  0
   -4.4350    1.3483   -0.5659 H   0  0  0  0  0  0  0  0  0  0  0  0
   -1.2375   -1.0858    0.2198 N   0  0  0  0  0  0  0  0  0  0  0  0
    0.1512   -0.9444   -0.2641 C   0  0  2  0  0  0  0  0  0  0  0  0
    0.4537    0.3844   -0.9794 C   0  0  0  0  0  0  0  0  0  0  0  0
    1.5915    0.8324   -0.9482 O   0  0  0  0  0  0  0  0  0  0  0  0
    0.4552   -2.0910   -1.2484 C   0  0  2  0  0  0  0  0  0  0  0  0
   -0.4999   -2.0896   -2.3188 O   0  0  0  0  0  0  0  0  0  0  0  0
    0.3978   -3.4551   -0.5606 C   0  0  0  0  0  0  0  0  0  0  0  0
   -1.8802   -1.5281   -0.4342 H   0  0  0  0  0  0  0  0  0  0  0  0
    0.8350   -1.0164    0.5888 H   0  0  0  0  0  0  0  0  0  0  0  0
    1.4628   -1.9572   -1.6588 H   0  0  0  0  0  0  0  0  0  0  0  0
   -0.1256   -1.6046   -3.0999 H   0  0  0  0  0  0  0  0  0  0  0  0
   -0.6066   -3.6634   -0.1807 H   0  0  0  0  0  0  0  0  0  0  0  0
    1.1017   -3.4882    0.2763 H   0  0  0  0  0  0  0  0  0  0  0  0
    0.6681   -4.2426   -1.2703 H   0  0  0  0  0  0  0  0  0  0  0  0
   -0.4543    0.8615   -1.9127 N   0  0  0  0  0  0  0  0  0  0  0  0
   -0.0689    1.6180   -3.1164 C   0  0  2  0  0  0  0  0  0  0  0  0
    0.8262    0.7587   -4.0427 C   0  0  0  0  0  0  0  0  0  0  0  0
    0.5436   -0.4282   -4.1979 O   0  0  0  0  0  0  0  0  0  0  0  0
    0.5229    2.9956   -2.7683 C   0  0  0  0  0  0  0  0  0  0  0  0
   -1.2486    0.2375   -2.0259 H   0  0  0  0  0  0  0  0  0  0  0  0
   -0.9847    1.8143   -3.6823 H   0  0  0  0  0  0  0  0  0  0  0  0
    1.5288    2.9078   -2.3480 H   0  0  0  0  0  0  0  0  0  0  0  0
    0.5804    3.6202   -3.6647 H   0  0  0  0  0  0  0  0  0  0  0  0
   -0.1128    3.5040   -2.0367 H   0  0  0  0  0  0  0  0  0  0  0  0
    1.9086    1.2918   -4.7171 N   0  0  0  0  0  0  0  0  0  0  0  0
    2.8285    0.4816   -5.5063 C   0  0  0  0  0  0  0  0  0  0  0  0
    2.2001    2.2253   -4.4413 H   0  0  0  0  0  0  0  0  0  0  0  0
    3.3638   -0.2249   -4.8631 H   0  0  0  0  0  0  0  0  0  0  0  0
    2.2854   -0.0808   -6.2734 H   0  0  0  0  0  0  0  0  0  0  0  0
    3.5621    1.1214   -6.0065 H   0  0  0  0  0  0  0  0  0  0  0  0
  1  2  2  0  0  0  0
  1  3  1  0  0  0  0
  1  7  1  0  0  0  0
  3  4  1  0  0  0  0
  3  5  1  0  0  0  0
  3  6  1  0  0  0  0
  7  8  1  0  0  0  0
  7 12  1  0  0  0  0
  8  9  1  0  0  0  0
  8 11  1  0  0  0  0
  8 13  1  0  0  0  0
  9 10  2  0  0  0  0
  9 17  1  0  0  0  0
 11 14  1  0  0  0  0
 11 15  1  0  0  0  0
 11 16  1  0  0  0  0
 17 18  1  0  0  0  0
 17 24  1  0  0  0  0
 18 19  1  0  0  0  0
 18 21  1  0  0  0  0
 18 25  1  0  0  0  0
 19 20  2  0  0  0  0
 19 31  1  0  0  0  0
 21 22  1  0  0  0  0
 21 23  1  0  0  0  0
 21 26  1  0  0  0  0
 22 27  1  0  0  0  0
 23 28  1  0  0  0  0
 23 29  1  0  0  0  0
 23 30  1  0  0  0  0
 31 32  1  0  0  0  0
 31 36  1  0  0  0  0
 32 33  1  0  0  0  0
 32 35  1  0  0  0  0
 32 37  1  0  0  0  0
 33 34  2  0  0  0  0
 33 41  1  0  0  0  0
 35 38  1  0  0  0  0
 35 39  1  0  0  0  0
 35 40  1  0  0  0  0
 41 42  1  0  0  0  0
 41 43  1  0  0  0  0
 42 44  1  0  0  0  0
 42 45  1  0  0  0  0
 42 46  1  0  0  0  0
M  END
$$$$

  -OEChem-02062319133D

 46 45  0     1  0  0  0  0  0999 V2000
   -4.9049    1.6046    2.2327 C   0  0  0  0  0  0  0  0  0  0  0  0
   -5.8276    1.0519    1.6550 O   0  0  0  0  0  0  0  0  0  0  0  0
   -5.1822    2.5650    3.3743 C   0  0  0  0  0  0  0  0  0  0  0  0
   -4.7258    3.5356    3.1648 H   0  0  0  0  0  0  0  0  0  0  0  0
   -6.2599    2.7029    3.4986 H   0  0  0  0  0  0  0  0  0  0  0  0
   -4.7674    2.1692    4.3046 H   0  0  0  0  0  0  0  0  0  0  0  0
   -3.6050    1.3555    1.8477 N   0  0  0  0  0  0  0  0  0  0  0  0
   -3.2084    0.3580    0.8458 C   0  0  2  0  0  0  0  0  0  0  0  0
   -1.7739   -0.1537    1.1039 C   0  0  0  0  0  0  0  0  0  0  0  0
   -1.0806    0.3793    1.9620 O   0  0  0  0  0  0  0  0  0  0  0  0
   -3.3222    0.9969   -0.5446 C   0  0  0  0  0  0  0  0  0  0  0  0
   -2.8612    1.7348    2.4339 H   0  0  0  0  0  0  0  0  0  0  0  0
   -3.8793   -0.5062    0.9032 H   0  0  0  0  0  0  0  0  0  0  0  0
   -2.6335    1.8432   -0.6336 H   0  0  0  0  0  0  0  0  0  0  0  0
   -3.0879    0.2686   -1.3263 H   0  0  0  0  0  0  0  0  0  0  0  0
   -4.3411    1.3597   -0.7135 H   0  0  0  0  0  0  0  0  0  0  0  0
   -1.1734   -1.0356    0.2263 N   0  0  0  0  0  0  0  0  0  0  0  0
    0.2839   -1.0862    0.0034 C   0  0  2  0  0  0  0  0  0  0  0  0
    0.8685    0.2373   -0.5221 C   0  0  0  0  0  0  0  0  0  0  0  0
    2.0378    0.5108   -0.2853 O   0  0  0  0  0  0  0  0  0  0  0  0
    0.6042   -2.1987   -1.0140 C   0  0  2  0  0  0  0  0  0  0  0  0
   -0.1362   -1.9926   -2.2250 O   0  0  0  0  0  0  0  0  0  0  0  0
    0.2407   -3.5800   -0.4695 C   0  0  0  0  0  0  0  0  0  0  0  0
   -1.7540   -1.4218   -0.5158 H   0  0  0  0  0  0  0  0  0  0  0  0
    0.7862   -1.3121    0.9501 H   0  0  0  0  0  0  0  0  0  0  0  0
    1.6779   -2.1879   -1.2361 H   0  0  0  0  0  0  0  0  0  0  0  0
    0.4243   -1.5021   -2.8812 H   0  0  0  0  0  0  0  0  0  0  0  0
   -0.8356   -3.6624   -0.2930 H   0  0  0  0  0  0  0  0  0  0  0  0
    0.7650   -3.7691    0.4719 H   0  0  0  0  0  0  0  0  0  0  0  0
    0.5326   -4.3512   -1.1885 H   0  0  0  0  0  0  0  0  0  0  0  0
    0.1946    0.8949   -1.5414 N   0  0  0  0  0  0  0  0  0  0  0  0
    0.8692    1.6577   -2.6045 C   0  0  2  0  0  0  0  0  0  0  0  0
    1.8207    0.7433   -3.4136 C   0  0  0  0  0  0  0  0  0  0  0  0
    1.4162   -0.3665   -3.7561 O   0  0  0  0  0  0  0  0  0  0  0  0
    1.5292    2.9365   -2.0596 C   0  0  0  0  0  0  0  0  0  0  0  0
   -0.6511    0.4048   -1.8204 H   0  0  0  0  0  0  0  0  0  0  0  0
    0.0987    1.9864   -3.3085 H   0  0  0  0  0  0  0  0  0  0  0  0
    2.4068    2.7087   -1.4483 H   0  0  0  0  0  0  0  0  0  0  0  0
    1.8446    3.5808   -2.8858 H   0  0  0  0  0  0  0  0  0  0  0  0
    0.8162    3.4928   -1.4435 H   0  0  0  0  0  0  0  0  0  0  0  0
    3.1027    1.1331   -3.7522 N   0  0  0  0  0  0  0  0  0  0  0  0
    4.0590    0.2361   -4.3883 C   0  0  0  0  0  0  0  0  0  0  0  0
    3.4556    1.9685   -3.2936 H   0  0  0  0  0  0  0  0  0  0  0  0
    4.2708   -0.6202   -3.7392 H   0  0  0  0  0  0  0  0  0  0  0  0
    3.6655   -0.1320   -5.3418 H   0  0  0  0  0  0  0  0  0  0  0  0
    4.9972    0.7637   -4.5853 H   0  0  0  0  0  0  0  0  0  0  0  0
  1  2  2  0  0  0  0
  1  3  1  0  0  0  0
  1  7  1  0  0  0  0
  3  4  1  0  0  0  0
  3  5  1  0  0  0  0
  3  6  1  0  0  0  0
  7  8  1  0  0  0  0
  7 12  1  0  0  0  0
  8  9  1  0  0  0  0
  8 11  1  0  0  0  0
  8 13  1  0  0  0  0
  9 10  2  0  0  0  0
  9 17  1  0  0  0  0
 11 14  1  0  0  0  0
 11 15  1  0  0  0  0
 11 16  1  0  0  0  0
 17 18  1  0  0  0  0
 17 24  1  0  0  0  0
 18 19  1  0  0  0  0
 18 21  1  0  0  0  0
 18 25  1  0  0  0  0
 19 20  2  0  0  0  0
 19 31  1  0  0  0  0
 21 22  1  0  0  0  0
 21 23  1  0  0  0  0
 21 26  1  0  0  0  0
 22 27  1  0  0  0  0
 23 28  1  0  0  0  0
 23 29  1  0  0  0  0
 23 30  1  0  0  0  0
 31 32  1  0  0  0  0
 31 36  1  0  0  0  0
 32 33  1  0  0  0  0
 32 35  1  0  0  0  0
 32 37  1  0  0  0  0
 33 34  2  0  0  0  0
 33 41  1  0  0  0  0
 35 38  1  0  0  0  0
 35 39  1  0  0  0  0
 35 40  1  0  0  0  0
 41 42  1  0  0  0  0
 41 43  1  0  0  0  0
 42 44  1  0  0  0  0
 42 45  1  0  0  0  0
 42 46  1  0  0  0  0
M  END
$$$$

  -OEChem-02062319133D

 46 45  0     1  0  0  0  0  0999 V2000
   -5.0195    1.5468    2.1006 C   0  0  0  0  0  0  0  0  0  0  0  0
   -5.8938    0.9797    1.4647 O   0  0  0  0  0  0  0  0  0  0  0  0
   -5.3842    2.4449    3.2680 C   0  0  0  0  0  0  0  0  0  0  0  0
   -4.9805    3.4477    3.1083 H   0  0  0  0  0  0  0  0  0  0  0  0
   -6.4713    2.5149    3.3651 H   0  0  0  0  0  0  0  0  0  0  0  0
   -4.9727    2.0377    4.1947 H   0  0  0  0  0  0  0  0  0  0  0  0
   -3.6953    1.3690    1.7605 N   0  0  0  0  0  0  0  0  0  0  0  0
   -3.2173    0.4147    0.7517 C   0  0  2  0  0  0  0  0  0  0  0  0
   -1.7806   -0.0576    1.0626 C   0  0  0  0  0  0  0  0  0  0  0  0
   -1.1579    0.4322    1.9969 O   0  0  0  0  0  0  0  0  0  0  0  0
   -3.2868    1.0856   -0.6259 C   0  0  0  0  0  0  0  0  0  0  0  0
   -2.9946    1.7488    2.3973 H   0  0  0  0  0  0  0  0  0  0  0  0
   -3.8594   -0.4730    0.7537 H   0  0  0  0  0  0  0  0  0  0  0  0
   -2.6313    1.9617   -0.6588 H   0  0  0  0  0  0  0  0  0  0  0  0
   -2.9815    0.3888   -1.4121 H   0  0  0  0  0  0  0  0  0  0  0  0
   -4.3108    1.4095   -0.8380 H   0  0  0  0  0  0  0  0  0  0  0  0
   -1.1341   -0.9492    0.2292 N   0  0  0  0  0  0  0  0  0  0  0  0
    0.3169   -1.2104    0.2623 C   0  0  2  0  0  0  0  0  0  0  0  0
    1.1758    0.0359   -0.0143 C   0  0  0  0  0  0  0  0  0  0  0  0
    2.3143    0.0853    0.4338 O   0  0  0  0  0  0  0  0  0  0  0  0
    0.6657   -2.2904   -0.7806 C   0  0  2  0  0  0  0  0  0  0  0  0
    0.1850   -1.9076   -2.0762 O   0  0  0  0  0  0  0  0  0  0  0  0
    0.0354   -3.6366   -0.4242 C   0  0  0  0  0  0  0  0  0  0  0  0
   -1.6452   -1.2993   -0.5791 H   0  0  0  0  0  0  0  0  0  0  0  0
    0.5908   -1.5744    1.2582 H   0  0  0  0  0  0  0  0  0  0  0  0
    1.7537   -2.4202   -0.8184 H   0  0  0  0  0  0  0  0  0  0  0  0
    0.9094   -1.4563   -2.5830 H   0  0  0  0  0  0  0  0  0  0  0  0
   -1.0565   -3.5715   -0.4207 H   0  0  0  0  0  0  0  0  0  0  0  0
    0.3699   -3.9635    0.5649 H   0  0  0  0  0  0  0  0  0  0  0  0
    0.3338   -4.3925   -1.1569 H   0  0  0  0  0  0  0  0  0  0  0  0
    0.8094    0.8646   -1.0647 N   0  0  0  0  0  0  0  0  0  0  0  0
    1.7805    1.5521   -1.9311 C   0  0  2  0  0  0  0  0  0  0  0  0
    2.7161    0.5305   -2.6228 C   0  0  0  0  0  0  0  0  0  0  0  0
    2.2098   -0.4511   -3.1634 O   0  0  0  0  0  0  0  0  0  0  0  0
    2.5143    2.6764   -1.1794 C   0  0  0  0  0  0  0  0  0  0  0  0
   -0.0526    0.5643   -1.5121 H   0  0  0  0  0  0  0  0  0  0  0  0
    1.2169    2.0356   -2.7346 H   0  0  0  0  0  0  0  0  0  0  0  0
    3.1979    2.2788   -0.4241 H   0  0  0  0  0  0  0  0  0  0  0  0
    3.0936    3.2836   -1.8814 H   0  0  0  0  0  0  0  0  0  0  0  0
    1.7908    3.3267   -0.6778 H   0  0  0  0  0  0  0  0  0  0  0  0
    4.0914    0.6720   -2.6206 N   0  0  0  0  0  0  0  0  0  0  0  0
    4.9928   -0.3650   -3.1078 C   0  0  0  0  0  0  0  0  0  0  0  0
    4.4668    1.3779   -1.9931 H   0  0  0  0  0  0  0  0  0  0  0  0
    4.9208   -1.2597   -2.4803 H   0  0  0  0  0  0  0  0  0  0  0  0
    4.7467   -0.6366   -4.1399 H   0  0  0  0  0  0  0  0  0  0  0  0
    6.0265   -0.0066   -3.0858 H   0  0  0  0  0  0  0  0  0  0  0  0
  1  2  2  0  0  0  0
  1  3  1  0  0  0  0
  1  7  1  0  0  0  0
  3  4  1  0  0  0  0
  3  5  1  0  0  0  0
  3  6  1  0  0  0  0
  7  8  1  0  0  0  0
  7 12  1  0  0  0  0
  8  9  1  0  0  0  0
  8 11  1  0  0  0  0
  8 13  1  0  0  0  0
  9 10  2  0  0  0  0
  9 17  1  0  0  0  0
 11 14  1  0  0  0  0
 11 15  1  0  0  0  0
 11 16  1  0  0  0  0
 17 18  1  0  0  0  0
 17 24  1  0  0  0  0
 18 19  1  0  0  0  0
 18 21  1  0  0  0  0
 18 25  1  0  0  0  0
 19 20  2  0  0  0  0
 19 31  1  0  0  0  0
 21 22  1  0  0  0  0
 21 23  1  0  0  0  0
 21 26  1  0  0  0  0
 22 27  1  0  0  0  0
 23 28  1  0  0  0  0
 23 29  1  0  0  0  0
 23 30  1  0  0  0  0
 31 32  1  0  0  0  0
 31 36  1  0  0  0  0
 32 33  1  0  0  0  0
 32 35  1  0  0  0  0
 32 37  1  0  0  0  0
 33 34  2  0  0  0  0
 33 41  1  0  0  0  0
 35 38  1  0  0  0  0
 35 39  1  0  0  0  0
 35 40  1  0  0  0  0
 41 42  1  0  0  0  0
 41 43  1  0  0  0  0
 42 44  1  0  0  0  0
 42 45  1  0  0  0  0
 42 46  1  0  0  0  0
M  END
$$$$
