
  -OEChem-05262214473D

 46 45  0     1  0  0  0  0  0999 V2000
   -4.6700    2.7214    1.5150 C   0  0  0  0  0  0  0  0  0  0  0  0
   -5.4532    2.5715    0.5845 O   0  0  0  0  0  0  0  0  0  0  0  0
   -5.0996    3.4865    2.7226 C   0  0  0  0  0  0  0  0  0  0  0  0
   -4.8796    4.5629    2.6387 H   0  0  0  0  0  0  0  0  0  0  0  0
   -6.1861    3.4241    2.8954 H   0  0  0  0  0  0  0  0  0  0  0  0
   -4.6369    3.1693    3.6708 H   0  0  0  0  0  0  0  0  0  0  0  0
   -3.3731    2.2391    1.5790 N   0  0  0  0  0  0  0  0  0  0  0  0
   -2.7599    1.4751    0.5247 C   0  0  2  0  0  0  0  0  0  0  0  0
   -1.5143    0.8067    1.0915 C   0  0  0  0  0  0  0  0  0  0  0  0
   -0.9247    1.2213    2.0872 O   0  0  0  0  0  0  0  0  0  0  0  0
   -2.4106    2.3553   -0.6653 C   0  0  0  0  0  0  0  0  0  0  0  0
   -2.8254    2.4352    2.4150 H   0  0  0  0  0  0  0  0  0  0  0  0
   -3.4836    0.7082    0.2278 H   0  0  0  0  0  0  0  0  0  0  0  0
   -1.6866    3.1298   -0.3871 H   0  0  0  0  0  0  0  0  0  0  0  0
   -1.9704    1.7677   -1.4777 H   0  0  0  0  0  0  0  0  0  0  0  0
   -3.3030    2.8584   -1.0531 H   0  0  0  0  0  0  0  0  0  0  0  0
   -1.1107   -0.2839    0.3303 N   0  0  0  0  0  0  0  0  0  0  0  0
    0.0490   -1.0750    0.6539 C   0  0  2  0  0  0  0  0  0  0  0  0
    0.1678   -2.1712   -0.4010 C   0  0  0  0  0  0  0  0  0  0  0  0
   -0.6469   -2.3179   -1.3099 O   0  0  0  0  0  0  0  0  0  0  0  0
   -0.0071   -1.6602    2.0726 C   0  0  2  0  0  0  0  0  0  0  0  0
   -1.1343   -2.5226    2.2186 O   0  0  0  0  0  0  0  0  0  0  0  0
   -0.1084   -0.5768    3.1395 C   0  0  0  0  0  0  0  0  0  0  0  0
   -1.6733   -0.5660   -0.4691 H   0  0  0  0  0  0  0  0  0  0  0  0
    0.9153   -0.4092    0.5582 H   0  0  0  0  0  0  0  0  0  0  0  0
    0.8887   -2.2596    2.2721 H   0  0  0  0  0  0  0  0  0  0  0  0
   -1.0822   -2.8937    3.1126 H   0  0  0  0  0  0  0  0  0  0  0  0
   -0.9906    0.0542    2.9866 H   0  0  0  0  0  0  0  0  0  0  0  0
    0.7830    0.0576    3.1480 H   0  0  0  0  0  0  0  0  0  0  0  0
   -0.2207   -1.0309    4.1302 H   0  0  0  0  0  0  0  0  0  0  0  0
    1.2621   -2.9951   -0.1786 N   0  0  0  0  0  0  0  0  0  0  0  0
    1.5684   -4.1254   -1.0235 C   0  0  2  0  0  0  0  0  0  0  0  0
    2.2373   -3.6005   -2.2870 C   0  0  0  0  0  0  0  0  0  0  0  0
    2.1034   -2.4458   -2.6867 O   0  0  0  0  0  0  0  0  0  0  0  0
    0.3160   -4.9192   -1.3612 C   0  0  0  0  0  0  0  0  0  0  0  0
    1.8714   -2.7953    0.6093 H   0  0  0  0  0  0  0  0  0  0  0  0
    2.2750   -4.7525   -0.4690 H   0  0  0  0  0  0  0  0  0  0  0  0
   -0.4039   -4.3074   -1.9169 H   0  0  0  0  0  0  0  0  0  0  0  0
    0.5538   -5.7920   -1.9782 H   0  0  0  0  0  0  0  0  0  0  0  0
   -0.1802   -5.2707   -0.4501 H   0  0  0  0  0  0  0  0  0  0  0  0
    2.9665   -4.5850   -2.9390 N   0  0  0  0  0  0  0  0  0  0  0  0
    3.6834   -4.3389   -4.1685 C   0  0  0  0  0  0  0  0  0  0  0  0
    3.0382   -5.5101   -2.5256 H   0  0  0  0  0  0  0  0  0  0  0  0
    3.0381   -4.5836   -5.0251 H   0  0  0  0  0  0  0  0  0  0  0  0
    3.9723   -3.2787   -4.2183 H   0  0  0  0  0  0  0  0  0  0  0  0
    4.5861   -4.9668   -4.1984 H   0  0  0  0  0  0  0  0  0  0  0  0
  1  3  1  0  0  0  0
  1  7  1  0  0  0  0
  1  2  2  0  0  0  0
 32 33  1  0  0  0  0
 33 41  1  0  0  0  0
 33 34  2  0  0  0  0
  8  9  1  0  0  0  0
  9 17  1  0  0  0  0
  9 10  2  0  0  0  0
 18 19  1  0  0  0  0
 19 31  1  0  0  0  0
 19 20  2  0  0  0  0
 32 35  1  0  0  0  0
  8 11  1  0  0  0  0
 21 23  1  0  0  0  0
 41 42  1  0  0  0  0
 31 32  1  0  0  0  0
  7  8  1  0  0  0  0
 18 21  1  0  0  0  0
 17 18  1  0  0  0  0
 21 22  1  0  0  0  0
  3  4  1  0  0  0  0
  3  5  1  0  0  0  0
  3  6  1  0  0  0  0
 35 38  1  0  0  0  0
 35 39  1  0  0  0  0
 35 40  1  0  0  0  0
 11 14  1  0  0  0  0
 11 15  1  0  0  0  0
 11 16  1  0  0  0  0
 23 28  1  0  0  0  0
 23 29  1  0  0  0  0
 23 30  1  0  0  0  0
 42 44  1  0  0  0  0
 42 45  1  0  0  0  0
 42 46  1  0  0  0  0
 32 37  1  0  0  0  0
  8 13  1  0  0  0  0
 18 25  1  0  0  0  0
 21 26  1  0  0  0  0
 41 43  1  0  0  0  0
  7 12  1  0  0  0  0
 31 36  1  0  0  0  0
 17 24  1  0  0  0  0
 22 27  1  0  0  0  0
M  END
$$$$

  -OEChem-05262214473D

 46 45  0     1  0  0  0  0  0999 V2000
   -4.6700    2.7214    1.5150 C   0  0  0  0  0  0  0  0  0  0  0  0
   -5.4532    2.5715    0.5845 O   0  0  0  0  0  0  0  0  0  0  0  0
   -5.0996    3.4865    2.7226 C   0  0  0  0  0  0  0  0  0  0  0  0
   -4.8796    4.5629    2.6387 H   0  0  0  0  0  0  0  0  0  0  0  0
   -6.1861    3.4241    2.8954 H   0  0  0  0  0  0  0  0  0  0  0  0
   -4.6369    3.1693    3.6708 H   0  0  0  0  0  0  0  0  0  0  0  0
   -3.3731    2.2391    1.5790 N   0  0  0  0  0  0  0  0  0  0  0  0
   -2.7599    1.4751    0.5247 C   0  0  2  0  0  0  0  0  0  0  0  0
   -1.5143    0.8067    1.0915 C   0  0  0  0  0  0  0  0  0  0  0  0
   -0.9247    1.2213    2.0872 O   0  0  0  0  0  0  0  0  0  0  0  0
   -2.4106    2.3553   -0.6653 C   0  0  0  0  0  0  0  0  0  0  0  0
   -2.8254    2.4352    2.4150 H   0  0  0  0  0  0  0  0  0  0  0  0
   -3.4836    0.7082    0.2278 H   0  0  0  0  0  0  0  0  0  0  0  0
   -1.6866    3.1298   -0.3871 H   0  0  0  0  0  0  0  0  0  0  0  0
   -1.9704    1.7677   -1.4777 H   0  0  0  0  0  0  0  0  0  0  0  0
   -3.3030    2.8584   -1.0531 H   0  0  0  0  0  0  0  0  0  0  0  0
   -1.1107   -0.2839    0.3303 N   0  0  0  0  0  0  0  0  0  0  0  0
    0.0490   -1.0750    0.6539 C   0  0  2  0  0  0  0  0  0  0  0  0
    0.1678   -2.1712   -0.4010 C   0  0  0  0  0  0  0  0  0  0  0  0
   -0.4746   -2.1653   -1.4491 O   0  0  0  0  0  0  0  0  0  0  0  0
   -0.0071   -1.6602    2.0726 C   0  0  2  0  0  0  0  0  0  0  0  0
   -1.1343   -2.5226    2.2186 O   0  0  0  0  0  0  0  0  0  0  0  0
   -0.1084   -0.5768    3.1395 C   0  0  0  0  0  0  0  0  0  0  0  0
   -1.6733   -0.5660   -0.4691 H   0  0  0  0  0  0  0  0  0  0  0  0
    0.9153   -0.4092    0.5582 H   0  0  0  0  0  0  0  0  0  0  0  0
    0.8887   -2.2596    2.2721 H   0  0  0  0  0  0  0  0  0  0  0  0
   -1.0822   -2.8937    3.1126 H   0  0  0  0  0  0  0  0  0  0  0  0
   -0.9906    0.0542    2.9866 H   0  0  0  0  0  0  0  0  0  0  0  0
    0.7830    0.0576    3.1480 H   0  0  0  0  0  0  0  0  0  0  0  0
   -0.2207   -1.0309    4.1302 H   0  0  0  0  0  0  0  0  0  0  0  0
    1.0374   -3.1801   -0.0116 N   0  0  0  0  0  0  0  0  0  0  0  0
    1.2919   -4.3444   -0.8270 C   0  0  2  0  0  0  0  0  0  0  0  0
    2.2684   -3.9450   -1.9254 C   0  0  0  0  0  0  0  0  0  0  0  0
    2.4185   -2.7839   -2.2999 O   0  0  0  0  0  0  0  0  0  0  0  0
    0.0048   -4.8976   -1.4187 C   0  0  0  0  0  0  0  0  0  0  0  0
    1.5136   -3.0963    0.8818 H   0  0  0  0  0  0  0  0  0  0  0  0
    1.7595   -5.0907   -0.1755 H   0  0  0  0  0  0  0  0  0  0  0  0
   -0.4780   -4.1639   -2.0744 H   0  0  0  0  0  0  0  0  0  0  0  0
    0.1959   -5.7970   -2.0133 H   0  0  0  0  0  0  0  0  0  0  0  0
   -0.7078   -5.1565   -0.6281 H   0  0  0  0  0  0  0  0  0  0  0  0
    2.9210   -5.0431   -2.4681 N   0  0  0  0  0  0  0  0  0  0  0  0
    3.8880   -4.9267   -3.5346 C   0  0  0  0  0  0  0  0  0  0  0  0
    2.7489   -5.9672   -2.0832 H   0  0  0  0  0  0  0  0  0  0  0  0
    3.3821   -5.0479   -4.5038 H   0  0  0  0  0  0  0  0  0  0  0  0
    4.3642   -3.9361   -3.4910 H   0  0  0  0  0  0  0  0  0  0  0  0
    4.6546   -5.7074   -3.4211 H   0  0  0  0  0  0  0  0  0  0  0  0
  1  3  1  0  0  0  0
  1  7  1  0  0  0  0
  1  2  2  0  0  0  0
 32 33  1  0  0  0  0
 33 41  1  0  0  0  0
 33 34  2  0  0  0  0
  8  9  1  0  0  0  0
  9 17  1  0  0  0  0
  9 10  2  0  0  0  0
 18 19  1  0  0  0  0
 19 31  1  0  0  0  0
 19 20  2  0  0  0  0
 32 35  1  0  0  0  0
  8 11  1  0  0  0  0
 21 23  1  0  0  0  0
 41 42  1  0  0  0  0
 31 32  1  0  0  0  0
  7  8  1  0  0  0  0
 18 21  1  0  0  0  0
 17 18  1  0  0  0  0
 21 22  1  0  0  0  0
  3  4  1  0  0  0  0
  3  5  1  0  0  0  0
  3  6  1  0  0  0  0
 35 38  1  0  0  0  0
 35 39  1  0  0  0  0
 35 40  1  0  0  0  0
 11 14  1  0  0  0  0
 11 15  1  0  0  0  0
 11 16  1  0  0  0  0
 23 28  1  0  0  0  0
 23 29  1  0  0  0  0
 23 30  1  0  0  0  0
 42 44  1  0  0  0  0
 42 45  1  0  0  0  0
 42 46  1  0  0  0  0
 32 37  1  0  0  0  0
  8 13  1  0  0  0  0
 18 25  1  0  0  0  0
 21 26  1  0  0  0  0
 41 43  1  0  0  0  0
  7 12  1  0  0  0  0
 31 36  1  0  0  0  0
 17 24  1  0  0  0  0
 22 27  1  0  0  0  0
M  END
$$$$

  -OEChem-05262214473D

 46 45  0     1  0  0  0  0  0999 V2000
   -4.6700    2.7214    1.5150 C   0  0  0  0  0  0  0  0  0  0  0  0
   -5.4532    2.5715    0.5845 O   0  0  0  0  0  0  0  0  0  0  0  0
   -5.0996    3.4865    2.7226 C   0  0  0  0  0  0  0  0  0  0  0  0
   -4.8796    4.5629    2.6387 H   0  0  0  0  0  0  0  0  0  0  0  0
   -6.1861    3.4241    2.8954 H   0  0  0  0  0  0  0  0  0  0  0  0
   -4.6369    3.1693    3.6708 H   0  0  0  0  0  0  0  0  0  0  0  0
   -3.3731    2.2391    1.5790 N   0  0  0  0  0  0  0  0  0  0  0  0
   -2.7599    1.4751    0.5247 C   0  0  2  0  0  0  0  0  0  0  0  0
   -1.5143    0.8067    1.0915 C   0  0  0  0  0  0  0  0  0  0  0  0
   -0.9247    1.2213    2.0872 O   0  0  0  0  0  0  0  0  0  0  0  0
   -2.4106    2.3553   -0.6653 C   0  0  0  0  0  0  0  0  0  0  0  0
   -2.8254    2.4352    2.4150 H   0  0  0  0  0  0  0  0  0  0  0  0
   -3.4836    0.7082    0.2278 H   0  0  0  0  0  0  0  0  0  0  0  0
   -1.6866    3.1298   -0.3871 H   0  0  0  0  0  0  0  0  0  0  0  0
   -1.9704    1.7677   -1.4777 H   0  0  0  0  0  0  0  0  0  0  0  0
   -3.3030    2.8584   -1.0531 H   0  0  0  0  0  0  0  0  0  0  0  0
   -1.1107   -0.2839    0.3303 N   0  0  0  0  0  0  0  0  0  0  0  0
    0.0490   -1.0750    0.6539 C   0  0  2  0  0  0  0  0  0  0  0  0
    0.1678   -2.1712   -0.4010 C   0  0  0  0  0  0  0  0  0  0  0  0
   -0.2550   -2.0458   -1.5485 O   0  0  0  0  0  0  0  0  0  0  0  0
   -0.0071   -1.6602    2.0726 C   0  0  2  0  0  0  0  0  0  0  0  0
   -1.1343   -2.5226    2.2186 O   0  0  0  0  0  0  0  0  0  0  0  0
   -0.1084   -0.5768    3.1395 C   0  0  0  0  0  0  0  0  0  0  0  0
   -1.6733   -0.5660   -0.4691 H   0  0  0  0  0  0  0  0  0  0  0  0
    0.9153   -0.4092    0.5582 H   0  0  0  0  0  0  0  0  0  0  0  0
    0.8887   -2.2596    2.2721 H   0  0  0  0  0  0  0  0  0  0  0  0
   -1.0822   -2.8937    3.1126 H   0  0  0  0  0  0  0  0  0  0  0  0
   -0.9906    0.0542    2.9866 H   0  0  0  0  0  0  0  0  0  0  0  0
    0.7830    0.0576    3.1480 H   0  0  0  0  0  0  0  0  0  0  0  0
   -0.2207   -1.0309    4.1302 H   0  0  0  0  0  0  0  0  0  0  0  0
    0.7563   -3.3220    0.1042 N   0  0  0  0  0  0  0  0  0  0  0  0
    0.9492   -4.5105   -0.6930 C   0  0  2  0  0  0  0  0  0  0  0  0
    2.1695   -4.2907   -1.5774 C   0  0  0  0  0  0  0  0  0  0  0  0
    2.5903   -3.1746   -1.8744 O   0  0  0  0  0  0  0  0  0  0  0  0
   -0.2812   -4.8199   -1.5316 C   0  0  0  0  0  0  0  0  0  0  0  0
    1.0634   -3.3285    1.0724 H   0  0  0  0  0  0  0  0  0  0  0  0
    1.1465   -5.3311    0.0053 H   0  0  0  0  0  0  0  0  0  0  0  0
   -0.4947   -4.0088   -2.2374 H   0  0  0  0  0  0  0  0  0  0  0  0
   -0.1441   -5.7371   -2.1139 H   0  0  0  0  0  0  0  0  0  0  0  0
   -1.1639   -4.9482   -0.8960 H   0  0  0  0  0  0  0  0  0  0  0  0
    2.7075   -5.4869   -2.0309 N   0  0  0  0  0  0  0  0  0  0  0  0
    3.8626   -5.5438   -2.8961 C   0  0  0  0  0  0  0  0  0  0  0  0
    2.3054   -6.3659   -1.7188 H   0  0  0  0  0  0  0  0  0  0  0  0
    3.5344   -5.5685   -3.9457 H   0  0  0  0  0  0  0  0  0  0  0  0
    4.4899   -4.6558   -2.7289 H   0  0  0  0  0  0  0  0  0  0  0  0
    4.4438   -6.4506   -2.6724 H   0  0  0  0  0  0  0  0  0  0  0  0
  1  3  1  0  0  0  0
  1  7  1  0  0  0  0
  1  2  2  0  0  0  0
 32 33  1  0  0  0  0
 33 41  1  0  0  0  0
 33 34  2  0  0  0  0
  8  9  1  0  0  0  0
  9 17  1  0  0  0  0
  9 10  2  0  0  0  0
 18 19  1  0  0  0  0
 19 31  1  0  0  0  0
 19 20  2  0  0  0  0
 32 35  1  0  0  0  0
  8 11  1  0  0  0  0
 21 23  1  0  0  0  0
 41 42  1  0  0  0  0
 31 32  1  0  0  0  0
  7  8  1  0  0  0  0
 18 21  1  0  0  0  0
 17 18  1  0  0  0  0
 21 22  1  0  0  0  0
  3  4  1  0  0  0  0
  3  5  1  0  0  0  0
  3  6  1  0  0  0  0
 35 38  1  0  0  0  0
 35 39  1  0  0  0  0
 35 40  1  0  0  0  0
 11 14  1  0  0  0  0
 11 15  1  0  0  0  0
 11 16  1  0  0  0  0
 23 28  1  0  0  0  0
 23 29  1  0  0  0  0
 23 30  1  0  0  0  0
 42 44  1  0  0  0  0
 42 45  1  0  0  0  0
 42 46  1  0  0  0  0
 32 37  1  0  0  0  0
  8 13  1  0  0  0  0
 18 25  1  0  0  0  0
 21 26  1  0  0  0  0
 41 43  1  0  0  0  0
  7 12  1  0  0  0  0
 31 36  1  0  0  0  0
 17 24  1  0  0  0  0
 22 27  1  0  0  0  0
M  END
$$$$

  -OEChem-05262214473D

 46 45  0     1  0  0  0  0  0999 V2000
   -4.6700    2.7214    1.5150 C   0  0  0  0  0  0  0  0  0  0  0  0
   -5.4532    2.5715    0.5845 O   0  0  0  0  0  0  0  0  0  0  0  0
   -5.0996    3.4865    2.7226 C   0  0  0  0  0  0  0  0  0  0  0  0
   -4.8796    4.5629    2.6387 H   0  0  0  0  0  0  0  0  0  0  0  0
   -6.1861    3.4241    2.8954 H   0  0  0  0  0  0  0  0  0  0  0  0
   -4.6369    3.1693    3.6708 H   0  0  0  0  0  0  0  0  0  0  0  0
   -3.3731    2.2391    1.5790 N   0  0  0  0  0  0  0  0  0  0  0  0
   -2.7599    1.4751    0.5247 C   0  0  2  0  0  0  0  0  0  0  0  0
   -1.5143    0.8067    1.0915 C   0  0  0  0  0  0  0  0  0  0  0  0
   -0.9247    1.2213    2.0872 O   0  0  0  0  0  0  0  0  0  0  0  0
   -2.4106    2.3553   -0.6653 C   0  0  0  0  0  0  0  0  0  0  0  0
   -2.8254    2.4352    2.4150 H   0  0  0  0  0  0  0  0  0  0  0  0
   -3.4836    0.7082    0.2278 H   0  0  0  0  0  0  0  0  0  0  0  0
   -1.6866    3.1298   -0.3871 H   0  0  0  0  0  0  0  0  0  0  0  0
   -1.9704    1.7677   -1.4777 H   0  0  0  0  0  0  0  0  0  0  0  0
   -3.3030    2.8584   -1.0531 H   0  0  0  0  0  0  0  0  0  0  0  0
   -1.1107   -0.2839    0.3303 N   0  0  0  0  0  0  0  0  0  0  0  0
    0.0490   -1.0750    0.6539 C   0  0  2  0  0  0  0  0  0  0  0  0
    0.1678   -2.1712   -0.4010 C   0  0  0  0  0  0  0  0  0  0  0  0
   -0.0030   -1.9678   -1.6013 O   0  0  0  0  0  0  0  0  0  0  0  0
   -0.0071   -1.6602    2.0726 C   0  0  2  0  0  0  0  0  0  0  0  0
   -1.1343   -2.5226    2.2186 O   0  0  0  0  0  0  0  0  0  0  0  0
   -0.1084   -0.5768    3.1395 C   0  0  0  0  0  0  0  0  0  0  0  0
   -1.6733   -0.5660   -0.4691 H   0  0  0  0  0  0  0  0  0  0  0  0
    0.9153   -0.4092    0.5582 H   0  0  0  0  0  0  0  0  0  0  0  0
    0.8887   -2.2596    2.2721 H   0  0  0  0  0  0  0  0  0  0  0  0
   -1.0822   -2.8937    3.1126 H   0  0  0  0  0  0  0  0  0  0  0  0
   -0.9906    0.0542    2.9866 H   0  0  0  0  0  0  0  0  0  0  0  0
    0.7830    0.0576    3.1480 H   0  0  0  0  0  0  0  0  0  0  0  0
   -0.2207   -1.0309    4.1302 H   0  0  0  0  0  0  0  0  0  0  0  0
    0.4378   -3.4110    0.1609 N   0  0  0  0  0  0  0  0  0  0  0  0
    0.5635   -4.6122   -0.6307 C   0  0  2  0  0  0  0  0  0  0  0  0
    1.9474   -4.6139   -1.2665 C   0  0  0  0  0  0  0  0  0  0  0  0
    2.6074   -3.5914   -1.4394 O   0  0  0  0  0  0  0  0  0  0  0  0
   -0.5225   -4.6914   -1.6924 C   0  0  0  0  0  0  0  0  0  0  0  0
    0.5516   -3.4761    1.1682 H   0  0  0  0  0  0  0  0  0  0  0  0
    0.4777   -5.4573    0.0611 H   0  0  0  0  0  0  0  0  0  0  0  0
   -0.4527   -3.8528   -2.3948 H   0  0  0  0  0  0  0  0  0  0  0  0
   -0.4431   -5.6164   -2.2730 H   0  0  0  0  0  0  0  0  0  0  0  0
   -1.5174   -4.6600   -1.2352 H   0  0  0  0  0  0  0  0  0  0  0  0
    2.3407   -5.8862   -1.6573 N   0  0  0  0  0  0  0  0  0  0  0  0
    3.6090   -6.1483   -2.2965 C   0  0  0  0  0  0  0  0  0  0  0  0
    1.7380   -6.6790   -1.4573 H   0  0  0  0  0  0  0  0  0  0  0  0
    3.4846   -6.1098   -3.3888 H   0  0  0  0  0  0  0  0  0  0  0  0
    4.3408   -5.3889   -1.9839 H   0  0  0  0  0  0  0  0  0  0  0  0
    3.9680   -7.1459   -2.0034 H   0  0  0  0  0  0  0  0  0  0  0  0
  1  3  1  0  0  0  0
  1  7  1  0  0  0  0
  1  2  2  0  0  0  0
 32 33  1  0  0  0  0
 33 41  1  0  0  0  0
 33 34  2  0  0  0  0
  8  9  1  0  0  0  0
  9 17  1  0  0  0  0
  9 10  2  0  0  0  0
 18 19  1  0  0  0  0
 19 31  1  0  0  0  0
 19 20  2  0  0  0  0
 32 35  1  0  0  0  0
  8 11  1  0  0  0  0
 21 23  1  0  0  0  0
 41 42  1  0  0  0  0
 31 32  1  0  0  0  0
  7  8  1  0  0  0  0
 18 21  1  0  0  0  0
 17 18  1  0  0  0  0
 21 22  1  0  0  0  0
  3  4  1  0  0  0  0
  3  5  1  0  0  0  0
  3  6  1  0  0  0  0
 35 38  1  0  0  0  0
 35 39  1  0  0  0  0
 35 40  1  0  0  0  0
 11 14  1  0  0  0  0
 11 15  1  0  0  0  0
 11 16  1  0  0  0  0
 23 28  1  0  0  0  0
 23 29  1  0  0  0  0
 23 30  1  0  0  0  0
 42 44  1  0  0  0  0
 42 45  1  0  0  0  0
 42 46  1  0  0  0  0
 32 37  1  0  0  0  0
  8 13  1  0  0  0  0
 18 25  1  0  0  0  0
 21 26  1  0  0  0  0
 41 43  1  0  0  0  0
  7 12  1  0  0  0  0
 31 36  1  0  0  0  0
 17 24  1  0  0  0  0
 22 27  1  0  0  0  0
M  END
$$$$

  -OEChem-05262214473D

 46 45  0     1  0  0  0  0  0999 V2000
   -4.6700    2.7214    1.5150 C   0  0  0  0  0  0  0  0  0  0  0  0
   -5.4532    2.5715    0.5845 O   0  0  0  0  0  0  0  0  0  0  0  0
   -5.0996    3.4865    2.7226 C   0  0  0  0  0  0  0  0  0  0  0  0
   -4.8796    4.5629    2.6387 H   0  0  0  0  0  0  0  0  0  0  0  0
   -6.1861    3.4241    2.8954 H   0  0  0  0  0  0  0  0  0  0  0  0
   -4.6369    3.1693    3.6708 H   0  0  0  0  0  0  0  0  0  0  0  0
   -3.3731    2.2391    1.5790 N   0  0  0  0  0  0  0  0  0  0  0  0
   -2.7599    1.4751    0.5247 C   0  0  2  0  0  0  0  0  0  0  0  0
   -1.5143    0.8067    1.0915 C   0  0  0  0  0  0  0  0  0  0  0  0
   -0.9247    1.2213    2.0872 O   0  0  0  0  0  0  0  0  0  0  0  0
   -2.4106    2.3553   -0.6653 C   0  0  0  0  0  0  0  0  0  0  0  0
   -2.8254    2.4352    2.4150 H   0  0  0  0  0  0  0  0  0  0  0  0
   -3.4836    0.7082    0.2278 H   0  0  0  0  0  0  0  0  0  0  0  0
   -1.6866    3.1298   -0.3871 H   0  0  0  0  0  0  0  0  0  0  0  0
   -1.9704    1.7677   -1.4777 H   0  0  0  0  0  0  0  0  0  0  0  0
   -3.3030    2.8584   -1.0531 H   0  0  0  0  0  0  0  0  0  0  0  0
   -1.1107   -0.2839    0.3303 N   0  0  0  0  0  0  0  0  0  0  0  0
    0.0490   -1.0750    0.6539 C   0  0  2  0  0  0  0  0  0  0  0  0
    0.1678   -2.1712   -0.4010 C   0  0  0  0  0  0  0  0  0  0  0  0
    0.2642   -1.9364   -1.6038 O   0  0  0  0  0  0  0  0  0  0  0  0
   -0.0071   -1.6602    2.0726 C   0  0  2  0  0  0  0  0  0  0  0  0
   -1.1343   -2.5226    2.2186 O   0  0  0  0  0  0  0  0  0  0  0  0
   -0.1084   -0.5768    3.1395 C   0  0  0  0  0  0  0  0  0  0  0  0
   -1.6733   -0.5660   -0.4691 H   0  0  0  0  0  0  0  0  0  0  0  0
    0.9153   -0.4092    0.5582 H   0  0  0  0  0  0  0  0  0  0  0  0
    0.8887   -2.2596    2.2721 H   0  0  0  0  0  0  0  0  0  0  0  0
   -1.0822   -2.8937    3.1126 H   0  0  0  0  0  0  0  0  0  0  0  0
   -0.9906    0.0542    2.9866 H   0  0  0  0  0  0  0  0  0  0  0  0
    0.7830    0.0576    3.1480 H   0  0  0  0  0  0  0  0  0  0  0  0
   -0.2207   -1.0309    4.1302 H   0  0  0  0  0  0  0  0  0  0  0  0
    0.1037   -3.4412    0.1546 N   0  0  0  0  0  0  0  0  0  0  0  0
    0.1611   -4.6428   -0.6443 C   0  0  2  0  0  0  0  0  0  0  0  0
    1.6173   -4.8926   -1.0140 C   0  0  0  0  0  0  0  0  0  0  0  0
    2.4683   -4.0057   -1.0245 O   0  0  0  0  0  0  0  0  0  0  0  0
   -0.7028   -4.5208   -1.8899 C   0  0  0  0  0  0  0  0  0  0  0  0
    0.0130   -3.5291    1.1626 H   0  0  0  0  0  0  0  0  0  0  0  0
   -0.2012   -5.4606   -0.0119 H   0  0  0  0  0  0  0  0  0  0  0  0
   -0.3550   -3.7065   -2.5359 H   0  0  0  0  0  0  0  0  0  0  0  0
   -0.6807   -5.4431   -2.4799 H   0  0  0  0  0  0  0  0  0  0  0  0
   -1.7443   -4.3116   -1.6229 H   0  0  0  0  0  0  0  0  0  0  0  0
    1.8454   -6.2138   -1.3726 N   0  0  0  0  0  0  0  0  0  0  0  0
    3.1444   -6.6988   -1.7767 C   0  0  0  0  0  0  0  0  0  0  0  0
    1.0852   -6.8852   -1.3165 H   0  0  0  0  0  0  0  0  0  0  0  0
    3.2361   -6.6349   -2.8710 H   0  0  0  0  0  0  0  0  0  0  0  0
    3.9272   -6.0853   -1.3068 H   0  0  0  0  0  0  0  0  0  0  0  0
    3.2596   -7.7459   -1.4597 H   0  0  0  0  0  0  0  0  0  0  0  0
  1  3  1  0  0  0  0
  1  7  1  0  0  0  0
  1  2  2  0  0  0  0
 32 33  1  0  0  0  0
 33 41  1  0  0  0  0
 33 34  2  0  0  0  0
  8  9  1  0  0  0  0
  9 17  1  0  0  0  0
  9 10  2  0  0  0  0
 18 19  1  0  0  0  0
 19 31  1  0  0  0  0
 19 20  2  0  0  0  0
 32 35  1  0  0  0  0
  8 11  1  0  0  0  0
 21 23  1  0  0  0  0
 41 42  1  0  0  0  0
 31 32  1  0  0  0  0
  7  8  1  0  0  0  0
 18 21  1  0  0  0  0
 17 18  1  0  0  0  0
 21 22  1  0  0  0  0
  3  4  1  0  0  0  0
  3  5  1  0  0  0  0
  3  6  1  0  0  0  0
 35 38  1  0  0  0  0
 35 39  1  0  0  0  0
 35 40  1  0  0  0  0
 11 14  1  0  0  0  0
 11 15  1  0  0  0  0
 11 16  1  0  0  0  0
 23 28  1  0  0  0  0
 23 29  1  0  0  0  0
 23 30  1  0  0  0  0
 42 44  1  0  0  0  0
 42 45  1  0  0  0  0
 42 46  1  0  0  0  0
 32 37  1  0  0  0  0
  8 13  1  0  0  0  0
 18 25  1  0  0  0  0
 21 26  1  0  0  0  0
 41 43  1  0  0  0  0
  7 12  1  0  0  0  0
 31 36  1  0  0  0  0
 17 24  1  0  0  0  0
 22 27  1  0  0  0  0
M  END
$$$$

  -OEChem-05262214473D

 46 45  0     1  0  0  0  0  0999 V2000
   -4.6700    2.7214    1.5150 C   0  0  0  0  0  0  0  0  0  0  0  0
   -5.4532    2.5715    0.5845 O   0  0  0  0  0  0  0  0  0  0  0  0
   -5.0996    3.4865    2.7226 C   0  0  0  0  0  0  0  0  0  0  0  0
   -4.8796    4.5629    2.6387 H   0  0  0  0  0  0  0  0  0  0  0  0
   -6.1861    3.4241    2.8954 H   0  0  0  0  0  0  0  0  0  0  0  0
   -4.6369    3.1693    3.6708 H   0  0  0  0  0  0  0  0  0  0  0  0
   -3.3731    2.2391    1.5790 N   0  0  0  0  0  0  0  0  0  0  0  0
   -2.7599    1.4751    0.5247 C   0  0  2  0  0  0  0  0  0  0  0  0
   -1.5143    0.8067    1.0915 C   0  0  0  0  0  0  0  0  0  0  0  0
   -0.9247    1.2213    2.0872 O   0  0  0  0  0  0  0  0  0  0  0  0
   -2.4106    2.3553   -0.6653 C   0  0  0  0  0  0  0  0  0  0  0  0
   -2.8254    2.4352    2.4150 H   0  0  0  0  0  0  0  0  0  0  0  0
   -3.4836    0.7082    0.2278 H   0  0  0  0  0  0  0  0  0  0  0  0
   -1.6866    3.1298   -0.3871 H   0  0  0  0  0  0  0  0  0  0  0  0
   -1.9704    1.7677   -1.4777 H   0  0  0  0  0  0  0  0  0  0  0  0
   -3.3030    2.8584   -1.0531 H   0  0  0  0  0  0  0  0  0  0  0  0
   -1.1107   -0.2839    0.3303 N   0  0  0  0  0  0  0  0  0  0  0  0
    0.0490   -1.0750    0.6539 C   0  0  2  0  0  0  0  0  0  0  0  0
    0.1678   -2.1712   -0.4010 C   0  0  0  0  0  0  0  0  0  0  0  0
    0.5283   -1.9538   -1.5559 O   0  0  0  0  0  0  0  0  0  0  0  0
   -0.0071   -1.6602    2.0726 C   0  0  2  0  0  0  0  0  0  0  0  0
   -1.1343   -2.5226    2.2186 O   0  0  0  0  0  0  0  0  0  0  0  0
   -0.1084   -0.5768    3.1395 C   0  0  0  0  0  0  0  0  0  0  0  0
   -1.6733   -0.5660   -0.4691 H   0  0  0  0  0  0  0  0  0  0  0  0
    0.9153   -0.4092    0.5582 H   0  0  0  0  0  0  0  0  0  0  0  0
    0.8887   -2.2596    2.2721 H   0  0  0  0  0  0  0  0  0  0  0  0
   -1.0822   -2.8937    3.1126 H   0  0  0  0  0  0  0  0  0  0  0  0
   -0.9906    0.0542    2.9866 H   0  0  0  0  0  0  0  0  0  0  0  0
    0.7830    0.0576    3.1480 H   0  0  0  0  0  0  0  0  0  0  0  0
   -0.2207   -1.0309    4.1302 H   0  0  0  0  0  0  0  0  0  0  0  0
   -0.2232   -3.4105    0.0859 N   0  0  0  0  0  0  0  0  0  0  0  0
   -0.2305   -4.6001   -0.7328 C   0  0  2  0  0  0  0  0  0  0  0  0
    1.2016   -5.1079   -0.8371 C   0  0  0  0  0  0  0  0  0  0  0  0
    2.1828   -4.3894   -0.6579 O   0  0  0  0  0  0  0  0  0  0  0  0
   -0.8096   -4.3199   -2.1108 C   0  0  0  0  0  0  0  0  0  0  0  0
   -0.5157   -3.4837    1.0559 H   0  0  0  0  0  0  0  0  0  0  0  0
   -0.8440   -5.3409   -0.2087 H   0  0  0  0  0  0  0  0  0  0  0  0
   -0.2082   -3.5797   -2.6510 H   0  0  0  0  0  0  0  0  0  0  0  0
   -0.8408   -5.2290   -2.7204 H   0  0  0  0  0  0  0  0  0  0  0  0
   -1.8289   -3.9266   -2.0325 H   0  0  0  0  0  0  0  0  0  0  0  0
    1.2554   -6.4474   -1.1964 N   0  0  0  0  0  0  0  0  0  0  0  0
    2.5004   -7.1580   -1.3721 C   0  0  0  0  0  0  0  0  0  0  0  0
    0.3916   -6.9704   -1.3061 H   0  0  0  0  0  0  0  0  0  0  0  0
    2.8058   -7.1082   -2.4277 H   0  0  0  0  0  0  0  0  0  0  0  0
    3.2771   -6.6976   -0.7437 H   0  0  0  0  0  0  0  0  0  0  0  0
    2.3669   -8.2096   -1.0784 H   0  0  0  0  0  0  0  0  0  0  0  0
  1  3  1  0  0  0  0
  1  7  1  0  0  0  0
  1  2  2  0  0  0  0
 32 33  1  0  0  0  0
 33 41  1  0  0  0  0
 33 34  2  0  0  0  0
  8  9  1  0  0  0  0
  9 17  1  0  0  0  0
  9 10  2  0  0  0  0
 18 19  1  0  0  0  0
 19 31  1  0  0  0  0
 19 20  2  0  0  0  0
 32 35  1  0  0  0  0
  8 11  1  0  0  0  0
 21 23  1  0  0  0  0
 41 42  1  0  0  0  0
 31 32  1  0  0  0  0
  7  8  1  0  0  0  0
 18 21  1  0  0  0  0
 17 18  1  0  0  0  0
 21 22  1  0  0  0  0
  3  4  1  0  0  0  0
  3  5  1  0  0  0  0
  3  6  1  0  0  0  0
 35 38  1  0  0  0  0
 35 39  1  0  0  0  0
 35 40  1  0  0  0  0
 11 14  1  0  0  0  0
 11 15  1  0  0  0  0
 11 16  1  0  0  0  0
 23 28  1  0  0  0  0
 23 29  1  0  0  0  0
 23 30  1  0  0  0  0
 42 44  1  0  0  0  0
 42 45  1  0  0  0  0
 42 46  1  0  0  0  0
 32 37  1  0  0  0  0
  8 13  1  0  0  0  0
 18 25  1  0  0  0  0
 21 26  1  0  0  0  0
 41 43  1  0  0  0  0
  7 12  1  0  0  0  0
 31 36  1  0  0  0  0
 17 24  1  0  0  0  0
 22 27  1  0  0  0  0
M  END
$$$$

  -OEChem-05262214473D

 46 45  0     1  0  0  0  0  0999 V2000
   -4.6700    2.7214    1.5150 C   0  0  0  0  0  0  0  0  0  0  0  0
   -5.4532    2.5715    0.5845 O   0  0  0  0  0  0  0  0  0  0  0  0
   -5.0996    3.4865    2.7226 C   0  0  0  0  0  0  0  0  0  0  0  0
   -4.8796    4.5629    2.6387 H   0  0  0  0  0  0  0  0  0  0  0  0
   -6.1861    3.4241    2.8954 H   0  0  0  0  0  0  0  0  0  0  0  0
   -4.6369    3.1693    3.6708 H   0  0  0  0  0  0  0  0  0  0  0  0
   -3.3731    2.2391    1.5790 N   0  0  0  0  0  0  0  0  0  0  0  0
   -2.7599    1.4751    0.5247 C   0  0  2  0  0  0  0  0  0  0  0  0
   -1.5143    0.8067    1.0915 C   0  0  0  0  0  0  0  0  0  0  0  0
   -0.9247    1.2213    2.0872 O   0  0  0  0  0  0  0  0  0  0  0  0
   -2.4106    2.3553   -0.6653 C   0  0  0  0  0  0  0  0  0  0  0  0
   -2.8254    2.4352    2.4150 H   0  0  0  0  0  0  0  0  0  0  0  0
   -3.4836    0.7082    0.2278 H   0  0  0  0  0  0  0  0  0  0  0  0
   -1.6866    3.1298   -0.3871 H   0  0  0  0  0  0  0  0  0  0  0  0
   -1.9704    1.7677   -1.4777 H   0  0  0  0  0  0  0  0  0  0  0  0
   -3.3030    2.8584   -1.0531 H   0  0  0  0  0  0  0  0  0  0  0  0
   -1.1107   -0.2839    0.3303 N   0  0  0  0  0  0  0  0  0  0  0  0
    0.0490   -1.0750    0.6539 C   0  0  2  0  0  0  0  0  0  0  0  0
    0.1678   -2.1712   -0.4010 C   0  0  0  0  0  0  0  0  0  0  0  0
    0.7715   -2.0188   -1.4610 O   0  0  0  0  0  0  0  0  0  0  0  0
   -0.0071   -1.6602    2.0726 C   0  0  2  0  0  0  0  0  0  0  0  0
   -1.1343   -2.5226    2.2186 O   0  0  0  0  0  0  0  0  0  0  0  0
   -0.1084   -0.5768    3.1395 C   0  0  0  0  0  0  0  0  0  0  0  0
   -1.6733   -0.5660   -0.4691 H   0  0  0  0  0  0  0  0  0  0  0  0
    0.9153   -0.4092    0.5582 H   0  0  0  0  0  0  0  0  0  0  0  0
    0.8887   -2.2596    2.2721 H   0  0  0  0  0  0  0  0  0  0  0  0
   -1.0822   -2.8937    3.1126 H   0  0  0  0  0  0  0  0  0  0  0  0
   -0.9906    0.0542    2.9866 H   0  0  0  0  0  0  0  0  0  0  0  0
    0.7830    0.0576    3.1480 H   0  0  0  0  0  0  0  0  0  0  0  0
   -0.2207   -1.0309    4.1302 H   0  0  0  0  0  0  0  0  0  0  0  0
   -0.5208   -3.3209   -0.0407 N   0  0  0  0  0  0  0  0  0  0  0  0
   -0.5846   -4.4869   -0.8902 C   0  0  2  0  0  0  0  0  0  0  0  0
    0.7286   -5.2450   -0.7479 C   0  0  0  0  0  0  0  0  0  0  0  0
    1.7701   -4.7164   -0.3646 O   0  0  0  0  0  0  0  0  0  0  0  0
   -0.8358   -4.1022   -2.3399 C   0  0  0  0  0  0  0  0  0  0  0  0
   -0.9984   -3.3432    0.8555 H   0  0  0  0  0  0  0  0  0  0  0  0
   -1.4069   -5.1063   -0.5159 H   0  0  0  0  0  0  0  0  0  0  0  0
   -0.0223   -3.4813   -2.7324 H   0  0  0  0  0  0  0  0  0  0  0  0
   -0.9124   -4.9887   -2.9781 H   0  0  0  0  0  0  0  0  0  0  0  0
   -1.7657   -3.5314   -2.4361 H   0  0  0  0  0  0  0  0  0  0  0  0
    0.6110   -6.5710   -1.1405 N   0  0  0  0  0  0  0  0  0  0  0  0
    1.7211   -7.4944   -1.1102 C   0  0  0  0  0  0  0  0  0  0  0  0
   -0.2955   -6.9288   -1.4267 H   0  0  0  0  0  0  0  0  0  0  0  0
    2.2231   -7.4973   -2.0889 H   0  0  0  0  0  0  0  0  0  0  0  0
    2.4349   -7.1841   -0.3330 H   0  0  0  0  0  0  0  0  0  0  0  0
    1.3507   -8.5055   -0.8853 H   0  0  0  0  0  0  0  0  0  0  0  0
  1  3  1  0  0  0  0
  1  7  1  0  0  0  0
  1  2  2  0  0  0  0
 32 33  1  0  0  0  0
 33 41  1  0  0  0  0
 33 34  2  0  0  0  0
  8  9  1  0  0  0  0
  9 17  1  0  0  0  0
  9 10  2  0  0  0  0
 18 19  1  0  0  0  0
 19 31  1  0  0  0  0
 19 20  2  0  0  0  0
 32 35  1  0  0  0  0
  8 11  1  0  0  0  0
 21 23  1  0  0  0  0
 41 42  1  0  0  0  0
 31 32  1  0  0  0  0
  7  8  1  0  0  0  0
 18 21  1  0  0  0  0
 17 18  1  0  0  0  0
 21 22  1  0  0  0  0
  3  4  1  0  0  0  0
  3  5  1  0  0  0  0
  3  6  1  0  0  0  0
 35 38  1  0  0  0  0
 35 39  1  0  0  0  0
 35 40  1  0  0  0  0
 11 14  1  0  0  0  0
 11 15  1  0  0  0  0
 11 16  1  0  0  0  0
 23 28  1  0  0  0  0
 23 29  1  0  0  0  0
 23 30  1  0  0  0  0
 42 44  1  0  0  0  0
 42 45  1  0  0  0  0
 42 46  1  0  0  0  0
 32 37  1  0  0  0  0
  8 13  1  0  0  0  0
 18 25  1  0  0  0  0
 21 26  1  0  0  0  0
 41 43  1  0  0  0  0
  7 12  1  0  0  0  0
 31 36  1  0  0  0  0
 17 24  1  0  0  0  0
 22 27  1  0  0  0  0
M  END
$$$$

  -OEChem-05262214473D

 46 45  0     1  0  0  0  0  0999 V2000
   -4.6700    2.7214    1.5150 C   0  0  0  0  0  0  0  0  0  0  0  0
   -5.4532    2.5715    0.5845 O   0  0  0  0  0  0  0  0  0  0  0  0
   -5.0996    3.4865    2.7226 C   0  0  0  0  0  0  0  0  0  0  0  0
   -4.8796    4.5629    2.6387 H   0  0  0  0  0  0  0  0  0  0  0  0
   -6.1861    3.4241    2.8954 H   0  0  0  0  0  0  0  0  0  0  0  0
   -4.6369    3.1693    3.6708 H   0  0  0  0  0  0  0  0  0  0  0  0
   -3.3731    2.2391    1.5790 N   0  0  0  0  0  0  0  0  0  0  0  0
   -2.7599    1.4751    0.5247 C   0  0  2  0  0  0  0  0  0  0  0  0
   -1.5143    0.8067    1.0915 C   0  0  0  0  0  0  0  0  0  0  0  0
   -0.9247    1.2213    2.0872 O   0  0  0  0  0  0  0  0  0  0  0  0
   -2.4106    2.3553   -0.6653 C   0  0  0  0  0  0  0  0  0  0  0  0
   -2.8254    2.4352    2.4150 H   0  0  0  0  0  0  0  0  0  0  0  0
   -3.4836    0.7082    0.2278 H   0  0  0  0  0  0  0  0  0  0  0  0
   -1.6866    3.1298   -0.3871 H   0  0  0  0  0  0  0  0  0  0  0  0
   -1.9704    1.7677   -1.4777 H   0  0  0  0  0  0  0  0  0  0  0  0
   -3.3030    2.8584   -1.0531 H   0  0  0  0  0  0  0  0  0  0  0  0
   -1.1107   -0.2839    0.3303 N   0  0  0  0  0  0  0  0  0  0  0  0
    0.0490   -1.0750    0.6539 C   0  0  2  0  0  0  0  0  0  0  0  0
    0.1678   -2.1712   -0.4010 C   0  0  0  0  0  0  0  0  0  0  0  0
    0.9770   -2.1271   -1.3253 O   0  0  0  0  0  0  0  0  0  0  0  0
   -0.0071   -1.6602    2.0726 C   0  0  2  0  0  0  0  0  0  0  0  0
   -1.1343   -2.5226    2.2186 O   0  0  0  0  0  0  0  0  0  0  0  0
   -0.1084   -0.5768    3.1395 C   0  0  0  0  0  0  0  0  0  0  0  0
   -1.6733   -0.5660   -0.4691 H   0  0  0  0  0  0  0  0  0  0  0  0
    0.9153   -0.4092    0.5582 H   0  0  0  0  0  0  0  0  0  0  0  0
    0.8887   -2.2596    2.2721 H   0  0  0  0  0  0  0  0  0  0  0  0
   -1.0822   -2.8937    3.1126 H   0  0  0  0  0  0  0  0  0  0  0  0
   -0.9906    0.0542    2.9866 H   0  0  0  0  0  0  0  0  0  0  0  0
    0.7830    0.0576    3.1480 H   0  0  0  0  0  0  0  0  0  0  0  0
   -0.2207   -1.0309    4.1302 H   0  0  0  0  0  0  0  0  0  0  0  0
   -0.7686   -3.1786   -0.2165 N   0  0  0  0  0  0  0  0  0  0  0  0
   -0.8772   -4.3111   -1.1059 C   0  0  2  0  0  0  0  0  0  0  0  0
    0.2307   -5.2946   -0.7525 C   0  0  0  0  0  0  0  0  0  0  0  0
    1.2585   -4.9643   -0.1646 O   0  0  0  0  0  0  0  0  0  0  0  0
   -0.7796   -3.8826   -2.5618 C   0  0  0  0  0  0  0  0  0  0  0  0
   -1.4023   -3.1170    0.5750 H   0  0  0  0  0  0  0  0  0  0  0  0
   -1.8516   -4.7728   -0.9125 H   0  0  0  0  0  0  0  0  0  0  0  0
    0.1901   -3.4178   -2.7745 H   0  0  0  0  0  0  0  0  0  0  0  0
   -0.8906   -4.7386   -3.2356 H   0  0  0  0  0  0  0  0  0  0  0  0
   -1.5588   -3.1527   -2.8063 H   0  0  0  0  0  0  0  0  0  0  0  0
   -0.0440   -6.5762   -1.2088 N   0  0  0  0  0  0  0  0  0  0  0  0
    0.8594   -7.6852   -1.0090 C   0  0  0  0  0  0  0  0  0  0  0  0
   -0.9294   -6.7633   -1.6701 H   0  0  0  0  0  0  0  0  0  0  0  0
    1.5277   -7.7756   -1.8780 H   0  0  0  0  0  0  0  0  0  0  0  0
    1.4580   -7.5116   -0.1026 H   0  0  0  0  0  0  0  0  0  0  0  0
    0.2804   -8.6134   -0.8937 H   0  0  0  0  0  0  0  0  0  0  0  0
  1  3  1  0  0  0  0
  1  7  1  0  0  0  0
  1  2  2  0  0  0  0
 32 33  1  0  0  0  0
 33 41  1  0  0  0  0
 33 34  2  0  0  0  0
  8  9  1  0  0  0  0
  9 17  1  0  0  0  0
  9 10  2  0  0  0  0
 18 19  1  0  0  0  0
 19 31  1  0  0  0  0
 19 20  2  0  0  0  0
 32 35  1  0  0  0  0
  8 11  1  0  0  0  0
 21 23  1  0  0  0  0
 41 42  1  0  0  0  0
 31 32  1  0  0  0  0
  7  8  1  0  0  0  0
 18 21  1  0  0  0  0
 17 18  1  0  0  0  0
 21 22  1  0  0  0  0
  3  4  1  0  0  0  0
  3  5  1  0  0  0  0
  3  6  1  0  0  0  0
 35 38  1  0  0  0  0
 35 39  1  0  0  0  0
 35 40  1  0  0  0  0
 11 14  1  0  0  0  0
 11 15  1  0  0  0  0
 11 16  1  0  0  0  0
 23 28  1  0  0  0  0
 23 29  1  0  0  0  0
 23 30  1  0  0  0  0
 42 44  1  0  0  0  0
 42 45  1  0  0  0  0
 42 46  1  0  0  0  0
 32 37  1  0  0  0  0
  8 13  1  0  0  0  0
 18 25  1  0  0  0  0
 21 26  1  0  0  0  0
 41 43  1  0  0  0  0
  7 12  1  0  0  0  0
 31 36  1  0  0  0  0
 17 24  1  0  0  0  0
 22 27  1  0  0  0  0
M  END
$$$$

  -OEChem-05262214473D

 46 45  0     1  0  0  0  0  0999 V2000
   -4.6700    2.7214    1.5150 C   0  0  0  0  0  0  0  0  0  0  0  0
   -5.4532    2.5715    0.5845 O   0  0  0  0  0  0  0  0  0  0  0  0
   -5.0996    3.4865    2.7226 C   0  0  0  0  0  0  0  0  0  0  0  0
   -4.8796    4.5629    2.6387 H   0  0  0  0  0  0  0  0  0  0  0  0
   -6.1861    3.4241    2.8954 H   0  0  0  0  0  0  0  0  0  0  0  0
   -4.6369    3.1693    3.6708 H   0  0  0  0  0  0  0  0  0  0  0  0
   -3.3731    2.2391    1.5790 N   0  0  0  0  0  0  0  0  0  0  0  0
   -2.7599    1.4751    0.5247 C   0  0  2  0  0  0  0  0  0  0  0  0
   -1.5143    0.8067    1.0915 C   0  0  0  0  0  0  0  0  0  0  0  0
   -0.9247    1.2213    2.0872 O   0  0  0  0  0  0  0  0  0  0  0  0
   -2.4106    2.3553   -0.6653 C   0  0  0  0  0  0  0  0  0  0  0  0
   -2.8254    2.4352    2.4150 H   0  0  0  0  0  0  0  0  0  0  0  0
   -3.4836    0.7082    0.2278 H   0  0  0  0  0  0  0  0  0  0  0  0
   -1.6866    3.1298   -0.3871 H   0  0  0  0  0  0  0  0  0  0  0  0
   -1.9704    1.7677   -1.4777 H   0  0  0  0  0  0  0  0  0  0  0  0
   -3.3030    2.8584   -1.0531 H   0  0  0  0  0  0  0  0  0  0  0  0
   -1.1107   -0.2839    0.3303 N   0  0  0  0  0  0  0  0  0  0  0  0
    0.0490   -1.0750    0.6539 C   0  0  2  0  0  0  0  0  0  0  0  0
    0.1678   -2.1712   -0.4010 C   0  0  0  0  0  0  0  0  0  0  0  0
    1.1310   -2.2712   -1.1583 O   0  0  0  0  0  0  0  0  0  0  0  0
   -0.0071   -1.6602    2.0726 C   0  0  2  0  0  0  0  0  0  0  0  0
   -1.1343   -2.5226    2.2186 O   0  0  0  0  0  0  0  0  0  0  0  0
   -0.1084   -0.5768    3.1395 C   0  0  0  0  0  0  0  0  0  0  0  0
   -1.6733   -0.5660   -0.4691 H   0  0  0  0  0  0  0  0  0  0  0  0
    0.9153   -0.4092    0.5582 H   0  0  0  0  0  0  0  0  0  0  0  0
    0.8887   -2.2596    2.2721 H   0  0  0  0  0  0  0  0  0  0  0  0
   -1.0822   -2.8937    3.1126 H   0  0  0  0  0  0  0  0  0  0  0  0
   -0.9906    0.0542    2.9866 H   0  0  0  0  0  0  0  0  0  0  0  0
    0.7830    0.0576    3.1480 H   0  0  0  0  0  0  0  0  0  0  0  0
   -0.2207   -1.0309    4.1302 H   0  0  0  0  0  0  0  0  0  0  0  0
   -0.9498   -2.9933   -0.4295 N   0  0  0  0  0  0  0  0  0  0  0  0
   -1.0882   -4.0846   -1.3650 C   0  0  2  0  0  0  0  0  0  0  0  0
   -0.2583   -5.2533   -0.8504 C   0  0  0  0  0  0  0  0  0  0  0  0
    0.6828   -5.1162   -0.0715 O   0  0  0  0  0  0  0  0  0  0  0  0
   -0.6447   -3.6761   -2.7612 C   0  0  0  0  0  0  0  0  0  0  0  0
   -1.6998   -2.8207    0.2335 H   0  0  0  0  0  0  0  0  0  0  0  0
   -2.1476   -4.3631   -1.3716 H   0  0  0  0  0  0  0  0  0  0  0  0
    0.4143   -3.3936   -2.7744 H   0  0  0  0  0  0  0  0  0  0  0  0
   -0.7770   -4.4957   -3.4752 H   0  0  0  0  0  0  0  0  0  0  0  0
   -1.2225   -2.8166   -3.1178 H   0  0  0  0  0  0  0  0  0  0  0  0
   -0.6648   -6.4626   -1.3967 N   0  0  0  0  0  0  0  0  0  0  0  0
   -0.0259   -7.7174   -1.0752 C   0  0  0  0  0  0  0  0  0  0  0  0
   -1.4668   -6.4851   -2.0197 H   0  0  0  0  0  0  0  0  0  0  0  0
    0.7669   -7.9244   -1.8091 H   0  0  0  0  0  0  0  0  0  0  0  0
    0.4130   -7.6578   -0.0684 H   0  0  0  0  0  0  0  0  0  0  0  0
   -0.7713   -8.5259   -1.1030 H   0  0  0  0  0  0  0  0  0  0  0  0
  1  3  1  0  0  0  0
  1  7  1  0  0  0  0
  1  2  2  0  0  0  0
 32 33  1  0  0  0  0
 33 41  1  0  0  0  0
 33 34  2  0  0  0  0
  8  9  1  0  0  0  0
  9 17  1  0  0  0  0
  9 10  2  0  0  0  0
 18 19  1  0  0  0  0
 19 31  1  0  0  0  0
 19 20  2  0  0  0  0
 32 35  1  0  0  0  0
  8 11  1  0  0  0  0
 21 23  1  0  0  0  0
 41 42  1  0  0  0  0
 31 32  1  0  0  0  0
  7  8  1  0  0  0  0
 18 21  1  0  0  0  0
 17 18  1  0  0  0  0
 21 22  1  0  0  0  0
  3  4  1  0  0  0  0
  3  5  1  0  0  0  0
  3  6  1  0  0  0  0
 35 38  1  0  0  0  0
 35 39  1  0  0  0  0
 35 40  1  0  0  0  0
 11 14  1  0  0  0  0
 11 15  1  0  0  0  0
 11 16  1  0  0  0  0
 23 28  1  0  0  0  0
 23 29  1  0  0  0  0
 23 30  1  0  0  0  0
 42 44  1  0  0  0  0
 42 45  1  0  0  0  0
 42 46  1  0  0  0  0
 32 37  1  0  0  0  0
  8 13  1  0  0  0  0
 18 25  1  0  0  0  0
 21 26  1  0  0  0  0
 41 43  1  0  0  0  0
  7 12  1  0  0  0  0
 31 36  1  0  0  0  0
 17 24  1  0  0  0  0
 22 27  1  0  0  0  0
M  END
$$$$

  -OEChem-05262214473D

 46 45  0     1  0  0  0  0  0999 V2000
   -4.6700    2.7214    1.5150 C   0  0  0  0  0  0  0  0  0  0  0  0
   -5.4532    2.5715    0.5845 O   0  0  0  0  0  0  0  0  0  0  0  0
   -5.0996    3.4865    2.7226 C   0  0  0  0  0  0  0  0  0  0  0  0
   -4.8796    4.5629    2.6387 H   0  0  0  0  0  0  0  0  0  0  0  0
   -6.1861    3.4241    2.8954 H   0  0  0  0  0  0  0  0  0  0  0  0
   -4.6369    3.1693    3.6708 H   0  0  0  0  0  0  0  0  0  0  0  0
   -3.3731    2.2391    1.5790 N   0  0  0  0  0  0  0  0  0  0  0  0
   -2.7599    1.4751    0.5247 C   0  0  2  0  0  0  0  0  0  0  0  0
   -1.5143    0.8067    1.0915 C   0  0  0  0  0  0  0  0  0  0  0  0
   -0.9247    1.2213    2.0872 O   0  0  0  0  0  0  0  0  0  0  0  0
   -2.4106    2.3553   -0.6653 C   0  0  0  0  0  0  0  0  0  0  0  0
   -2.8254    2.4352    2.4150 H   0  0  0  0  0  0  0  0  0  0  0  0
   -3.4836    0.7082    0.2278 H   0  0  0  0  0  0  0  0  0  0  0  0
   -1.6866    3.1298   -0.3871 H   0  0  0  0  0  0  0  0  0  0  0  0
   -1.9704    1.7677   -1.4777 H   0  0  0  0  0  0  0  0  0  0  0  0
   -3.3030    2.8584   -1.0531 H   0  0  0  0  0  0  0  0  0  0  0  0
   -1.1107   -0.2839    0.3303 N   0  0  0  0  0  0  0  0  0  0  0  0
    0.0490   -1.0750    0.6539 C   0  0  2  0  0  0  0  0  0  0  0  0
    0.1678   -2.1712   -0.4010 C   0  0  0  0  0  0  0  0  0  0  0  0
    1.2229   -2.4412   -0.9712 O   0  0  0  0  0  0  0  0  0  0  0  0
   -0.0071   -1.6602    2.0726 C   0  0  2  0  0  0  0  0  0  0  0  0
   -1.1343   -2.5226    2.2186 O   0  0  0  0  0  0  0  0  0  0  0  0
   -0.1084   -0.5768    3.1395 C   0  0  0  0  0  0  0  0  0  0  0  0
   -1.6733   -0.5660   -0.4691 H   0  0  0  0  0  0  0  0  0  0  0  0
    0.9153   -0.4092    0.5582 H   0  0  0  0  0  0  0  0  0  0  0  0
    0.8887   -2.2596    2.2721 H   0  0  0  0  0  0  0  0  0  0  0  0
   -1.0822   -2.8937    3.1126 H   0  0  0  0  0  0  0  0  0  0  0  0
   -0.9906    0.0542    2.9866 H   0  0  0  0  0  0  0  0  0  0  0  0
    0.7830    0.0576    3.1480 H   0  0  0  0  0  0  0  0  0  0  0  0
   -0.2207   -1.0309    4.1302 H   0  0  0  0  0  0  0  0  0  0  0  0
   -1.0521   -2.7776   -0.6652 N   0  0  0  0  0  0  0  0  0  0  0  0
   -1.2033   -3.8228   -1.6500 C   0  0  2  0  0  0  0  0  0  0  0  0
   -0.7051   -5.1240   -1.0351 C   0  0  0  0  0  0  0  0  0  0  0  0
    0.0822   -5.1618   -0.0918 O   0  0  0  0  0  0  0  0  0  0  0  0
   -0.4404   -3.4968   -2.9245 C   0  0  0  0  0  0  0  0  0  0  0  0
   -1.8707   -2.4743   -0.1456 H   0  0  0  0  0  0  0  0  0  0  0  0
   -2.2749   -3.9052   -1.8619 H   0  0  0  0  0  0  0  0  0  0  0  0
    0.6352   -3.4104   -2.7321 H   0  0  0  0  0  0  0  0  0  0  0  0
   -0.5792   -4.2766   -3.6806 H   0  0  0  0  0  0  0  0  0  0  0  0
   -0.7795   -2.5458   -3.3493 H   0  0  0  0  0  0  0  0  0  0  0  0
   -1.2093   -6.2381   -1.6914 N   0  0  0  0  0  0  0  0  0  0  0  0
   -0.8745   -7.5887   -1.3045 C   0  0  0  0  0  0  0  0  0  0  0  0
   -1.8711   -6.1131   -2.4517 H   0  0  0  0  0  0  0  0  0  0  0  0
   -0.0073   -7.9333   -1.8870 H   0  0  0  0  0  0  0  0  0  0  0  0
   -0.6289   -7.6127   -0.2325 H   0  0  0  0  0  0  0  0  0  0  0  0
   -1.7325   -8.2491   -1.4990 H   0  0  0  0  0  0  0  0  0  0  0  0
  1  3  1  0  0  0  0
  1  7  1  0  0  0  0
  1  2  2  0  0  0  0
 32 33  1  0  0  0  0
 33 41  1  0  0  0  0
 33 34  2  0  0  0  0
  8  9  1  0  0  0  0
  9 17  1  0  0  0  0
  9 10  2  0  0  0  0
 18 19  1  0  0  0  0
 19 31  1  0  0  0  0
 19 20  2  0  0  0  0
 32 35  1  0  0  0  0
  8 11  1  0  0  0  0
 21 23  1  0  0  0  0
 41 42  1  0  0  0  0
 31 32  1  0  0  0  0
  7  8  1  0  0  0  0
 18 21  1  0  0  0  0
 17 18  1  0  0  0  0
 21 22  1  0  0  0  0
  3  4  1  0  0  0  0
  3  5  1  0  0  0  0
  3  6  1  0  0  0  0
 35 38  1  0  0  0  0
 35 39  1  0  0  0  0
 35 40  1  0  0  0  0
 11 14  1  0  0  0  0
 11 15  1  0  0  0  0
 11 16  1  0  0  0  0
 23 28  1  0  0  0  0
 23 29  1  0  0  0  0
 23 30  1  0  0  0  0
 42 44  1  0  0  0  0
 42 45  1  0  0  0  0
 42 46  1  0  0  0  0
 32 37  1  0  0  0  0
  8 13  1  0  0  0  0
 18 25  1  0  0  0  0
 21 26  1  0  0  0  0
 41 43  1  0  0  0  0
  7 12  1  0  0  0  0
 31 36  1  0  0  0  0
 17 24  1  0  0  0  0
 22 27  1  0  0  0  0
M  END
$$$$

  -OEChem-05262214473D

 46 45  0     1  0  0  0  0  0999 V2000
   -4.6700    2.7214    1.5150 C   0  0  0  0  0  0  0  0  0  0  0  0
   -5.4532    2.5715    0.5845 O   0  0  0  0  0  0  0  0  0  0  0  0
   -5.0996    3.4865    2.7226 C   0  0  0  0  0  0  0  0  0  0  0  0
   -4.8796    4.5629    2.6387 H   0  0  0  0  0  0  0  0  0  0  0  0
   -6.1861    3.4241    2.8954 H   0  0  0  0  0  0  0  0  0  0  0  0
   -4.6369    3.1693    3.6708 H   0  0  0  0  0  0  0  0  0  0  0  0
   -3.3731    2.2391    1.5790 N   0  0  0  0  0  0  0  0  0  0  0  0
   -2.7599    1.4751    0.5247 C   0  0  2  0  0  0  0  0  0  0  0  0
   -1.5143    0.8067    1.0915 C   0  0  0  0  0  0  0  0  0  0  0  0
   -0.9247    1.2213    2.0872 O   0  0  0  0  0  0  0  0  0  0  0  0
   -2.4106    2.3553   -0.6653 C   0  0  0  0  0  0  0  0  0  0  0  0
   -2.8254    2.4352    2.4150 H   0  0  0  0  0  0  0  0  0  0  0  0
   -3.4836    0.7082    0.2278 H   0  0  0  0  0  0  0  0  0  0  0  0
   -1.6866    3.1298   -0.3871 H   0  0  0  0  0  0  0  0  0  0  0  0
   -1.9704    1.7677   -1.4777 H   0  0  0  0  0  0  0  0  0  0  0  0
   -3.3030    2.8584   -1.0531 H   0  0  0  0  0  0  0  0  0  0  0  0
   -1.1107   -0.2839    0.3303 N   0  0  0  0  0  0  0  0  0  0  0  0
    0.0490   -1.0750    0.6539 C   0  0  2  0  0  0  0  0  0  0  0  0
    0.1678   -2.1712   -0.4010 C   0  0  0  0  0  0  0  0  0  0  0  0
    1.2464   -2.6257   -0.7768 O   0  0  0  0  0  0  0  0  0  0  0  0
   -0.0071   -1.6602    2.0726 C   0  0  2  0  0  0  0  0  0  0  0  0
   -1.1343   -2.5226    2.2186 O   0  0  0  0  0  0  0  0  0  0  0  0
   -0.1084   -0.5768    3.1395 C   0  0  0  0  0  0  0  0  0  0  0  0
   -1.6733   -0.5660   -0.4691 H   0  0  0  0  0  0  0  0  0  0  0  0
    0.9153   -0.4092    0.5582 H   0  0  0  0  0  0  0  0  0  0  0  0
    0.8887   -2.2596    2.2721 H   0  0  0  0  0  0  0  0  0  0  0  0
   -1.0822   -2.8937    3.1126 H   0  0  0  0  0  0  0  0  0  0  0  0
   -0.9906    0.0542    2.9866 H   0  0  0  0  0  0  0  0  0  0  0  0
    0.7830    0.0576    3.1480 H   0  0  0  0  0  0  0  0  0  0  0  0
   -0.2207   -1.0309    4.1302 H   0  0  0  0  0  0  0  0  0  0  0  0
   -1.0685   -2.5461   -0.9076 N   0  0  0  0  0  0  0  0  0  0  0  0
   -1.2147   -3.5436   -1.9415 C   0  0  2  0  0  0  0  0  0  0  0  0
   -1.0791   -4.9154   -1.2940 C   0  0  0  0  0  0  0  0  0  0  0  0
   -0.5023   -5.0980   -0.2239 O   0  0  0  0  0  0  0  0  0  0  0  0
   -0.1806   -3.3568   -3.0407 C   0  0  0  0  0  0  0  0  0  0  0  0
   -1.9032   -2.1015   -0.5367 H   0  0  0  0  0  0  0  0  0  0  0  0
   -2.2248   -3.4301   -2.3499 H   0  0  0  0  0  0  0  0  0  0  0  0
    0.8378   -3.4669   -2.6505 H   0  0  0  0  0  0  0  0  0  0  0  0
   -0.3108   -4.0963   -3.8378 H   0  0  0  0  0  0  0  0  0  0  0  0
   -0.2601   -2.3588   -3.4851 H   0  0  0  0  0  0  0  0  0  0  0  0
   -1.6402   -5.9179   -2.0727 N   0  0  0  0  0  0  0  0  0  0  0  0
   -1.6285   -7.3080   -1.6811 C   0  0  0  0  0  0  0  0  0  0  0  0
   -2.1147   -5.6728   -2.9367 H   0  0  0  0  0  0  0  0  0  0  0  0
   -0.7423   -7.8018   -2.1064 H   0  0  0  0  0  0  0  0  0  0  0  0
   -1.5968   -7.3795   -0.5839 H   0  0  0  0  0  0  0  0  0  0  0  0
   -2.5378   -7.8017   -2.0546 H   0  0  0  0  0  0  0  0  0  0  0  0
  1  3  1  0  0  0  0
  1  7  1  0  0  0  0
  1  2  2  0  0  0  0
 32 33  1  0  0  0  0
 33 41  1  0  0  0  0
 33 34  2  0  0  0  0
  8  9  1  0  0  0  0
  9 17  1  0  0  0  0
  9 10  2  0  0  0  0
 18 19  1  0  0  0  0
 19 31  1  0  0  0  0
 19 20  2  0  0  0  0
 32 35  1  0  0  0  0
  8 11  1  0  0  0  0
 21 23  1  0  0  0  0
 41 42  1  0  0  0  0
 31 32  1  0  0  0  0
  7  8  1  0  0  0  0
 18 21  1  0  0  0  0
 17 18  1  0  0  0  0
 21 22  1  0  0  0  0
  3  4  1  0  0  0  0
  3  5  1  0  0  0  0
  3  6  1  0  0  0  0
 35 38  1  0  0  0  0
 35 39  1  0  0  0  0
 35 40  1  0  0  0  0
 11 14  1  0  0  0  0
 11 15  1  0  0  0  0
 11 16  1  0  0  0  0
 23 28  1  0  0  0  0
 23 29  1  0  0  0  0
 23 30  1  0  0  0  0
 42 44  1  0  0  0  0
 42 45  1  0  0  0  0
 42 46  1  0  0  0  0
 32 37  1  0  0  0  0
  8 13  1  0  0  0  0
 18 25  1  0  0  0  0
 21 26  1  0  0  0  0
 41 43  1  0  0  0  0
  7 12  1  0  0  0  0
 31 36  1  0  0  0  0
 17 24  1  0  0  0  0
 22 27  1  0  0  0  0
M  END
$$$$

  -OEChem-05262214473D

 46 45  0     1  0  0  0  0  0999 V2000
   -4.6700    2.7214    1.5150 C   0  0  0  0  0  0  0  0  0  0  0  0
   -5.4532    2.5715    0.5845 O   0  0  0  0  0  0  0  0  0  0  0  0
   -5.0996    3.4865    2.7226 C   0  0  0  0  0  0  0  0  0  0  0  0
   -4.8796    4.5629    2.6387 H   0  0  0  0  0  0  0  0  0  0  0  0
   -6.1861    3.4241    2.8954 H   0  0  0  0  0  0  0  0  0  0  0  0
   -4.6369    3.1693    3.6708 H   0  0  0  0  0  0  0  0  0  0  0  0
   -3.3731    2.2391    1.5790 N   0  0  0  0  0  0  0  0  0  0  0  0
   -2.7599    1.4751    0.5247 C   0  0  2  0  0  0  0  0  0  0  0  0
   -1.5143    0.8067    1.0915 C   0  0  0  0  0  0  0  0  0  0  0  0
   -0.9247    1.2213    2.0872 O   0  0  0  0  0  0  0  0  0  0  0  0
   -2.4106    2.3553   -0.6653 C   0  0  0  0  0  0  0  0  0  0  0  0
   -2.8254    2.4352    2.4150 H   0  0  0  0  0  0  0  0  0  0  0  0
   -3.4836    0.7082    0.2278 H   0  0  0  0  0  0  0  0  0  0  0  0
   -1.6866    3.1298   -0.3871 H   0  0  0  0  0  0  0  0  0  0  0  0
   -1.9704    1.7677   -1.4777 H   0  0  0  0  0  0  0  0  0  0  0  0
   -3.3030    2.8584   -1.0531 H   0  0  0  0  0  0  0  0  0  0  0  0
   -1.1107   -0.2839    0.3303 N   0  0  0  0  0  0  0  0  0  0  0  0
    0.0490   -1.0750    0.6539 C   0  0  2  0  0  0  0  0  0  0  0  0
    0.1678   -2.1712   -0.4010 C   0  0  0  0  0  0  0  0  0  0  0  0
    1.2000   -2.8121   -0.5884 O   0  0  0  0  0  0  0  0  0  0  0  0
   -0.0071   -1.6602    2.0726 C   0  0  2  0  0  0  0  0  0  0  0  0
   -1.1343   -2.5226    2.2186 O   0  0  0  0  0  0  0  0  0  0  0  0
   -0.1084   -0.5768    3.1395 C   0  0  0  0  0  0  0  0  0  0  0  0
   -1.6733   -0.5660   -0.4691 H   0  0  0  0  0  0  0  0  0  0  0  0
    0.9153   -0.4092    0.5582 H   0  0  0  0  0  0  0  0  0  0  0  0
    0.8887   -2.2596    2.2721 H   0  0  0  0  0  0  0  0  0  0  0  0
   -1.0822   -2.8937    3.1126 H   0  0  0  0  0  0  0  0  0  0  0  0
   -0.9906    0.0542    2.9866 H   0  0  0  0  0  0  0  0  0  0  0  0
    0.7830    0.0576    3.1480 H   0  0  0  0  0  0  0  0  0  0  0  0
   -0.2207   -1.0309    4.1302 H   0  0  0  0  0  0  0  0  0  0  0  0
   -0.9979   -2.3147   -1.1400 N   0  0  0  0  0  0  0  0  0  0  0  0
   -1.1216   -3.2660   -2.2194 C   0  0  2  0  0  0  0  0  0  0  0  0
   -1.3550   -4.6418   -1.6093 C   0  0  0  0  0  0  0  0  0  0  0  0
   -1.0310   -4.9292   -0.4589 O   0  0  0  0  0  0  0  0  0  0  0  0
    0.1170   -3.2658   -3.1019 C   0  0  0  0  0  0  0  0  0  0  0  0
   -1.7952   -1.7278   -0.9130 H   0  0  0  0  0  0  0  0  0  0  0  0
   -2.0007   -2.9705   -2.8023 H   0  0  0  0  0  0  0  0  0  0  0  0
    1.0081   -3.5595   -2.5352 H   0  0  0  0  0  0  0  0  0  0  0  0
    0.0099   -3.9669   -3.9361 H   0  0  0  0  0  0  0  0  0  0  0  0
    0.3003   -2.2684   -3.5160 H   0  0  0  0  0  0  0  0  0  0  0  0
   -1.9283   -5.5238   -2.5147 N   0  0  0  0  0  0  0  0  0  0  0  0
   -2.2366   -6.8944   -2.1794 C   0  0  0  0  0  0  0  0  0  0  0  0
   -2.1811   -5.1942   -3.4416 H   0  0  0  0  0  0  0  0  0  0  0  0
   -1.3880   -7.5389   -2.4523 H   0  0  0  0  0  0  0  0  0  0  0  0
   -2.4246   -6.9740   -1.0986 H   0  0  0  0  0  0  0  0  0  0  0  0
   -3.1323   -7.2143   -2.7320 H   0  0  0  0  0  0  0  0  0  0  0  0
  1  3  1  0  0  0  0
  1  7  1  0  0  0  0
  1  2  2  0  0  0  0
 32 33  1  0  0  0  0
 33 41  1  0  0  0  0
 33 34  2  0  0  0  0
  8  9  1  0  0  0  0
  9 17  1  0  0  0  0
  9 10  2  0  0  0  0
 18 19  1  0  0  0  0
 19 31  1  0  0  0  0
 19 20  2  0  0  0  0
 32 35  1  0  0  0  0
  8 11  1  0  0  0  0
 21 23  1  0  0  0  0
 41 42  1  0  0  0  0
 31 32  1  0  0  0  0
  7  8  1  0  0  0  0
 18 21  1  0  0  0  0
 17 18  1  0  0  0  0
 21 22  1  0  0  0  0
  3  4  1  0  0  0  0
  3  5  1  0  0  0  0
  3  6  1  0  0  0  0
 35 38  1  0  0  0  0
 35 39  1  0  0  0  0
 35 40  1  0  0  0  0
 11 14  1  0  0  0  0
 11 15  1  0  0  0  0
 11 16  1  0  0  0  0
 23 28  1  0  0  0  0
 23 29  1  0  0  0  0
 23 30  1  0  0  0  0
 42 44  1  0  0  0  0
 42 45  1  0  0  0  0
 42 46  1  0  0  0  0
 32 37  1  0  0  0  0
  8 13  1  0  0  0  0
 18 25  1  0  0  0  0
 21 26  1  0  0  0  0
 41 43  1  0  0  0  0
  7 12  1  0  0  0  0
 31 36  1  0  0  0  0
 17 24  1  0  0  0  0
 22 27  1  0  0  0  0
M  END
$$$$

  -OEChem-05262214473D

 46 45  0     1  0  0  0  0  0999 V2000
   -4.6700    2.7214    1.5150 C   0  0  0  0  0  0  0  0  0  0  0  0
   -5.4532    2.5715    0.5845 O   0  0  0  0  0  0  0  0  0  0  0  0
   -5.0996    3.4865    2.7226 C   0  0  0  0  0  0  0  0  0  0  0  0
   -4.8796    4.5629    2.6387 H   0  0  0  0  0  0  0  0  0  0  0  0
   -6.1861    3.4241    2.8954 H   0  0  0  0  0  0  0  0  0  0  0  0
   -4.6369    3.1693    3.6708 H   0  0  0  0  0  0  0  0  0  0  0  0
   -3.3731    2.2391    1.5790 N   0  0  0  0  0  0  0  0  0  0  0  0
   -2.7599    1.4751    0.5247 C   0  0  2  0  0  0  0  0  0  0  0  0
   -1.5143    0.8067    1.0915 C   0  0  0  0  0  0  0  0  0  0  0  0
   -0.9247    1.2213    2.0872 O   0  0  0  0  0  0  0  0  0  0  0  0
   -2.4106    2.3553   -0.6653 C   0  0  0  0  0  0  0  0  0  0  0  0
   -2.8254    2.4352    2.4150 H   0  0  0  0  0  0  0  0  0  0  0  0
   -3.4836    0.7082    0.2278 H   0  0  0  0  0  0  0  0  0  0  0  0
   -1.6866    3.1298   -0.3871 H   0  0  0  0  0  0  0  0  0  0  0  0
   -1.9704    1.7677   -1.4777 H   0  0  0  0  0  0  0  0  0  0  0  0
   -3.3030    2.8584   -1.0531 H   0  0  0  0  0  0  0  0  0  0  0  0
   -1.1107   -0.2839    0.3303 N   0  0  0  0  0  0  0  0  0  0  0  0
    0.0490   -1.0750    0.6539 C   0  0  2  0  0  0  0  0  0  0  0  0
    0.1678   -2.1712   -0.4010 C   0  0  0  0  0  0  0  0  0  0  0  0
    1.0868   -2.9876   -0.4188 O   0  0  0  0  0  0  0  0  0  0  0  0
   -0.0071   -1.6602    2.0726 C   0  0  2  0  0  0  0  0  0  0  0  0
   -1.1343   -2.5226    2.2186 O   0  0  0  0  0  0  0  0  0  0  0  0
   -0.1084   -0.5768    3.1395 C   0  0  0  0  0  0  0  0  0  0  0  0
   -1.6733   -0.5660   -0.4691 H   0  0  0  0  0  0  0  0  0  0  0  0
    0.9153   -0.4092    0.5582 H   0  0  0  0  0  0  0  0  0  0  0  0
    0.8887   -2.2596    2.2721 H   0  0  0  0  0  0  0  0  0  0  0  0
   -1.0822   -2.8937    3.1126 H   0  0  0  0  0  0  0  0  0  0  0  0
   -0.9906    0.0542    2.9866 H   0  0  0  0  0  0  0  0  0  0  0  0
    0.7830    0.0576    3.1480 H   0  0  0  0  0  0  0  0  0  0  0  0
   -0.2207   -1.0309    4.1302 H   0  0  0  0  0  0  0  0  0  0  0  0
   -0.8450   -2.0992   -1.3468 N   0  0  0  0  0  0  0  0  0  0  0  0
   -0.9303   -3.0090   -2.4650 C   0  0  2  0  0  0  0  0  0  0  0  0
   -1.5138   -4.3218   -1.9598 C   0  0  0  0  0  0  0  0  0  0  0  0
   -1.4677   -4.6668   -0.7808 O   0  0  0  0  0  0  0  0  0  0  0  0
    0.4321   -3.2298   -3.1037 C   0  0  0  0  0  0  0  0  0  0  0  0
   -1.5541   -1.3785   -1.2488 H   0  0  0  0  0  0  0  0  0  0  0  0
   -1.6179   -2.5574   -3.1884 H   0  0  0  0  0  0  0  0  0  0  0  0
    1.1346   -3.6816   -2.3940 H   0  0  0  0  0  0  0  0  0  0  0  0
    0.3612   -3.8973   -3.9689 H   0  0  0  0  0  0  0  0  0  0  0  0
    0.8635   -2.2807   -3.4398 H   0  0  0  0  0  0  0  0  0  0  0  0
   -2.0539   -5.0826   -2.9872 N   0  0  0  0  0  0  0  0  0  0  0  0
   -2.6573   -6.3760   -2.7655 C   0  0  0  0  0  0  0  0  0  0  0  0
   -2.0657   -4.7098   -3.9320 H   0  0  0  0  0  0  0  0  0  0  0  0
   -1.9003   -7.1625   -2.9012 H   0  0  0  0  0  0  0  0  0  0  0  0
   -3.0559   -6.4238   -1.7414 H   0  0  0  0  0  0  0  0  0  0  0  0
   -3.4756   -6.5269   -3.4850 H   0  0  0  0  0  0  0  0  0  0  0  0
  1  3  1  0  0  0  0
  1  7  1  0  0  0  0
  1  2  2  0  0  0  0
 32 33  1  0  0  0  0
 33 41  1  0  0  0  0
 33 34  2  0  0  0  0
  8  9  1  0  0  0  0
  9 17  1  0  0  0  0
  9 10  2  0  0  0  0
 18 19  1  0  0  0  0
 19 31  1  0  0  0  0
 19 20  2  0  0  0  0
 32 35  1  0  0  0  0
  8 11  1  0  0  0  0
 21 23  1  0  0  0  0
 41 42  1  0  0  0  0
 31 32  1  0  0  0  0
  7  8  1  0  0  0  0
 18 21  1  0  0  0  0
 17 18  1  0  0  0  0
 21 22  1  0  0  0  0
  3  4  1  0  0  0  0
  3  5  1  0  0  0  0
  3  6  1  0  0  0  0
 35 38  1  0  0  0  0
 35 39  1  0  0  0  0
 35 40  1  0  0  0  0
 11 14  1  0  0  0  0
 11 15  1  0  0  0  0
 11 16  1  0  0  0  0
 23 28  1  0  0  0  0
 23 29  1  0  0  0  0
 23 30  1  0  0  0  0
 42 44  1  0  0  0  0
 42 45  1  0  0  0  0
 42 46  1  0  0  0  0
 32 37  1  0  0  0  0
  8 13  1  0  0  0  0
 18 25  1  0  0  0  0
 21 26  1  0  0  0  0
 41 43  1  0  0  0  0
  7 12  1  0  0  0  0
 31 36  1  0  0  0  0
 17 24  1  0  0  0  0
 22 27  1  0  0  0  0
M  END
$$$$

  -OEChem-05262214473D

 46 45  0     1  0  0  0  0  0999 V2000
   -4.6700    2.7214    1.5150 C   0  0  0  0  0  0  0  0  0  0  0  0
   -5.4532    2.5715    0.5845 O   0  0  0  0  0  0  0  0  0  0  0  0
   -5.0996    3.4865    2.7226 C   0  0  0  0  0  0  0  0  0  0  0  0
   -4.8796    4.5629    2.6387 H   0  0  0  0  0  0  0  0  0  0  0  0
   -6.1861    3.4241    2.8954 H   0  0  0  0  0  0  0  0  0  0  0  0
   -4.6369    3.1693    3.6708 H   0  0  0  0  0  0  0  0  0  0  0  0
   -3.3731    2.2391    1.5790 N   0  0  0  0  0  0  0  0  0  0  0  0
   -2.7599    1.4751    0.5247 C   0  0  2  0  0  0  0  0  0  0  0  0
   -1.5143    0.8067    1.0915 C   0  0  0  0  0  0  0  0  0  0  0  0
   -0.9247    1.2213    2.0872 O   0  0  0  0  0  0  0  0  0  0  0  0
   -2.4106    2.3553   -0.6653 C   0  0  0  0  0  0  0  0  0  0  0  0
   -2.8254    2.4352    2.4150 H   0  0  0  0  0  0  0  0  0  0  0  0
   -3.4836    0.7082    0.2278 H   0  0  0  0  0  0  0  0  0  0  0  0
   -1.6866    3.1298   -0.3871 H   0  0  0  0  0  0  0  0  0  0  0  0
   -1.9704    1.7677   -1.4777 H   0  0  0  0  0  0  0  0  0  0  0  0
   -3.3030    2.8584   -1.0531 H   0  0  0  0  0  0  0  0  0  0  0  0
   -1.1107   -0.2839    0.3303 N   0  0  0  0  0  0  0  0  0  0  0  0
    0.0490   -1.0750    0.6539 C   0  0  2  0  0  0  0  0  0  0  0  0
    0.1678   -2.1712   -0.4010 C   0  0  0  0  0  0  0  0  0  0  0  0
    0.9145   -3.1402   -0.2795 O   0  0  0  0  0  0  0  0  0  0  0  0
   -0.0071   -1.6602    2.0726 C   0  0  2  0  0  0  0  0  0  0  0  0
   -1.1343   -2.5226    2.2186 O   0  0  0  0  0  0  0  0  0  0  0  0
   -0.1084   -0.5768    3.1395 C   0  0  0  0  0  0  0  0  0  0  0  0
   -1.6733   -0.5660   -0.4691 H   0  0  0  0  0  0  0  0  0  0  0  0
    0.9153   -0.4092    0.5582 H   0  0  0  0  0  0  0  0  0  0  0  0
    0.8887   -2.2596    2.2721 H   0  0  0  0  0  0  0  0  0  0  0  0
   -1.0822   -2.8937    3.1126 H   0  0  0  0  0  0  0  0  0  0  0  0
   -0.9906    0.0542    2.9866 H   0  0  0  0  0  0  0  0  0  0  0  0
    0.7830    0.0576    3.1480 H   0  0  0  0  0  0  0  0  0  0  0  0
   -0.2207   -1.0309    4.1302 H   0  0  0  0  0  0  0  0  0  0  0  0
   -0.6204   -1.9142   -1.5138 N   0  0  0  0  0  0  0  0  0  0  0  0
   -0.6538   -2.7900   -2.6615 C   0  0  2  0  0  0  0  0  0  0  0  0
   -1.5449   -3.9773   -2.3213 C   0  0  0  0  0  0  0  0  0  0  0  0
   -1.7827   -4.3286   -1.1676 O   0  0  0  0  0  0  0  0  0  0  0  0
    0.7432   -3.2514   -3.0462 C   0  0  0  0  0  0  0  0  0  0  0  0
   -1.1963   -1.0774   -1.5213 H   0  0  0  0  0  0  0  0  0  0  0  0
   -1.1023   -2.2192   -3.4819 H   0  0  0  0  0  0  0  0  0  0  0  0
    1.2087   -3.8251   -2.2365 H   0  0  0  0  0  0  0  0  0  0  0  0
    0.7190   -3.8923   -3.9338 H   0  0  0  0  0  0  0  0  0  0  0  0
    1.3911   -2.3949   -3.2617 H   0  0  0  0  0  0  0  0  0  0  0  0
   -2.0084   -4.6246   -3.4581 N   0  0  0  0  0  0  0  0  0  0  0  0
   -2.8619   -5.7882   -3.3994 C   0  0  0  0  0  0  0  0  0  0  0  0
   -1.7765   -4.2527   -4.3745 H   0  0  0  0  0  0  0  0  0  0  0  0
   -2.2443   -6.6981   -3.4225 H   0  0  0  0  0  0  0  0  0  0  0  0
   -3.4478   -5.7664   -2.4687 H   0  0  0  0  0  0  0  0  0  0  0  0
   -3.5441   -5.7863   -4.2623 H   0  0  0  0  0  0  0  0  0  0  0  0
  1  3  1  0  0  0  0
  1  7  1  0  0  0  0
  1  2  2  0  0  0  0
 32 33  1  0  0  0  0
 33 41  1  0  0  0  0
 33 34  2  0  0  0  0
  8  9  1  0  0  0  0
  9 17  1  0  0  0  0
  9 10  2  0  0  0  0
 18 19  1  0  0  0  0
 19 31  1  0  0  0  0
 19 20  2  0  0  0  0
 32 35  1  0  0  0  0
  8 11  1  0  0  0  0
 21 23  1  0  0  0  0
 41 42  1  0  0  0  0
 31 32  1  0  0  0  0
  7  8  1  0  0  0  0
 18 21  1  0  0  0  0
 17 18  1  0  0  0  0
 21 22  1  0  0  0  0
  3  4  1  0  0  0  0
  3  5  1  0  0  0  0
  3  6  1  0  0  0  0
 35 38  1  0  0  0  0
 35 39  1  0  0  0  0
 35 40  1  0  0  0  0
 11 14  1  0  0  0  0
 11 15  1  0  0  0  0
 11 16  1  0  0  0  0
 23 28  1  0  0  0  0
 23 29  1  0  0  0  0
 23 30  1  0  0  0  0
 42 44  1  0  0  0  0
 42 45  1  0  0  0  0
 42 46  1  0  0  0  0
 32 37  1  0  0  0  0
  8 13  1  0  0  0  0
 18 25  1  0  0  0  0
 21 26  1  0  0  0  0
 41 43  1  0  0  0  0
  7 12  1  0  0  0  0
 31 36  1  0  0  0  0
 17 24  1  0  0  0  0
 22 27  1  0  0  0  0
M  END
$$$$

  -OEChem-05262214473D

 46 45  0     1  0  0  0  0  0999 V2000
   -4.6700    2.7214    1.5150 C   0  0  0  0  0  0  0  0  0  0  0  0
   -5.4532    2.5715    0.5845 O   0  0  0  0  0  0  0  0  0  0  0  0
   -5.0996    3.4865    2.7226 C   0  0  0  0  0  0  0  0  0  0  0  0
   -4.8796    4.5629    2.6387 H   0  0  0  0  0  0  0  0  0  0  0  0
   -6.1861    3.4241    2.8954 H   0  0  0  0  0  0  0  0  0  0  0  0
   -4.6369    3.1693    3.6708 H   0  0  0  0  0  0  0  0  0  0  0  0
   -3.3731    2.2391    1.5790 N   0  0  0  0  0  0  0  0  0  0  0  0
   -2.7599    1.4751    0.5247 C   0  0  2  0  0  0  0  0  0  0  0  0
   -1.5143    0.8067    1.0915 C   0  0  0  0  0  0  0  0  0  0  0  0
   -0.9247    1.2213    2.0872 O   0  0  0  0  0  0  0  0  0  0  0  0
   -2.4106    2.3553   -0.6653 C   0  0  0  0  0  0  0  0  0  0  0  0
   -2.8254    2.4352    2.4150 H   0  0  0  0  0  0  0  0  0  0  0  0
   -3.4836    0.7082    0.2278 H   0  0  0  0  0  0  0  0  0  0  0  0
   -1.6866    3.1298   -0.3871 H   0  0  0  0  0  0  0  0  0  0  0  0
   -1.9704    1.7677   -1.4777 H   0  0  0  0  0  0  0  0  0  0  0  0
   -3.3030    2.8584   -1.0531 H   0  0  0  0  0  0  0  0  0  0  0  0
   -1.1107   -0.2839    0.3303 N   0  0  0  0  0  0  0  0  0  0  0  0
    0.0490   -1.0750    0.6539 C   0  0  2  0  0  0  0  0  0  0  0  0
    0.1678   -2.1712   -0.4010 C   0  0  0  0  0  0  0  0  0  0  0  0
    0.6949   -3.2596   -0.1801 O   0  0  0  0  0  0  0  0  0  0  0  0
   -0.0071   -1.6602    2.0726 C   0  0  2  0  0  0  0  0  0  0  0  0
   -1.1343   -2.5226    2.2186 O   0  0  0  0  0  0  0  0  0  0  0  0
   -0.1084   -0.5768    3.1395 C   0  0  0  0  0  0  0  0  0  0  0  0
   -1.6733   -0.5660   -0.4691 H   0  0  0  0  0  0  0  0  0  0  0  0
    0.9153   -0.4092    0.5582 H   0  0  0  0  0  0  0  0  0  0  0  0
    0.8887   -2.2596    2.2721 H   0  0  0  0  0  0  0  0  0  0  0  0
   -1.0822   -2.8937    3.1126 H   0  0  0  0  0  0  0  0  0  0  0  0
   -0.9906    0.0542    2.9866 H   0  0  0  0  0  0  0  0  0  0  0  0
    0.7830    0.0576    3.1480 H   0  0  0  0  0  0  0  0  0  0  0  0
   -0.2207   -1.0309    4.1302 H   0  0  0  0  0  0  0  0  0  0  0  0
   -0.3393   -1.7723   -1.6296 N   0  0  0  0  0  0  0  0  0  0  0  0
   -0.3110   -2.6239   -2.7955 C   0  0  2  0  0  0  0  0  0  0  0  0
   -1.4460   -3.6316   -2.6694 C   0  0  0  0  0  0  0  0  0  0  0  0
   -1.9546   -3.9379   -1.5930 O   0  0  0  0  0  0  0  0  0  0  0  0
    1.0292   -3.3291   -2.9333 C   0  0  0  0  0  0  0  0  0  0  0  0
   -0.7461   -0.8452   -1.7120 H   0  0  0  0  0  0  0  0  0  0  0  0
   -0.4893   -1.9788   -3.6627 H   0  0  0  0  0  0  0  0  0  0  0  0
    1.2254   -3.9801   -2.0735 H   0  0  0  0  0  0  0  0  0  0  0  0
    1.0590   -3.9522   -3.8332 H   0  0  0  0  0  0  0  0  0  0  0  0
    1.8472   -2.6032   -2.9939 H   0  0  0  0  0  0  0  0  0  0  0  0
   -1.7949   -4.1807   -3.8953 N   0  0  0  0  0  0  0  0  0  0  0  0
   -2.8365   -5.1710   -4.0379 C   0  0  0  0  0  0  0  0  0  0  0  0
   -1.3330   -3.8540   -4.7389 H   0  0  0  0  0  0  0  0  0  0  0  0
   -2.3966   -6.1776   -3.9806 H   0  0  0  0  0  0  0  0  0  0  0  0
   -3.5735   -5.0466   -3.2308 H   0  0  0  0  0  0  0  0  0  0  0  0
   -3.3333   -5.0430   -5.0109 H   0  0  0  0  0  0  0  0  0  0  0  0
  1  3  1  0  0  0  0
  1  7  1  0  0  0  0
  1  2  2  0  0  0  0
 32 33  1  0  0  0  0
 33 41  1  0  0  0  0
 33 34  2  0  0  0  0
  8  9  1  0  0  0  0
  9 17  1  0  0  0  0
  9 10  2  0  0  0  0
 18 19  1  0  0  0  0
 19 31  1  0  0  0  0
 19 20  2  0  0  0  0
 32 35  1  0  0  0  0
  8 11  1  0  0  0  0
 21 23  1  0  0  0  0
 41 42  1  0  0  0  0
 31 32  1  0  0  0  0
  7  8  1  0  0  0  0
 18 21  1  0  0  0  0
 17 18  1  0  0  0  0
 21 22  1  0  0  0  0
  3  4  1  0  0  0  0
  3  5  1  0  0  0  0
  3  6  1  0  0  0  0
 35 38  1  0  0  0  0
 35 39  1  0  0  0  0
 35 40  1  0  0  0  0
 11 14  1  0  0  0  0
 11 15  1  0  0  0  0
 11 16  1  0  0  0  0
 23 28  1  0  0  0  0
 23 29  1  0  0  0  0
 23 30  1  0  0  0  0
 42 44  1  0  0  0  0
 42 45  1  0  0  0  0
 42 46  1  0  0  0  0
 32 37  1  0  0  0  0
  8 13  1  0  0  0  0
 18 25  1  0  0  0  0
 21 26  1  0  0  0  0
 41 43  1  0  0  0  0
  7 12  1  0  0  0  0
 31 36  1  0  0  0  0
 17 24  1  0  0  0  0
 22 27  1  0  0  0  0
M  END
$$$$

  -OEChem-05262214473D

 46 45  0     1  0  0  0  0  0999 V2000
   -4.6700    2.7214    1.5150 C   0  0  0  0  0  0  0  0  0  0  0  0
   -5.4532    2.5715    0.5845 O   0  0  0  0  0  0  0  0  0  0  0  0
   -5.0996    3.4865    2.7226 C   0  0  0  0  0  0  0  0  0  0  0  0
   -4.8796    4.5629    2.6387 H   0  0  0  0  0  0  0  0  0  0  0  0
   -6.1861    3.4241    2.8954 H   0  0  0  0  0  0  0  0  0  0  0  0
   -4.6369    3.1693    3.6708 H   0  0  0  0  0  0  0  0  0  0  0  0
   -3.3731    2.2391    1.5790 N   0  0  0  0  0  0  0  0  0  0  0  0
   -2.7599    1.4751    0.5247 C   0  0  2  0  0  0  0  0  0  0  0  0
   -1.5143    0.8067    1.0915 C   0  0  0  0  0  0  0  0  0  0  0  0
   -0.9247    1.2213    2.0872 O   0  0  0  0  0  0  0  0  0  0  0  0
   -2.4106    2.3553   -0.6653 C   0  0  0  0  0  0  0  0  0  0  0  0
   -2.8254    2.4352    2.4150 H   0  0  0  0  0  0  0  0  0  0  0  0
   -3.4836    0.7082    0.2278 H   0  0  0  0  0  0  0  0  0  0  0  0
   -1.6866    3.1298   -0.3871 H   0  0  0  0  0  0  0  0  0  0  0  0
   -1.9704    1.7677   -1.4777 H   0  0  0  0  0  0  0  0  0  0  0  0
   -3.3030    2.8584   -1.0531 H   0  0  0  0  0  0  0  0  0  0  0  0
   -1.1107   -0.2839    0.3303 N   0  0  0  0  0  0  0  0  0  0  0  0
    0.0490   -1.0750    0.6539 C   0  0  2  0  0  0  0  0  0  0  0  0
    0.1678   -2.1712   -0.4010 C   0  0  0  0  0  0  0  0  0  0  0  0
    0.4429   -3.3377   -0.1274 O   0  0  0  0  0  0  0  0  0  0  0  0
   -0.0071   -1.6602    2.0726 C   0  0  2  0  0  0  0  0  0  0  0  0
   -1.1343   -2.5226    2.2186 O   0  0  0  0  0  0  0  0  0  0  0  0
   -0.1084   -0.5768    3.1395 C   0  0  0  0  0  0  0  0  0  0  0  0
   -1.6733   -0.5660   -0.4691 H   0  0  0  0  0  0  0  0  0  0  0  0
    0.9153   -0.4092    0.5582 H   0  0  0  0  0  0  0  0  0  0  0  0
    0.8887   -2.2596    2.2721 H   0  0  0  0  0  0  0  0  0  0  0  0
   -1.0822   -2.8937    3.1126 H   0  0  0  0  0  0  0  0  0  0  0  0
   -0.9906    0.0542    2.9866 H   0  0  0  0  0  0  0  0  0  0  0  0
    0.7830    0.0576    3.1480 H   0  0  0  0  0  0  0  0  0  0  0  0
   -0.2207   -1.0309    4.1302 H   0  0  0  0  0  0  0  0  0  0  0  0
   -0.0208   -1.6833   -1.6863 N   0  0  0  0  0  0  0  0  0  0  0  0
    0.0747   -2.5221   -2.8578 C   0  0  2  0  0  0  0  0  0  0  0  0
   -1.2239   -3.3084   -2.9803 C   0  0  0  0  0  0  0  0  0  0  0  0
   -1.9716   -3.5211   -2.0280 O   0  0  0  0  0  0  0  0  0  0  0  0
    1.2706   -3.4576   -2.7725 C   0  0  0  0  0  0  0  0  0  0  0  0
   -0.2343   -0.6976   -1.8077 H   0  0  0  0  0  0  0  0  0  0  0  0
    0.1794   -1.8526   -3.7185 H   0  0  0  0  0  0  0  0  0  0  0  0
    1.1834   -4.1362   -1.9161 H   0  0  0  0  0  0  0  0  0  0  0  0
    1.3581   -4.0729   -3.6741 H   0  0  0  0  0  0  0  0  0  0  0  0
    2.2007   -2.8914   -2.6546 H   0  0  0  0  0  0  0  0  0  0  0  0
   -1.4280   -3.7814   -4.2690 N   0  0  0  0  0  0  0  0  0  0  0  0
   -2.5829   -4.5666   -4.6375 C   0  0  0  0  0  0  0  0  0  0  0  0
   -0.7655   -3.5409   -5.0003 H   0  0  0  0  0  0  0  0  0  0  0  0
   -2.3468   -5.6363   -4.5375 H   0  0  0  0  0  0  0  0  0  0  0  0
   -3.4244   -4.3136   -3.9758 H   0  0  0  0  0  0  0  0  0  0  0  0
   -2.8575   -4.3477   -5.6799 H   0  0  0  0  0  0  0  0  0  0  0  0
  1  3  1  0  0  0  0
  1  7  1  0  0  0  0
  1  2  2  0  0  0  0
 32 33  1  0  0  0  0
 33 41  1  0  0  0  0
 33 34  2  0  0  0  0
  8  9  1  0  0  0  0
  9 17  1  0  0  0  0
  9 10  2  0  0  0  0
 18 19  1  0  0  0  0
 19 31  1  0  0  0  0
 19 20  2  0  0  0  0
 32 35  1  0  0  0  0
  8 11  1  0  0  0  0
 21 23  1  0  0  0  0
 41 42  1  0  0  0  0
 31 32  1  0  0  0  0
  7  8  1  0  0  0  0
 18 21  1  0  0  0  0
 17 18  1  0  0  0  0
 21 22  1  0  0  0  0
  3  4  1  0  0  0  0
  3  5  1  0  0  0  0
  3  6  1  0  0  0  0
 35 38  1  0  0  0  0
 35 39  1  0  0  0  0
 35 40  1  0  0  0  0
 11 14  1  0  0  0  0
 11 15  1  0  0  0  0
 11 16  1  0  0  0  0
 23 28  1  0  0  0  0
 23 29  1  0  0  0  0
 23 30  1  0  0  0  0
 42 44  1  0  0  0  0
 42 45  1  0  0  0  0
 42 46  1  0  0  0  0
 32 37  1  0  0  0  0
  8 13  1  0  0  0  0
 18 25  1  0  0  0  0
 21 26  1  0  0  0  0
 41 43  1  0  0  0  0
  7 12  1  0  0  0  0
 31 36  1  0  0  0  0
 17 24  1  0  0  0  0
 22 27  1  0  0  0  0
M  END
$$$$

  -OEChem-05262214473D

 46 45  0     1  0  0  0  0  0999 V2000
   -4.6700    2.7214    1.5150 C   0  0  0  0  0  0  0  0  0  0  0  0
   -5.4532    2.5715    0.5845 O   0  0  0  0  0  0  0  0  0  0  0  0
   -5.0996    3.4865    2.7226 C   0  0  0  0  0  0  0  0  0  0  0  0
   -4.8796    4.5629    2.6387 H   0  0  0  0  0  0  0  0  0  0  0  0
   -6.1861    3.4241    2.8954 H   0  0  0  0  0  0  0  0  0  0  0  0
   -4.6369    3.1693    3.6708 H   0  0  0  0  0  0  0  0  0  0  0  0
   -3.3731    2.2391    1.5790 N   0  0  0  0  0  0  0  0  0  0  0  0
   -2.7599    1.4751    0.5247 C   0  0  2  0  0  0  0  0  0  0  0  0
   -1.5143    0.8067    1.0915 C   0  0  0  0  0  0  0  0  0  0  0  0
   -0.9247    1.2213    2.0872 O   0  0  0  0  0  0  0  0  0  0  0  0
   -2.4106    2.3553   -0.6653 C   0  0  0  0  0  0  0  0  0  0  0  0
   -2.8254    2.4352    2.4150 H   0  0  0  0  0  0  0  0  0  0  0  0
   -3.4836    0.7082    0.2278 H   0  0  0  0  0  0  0  0  0  0  0  0
   -1.6866    3.1298   -0.3871 H   0  0  0  0  0  0  0  0  0  0  0  0
   -1.9704    1.7677   -1.4777 H   0  0  0  0  0  0  0  0  0  0  0  0
   -3.3030    2.8584   -1.0531 H   0  0  0  0  0  0  0  0  0  0  0  0
   -1.1107   -0.2839    0.3303 N   0  0  0  0  0  0  0  0  0  0  0  0
    0.0490   -1.0750    0.6539 C   0  0  2  0  0  0  0  0  0  0  0  0
    0.1678   -2.1712   -0.4010 C   0  0  0  0  0  0  0  0  0  0  0  0
    0.1758   -3.3691   -0.1248 O   0  0  0  0  0  0  0  0  0  0  0  0
   -0.0071   -1.6602    2.0726 C   0  0  2  0  0  0  0  0  0  0  0  0
   -1.1343   -2.5226    2.2186 O   0  0  0  0  0  0  0  0  0  0  0  0
   -0.1084   -0.5768    3.1395 C   0  0  0  0  0  0  0  0  0  0  0  0
   -1.6733   -0.5660   -0.4691 H   0  0  0  0  0  0  0  0  0  0  0  0
    0.9153   -0.4092    0.5582 H   0  0  0  0  0  0  0  0  0  0  0  0
    0.8887   -2.2596    2.2721 H   0  0  0  0  0  0  0  0  0  0  0  0
   -1.0822   -2.8937    3.1126 H   0  0  0  0  0  0  0  0  0  0  0  0
   -0.9906    0.0542    2.9866 H   0  0  0  0  0  0  0  0  0  0  0  0
    0.7830    0.0576    3.1480 H   0  0  0  0  0  0  0  0  0  0  0  0
   -0.2207   -1.0309    4.1302 H   0  0  0  0  0  0  0  0  0  0  0  0
    0.3133   -1.6531   -1.6800 N   0  0  0  0  0  0  0  0  0  0  0  0
    0.4770   -2.4916   -2.8442 C   0  0  2  0  0  0  0  0  0  0  0  0
   -0.8938   -3.0297   -3.2327 C   0  0  0  0  0  0  0  0  0  0  0  0
   -1.8326   -3.1068   -2.4430 O   0  0  0  0  0  0  0  0  0  0  0  0
    1.4508   -3.6282   -2.5750 C   0  0  0  0  0  0  0  0  0  0  0  0
    0.3043   -0.6447   -1.8021 H   0  0  0  0  0  0  0  0  0  0  0  0
    0.8583   -1.8493   -3.6455 H   0  0  0  0  0  0  0  0  0  0  0  0
    1.0857   -4.2825   -1.7750 H   0  0  0  0  0  0  0  0  0  0  0  0
    1.5957   -4.2463   -3.4672 H   0  0  0  0  0  0  0  0  0  0  0  0
    2.4276   -3.2398   -2.2669 H   0  0  0  0  0  0  0  0  0  0  0  0
   -0.9327   -3.4538   -4.5536 N   0  0  0  0  0  0  0  0  0  0  0  0
   -2.1183   -4.0160   -5.1573 C   0  0  0  0  0  0  0  0  0  0  0  0
   -0.1127   -3.3347   -5.1411 H   0  0  0  0  0  0  0  0  0  0  0  0
   -2.0983   -5.1111   -5.0552 H   0  0  0  0  0  0  0  0  0  0  0  0
   -3.0108   -3.6172   -4.6529 H   0  0  0  0  0  0  0  0  0  0  0  0
   -2.1491   -3.7478   -6.2236 H   0  0  0  0  0  0  0  0  0  0  0  0
  1  3  1  0  0  0  0
  1  7  1  0  0  0  0
  1  2  2  0  0  0  0
 32 33  1  0  0  0  0
 33 41  1  0  0  0  0
 33 34  2  0  0  0  0
  8  9  1  0  0  0  0
  9 17  1  0  0  0  0
  9 10  2  0  0  0  0
 18 19  1  0  0  0  0
 19 31  1  0  0  0  0
 19 20  2  0  0  0  0
 32 35  1  0  0  0  0
  8 11  1  0  0  0  0
 21 23  1  0  0  0  0
 41 42  1  0  0  0  0
 31 32  1  0  0  0  0
  7  8  1  0  0  0  0
 18 21  1  0  0  0  0
 17 18  1  0  0  0  0
 21 22  1  0  0  0  0
  3  4  1  0  0  0  0
  3  5  1  0  0  0  0
  3  6  1  0  0  0  0
 35 38  1  0  0  0  0
 35 39  1  0  0  0  0
 35 40  1  0  0  0  0
 11 14  1  0  0  0  0
 11 15  1  0  0  0  0
 11 16  1  0  0  0  0
 23 28  1  0  0  0  0
 23 29  1  0  0  0  0
 23 30  1  0  0  0  0
 42 44  1  0  0  0  0
 42 45  1  0  0  0  0
 42 46  1  0  0  0  0
 32 37  1  0  0  0  0
  8 13  1  0  0  0  0
 18 25  1  0  0  0  0
 21 26  1  0  0  0  0
 41 43  1  0  0  0  0
  7 12  1  0  0  0  0
 31 36  1  0  0  0  0
 17 24  1  0  0  0  0
 22 27  1  0  0  0  0
M  END
$$$$

  -OEChem-05262214473D

 46 45  0     1  0  0  0  0  0999 V2000
   -4.6700    2.7214    1.5150 C   0  0  0  0  0  0  0  0  0  0  0  0
   -5.4532    2.5715    0.5845 O   0  0  0  0  0  0  0  0  0  0  0  0
   -5.0996    3.4865    2.7226 C   0  0  0  0  0  0  0  0  0  0  0  0
   -4.8796    4.5629    2.6387 H   0  0  0  0  0  0  0  0  0  0  0  0
   -6.1861    3.4241    2.8954 H   0  0  0  0  0  0  0  0  0  0  0  0
   -4.6369    3.1693    3.6708 H   0  0  0  0  0  0  0  0  0  0  0  0
   -3.3731    2.2391    1.5790 N   0  0  0  0  0  0  0  0  0  0  0  0
   -2.7599    1.4751    0.5247 C   0  0  2  0  0  0  0  0  0  0  0  0
   -1.5143    0.8067    1.0915 C   0  0  0  0  0  0  0  0  0  0  0  0
   -0.9247    1.2213    2.0872 O   0  0  0  0  0  0  0  0  0  0  0  0
   -2.4106    2.3553   -0.6653 C   0  0  0  0  0  0  0  0  0  0  0  0
   -2.8254    2.4352    2.4150 H   0  0  0  0  0  0  0  0  0  0  0  0
   -3.4836    0.7082    0.2278 H   0  0  0  0  0  0  0  0  0  0  0  0
   -1.6866    3.1298   -0.3871 H   0  0  0  0  0  0  0  0  0  0  0  0
   -1.9704    1.7677   -1.4777 H   0  0  0  0  0  0  0  0  0  0  0  0
   -3.3030    2.8584   -1.0531 H   0  0  0  0  0  0  0  0  0  0  0  0
   -1.1107   -0.2839    0.3303 N   0  0  0  0  0  0  0  0  0  0  0  0
    0.0490   -1.0750    0.6539 C   0  0  2  0  0  0  0  0  0  0  0  0
    0.1678   -2.1712   -0.4010 C   0  0  0  0  0  0  0  0  0  0  0  0
   -0.0884   -3.3517   -0.1727 O   0  0  0  0  0  0  0  0  0  0  0  0
   -0.0071   -1.6602    2.0726 C   0  0  2  0  0  0  0  0  0  0  0  0
   -1.1343   -2.5226    2.2186 O   0  0  0  0  0  0  0  0  0  0  0  0
   -0.1084   -0.5768    3.1395 C   0  0  0  0  0  0  0  0  0  0  0  0
   -1.6733   -0.5660   -0.4691 H   0  0  0  0  0  0  0  0  0  0  0  0
    0.9153   -0.4092    0.5582 H   0  0  0  0  0  0  0  0  0  0  0  0
    0.8887   -2.2596    2.2721 H   0  0  0  0  0  0  0  0  0  0  0  0
   -1.0822   -2.8937    3.1126 H   0  0  0  0  0  0  0  0  0  0  0  0
   -0.9906    0.0542    2.9866 H   0  0  0  0  0  0  0  0  0  0  0  0
    0.7830    0.0576    3.1480 H   0  0  0  0  0  0  0  0  0  0  0  0
   -0.2207   -1.0309    4.1302 H   0  0  0  0  0  0  0  0  0  0  0  0
    0.6403   -1.6838   -1.6113 N   0  0  0  0  0  0  0  0  0  0  0  0
    0.8686   -2.5343   -2.7557 C   0  0  2  0  0  0  0  0  0  0  0  0
   -0.4781   -2.8145   -3.4096 C   0  0  0  0  0  0  0  0  0  0  0  0
   -1.5470   -2.7231   -2.8096 O   0  0  0  0  0  0  0  0  0  0  0  0
    1.5577   -3.8292   -2.3542 C   0  0  0  0  0  0  0  0  0  0  0  0
    0.8330   -0.6900   -1.6955 H   0  0  0  0  0  0  0  0  0  0  0  0
    1.5012   -1.9690   -3.4487 H   0  0  0  0  0  0  0  0  0  0  0  0
    0.9389   -4.4092   -1.6599 H   0  0  0  0  0  0  0  0  0  0  0  0
    1.7558   -4.4603   -3.2267 H   0  0  0  0  0  0  0  0  0  0  0  0
    2.5122   -3.6248   -1.8573 H   0  0  0  0  0  0  0  0  0  0  0  0
   -0.3428   -3.2203   -4.7299 N   0  0  0  0  0  0  0  0  0  0  0  0
   -1.4744   -3.5569   -5.5619 C   0  0  0  0  0  0  0  0  0  0  0  0
    0.5809   -3.2495   -5.1515 H   0  0  0  0  0  0  0  0  0  0  0  0
   -1.6680   -4.6379   -5.4986 H   0  0  0  0  0  0  0  0  0  0  0  0
   -2.3607   -3.0049   -5.2160 H   0  0  0  0  0  0  0  0  0  0  0  0
   -1.2564   -3.2840   -6.6050 H   0  0  0  0  0  0  0  0  0  0  0  0
  1  3  1  0  0  0  0
  1  7  1  0  0  0  0
  1  2  2  0  0  0  0
 32 33  1  0  0  0  0
 33 41  1  0  0  0  0
 33 34  2  0  0  0  0
  8  9  1  0  0  0  0
  9 17  1  0  0  0  0
  9 10  2  0  0  0  0
 18 19  1  0  0  0  0
 19 31  1  0  0  0  0
 19 20  2  0  0  0  0
 32 35  1  0  0  0  0
  8 11  1  0  0  0  0
 21 23  1  0  0  0  0
 41 42  1  0  0  0  0
 31 32  1  0  0  0  0
  7  8  1  0  0  0  0
 18 21  1  0  0  0  0
 17 18  1  0  0  0  0
 21 22  1  0  0  0  0
  3  4  1  0  0  0  0
  3  5  1  0  0  0  0
  3  6  1  0  0  0  0
 35 38  1  0  0  0  0
 35 39  1  0  0  0  0
 35 40  1  0  0  0  0
 11 14  1  0  0  0  0
 11 15  1  0  0  0  0
 11 16  1  0  0  0  0
 23 28  1  0  0  0  0
 23 29  1  0  0  0  0
 23 30  1  0  0  0  0
 42 44  1  0  0  0  0
 42 45  1  0  0  0  0
 42 46  1  0  0  0  0
 32 37  1  0  0  0  0
  8 13  1  0  0  0  0
 18 25  1  0  0  0  0
 21 26  1  0  0  0  0
 41 43  1  0  0  0  0
  7 12  1  0  0  0  0
 31 36  1  0  0  0  0
 17 24  1  0  0  0  0
 22 27  1  0  0  0  0
M  END
$$$$

  -OEChem-05262214473D

 46 45  0     1  0  0  0  0  0999 V2000
   -4.6700    2.7214    1.5150 C   0  0  0  0  0  0  0  0  0  0  0  0
   -5.4532    2.5715    0.5845 O   0  0  0  0  0  0  0  0  0  0  0  0
   -5.0996    3.4865    2.7226 C   0  0  0  0  0  0  0  0  0  0  0  0
   -4.8796    4.5629    2.6387 H   0  0  0  0  0  0  0  0  0  0  0  0
   -6.1861    3.4241    2.8954 H   0  0  0  0  0  0  0  0  0  0  0  0
   -4.6369    3.1693    3.6708 H   0  0  0  0  0  0  0  0  0  0  0  0
   -3.3731    2.2391    1.5790 N   0  0  0  0  0  0  0  0  0  0  0  0
   -2.7599    1.4751    0.5247 C   0  0  2  0  0  0  0  0  0  0  0  0
   -1.5143    0.8067    1.0915 C   0  0  0  0  0  0  0  0  0  0  0  0
   -0.9247    1.2213    2.0872 O   0  0  0  0  0  0  0  0  0  0  0  0
   -2.4106    2.3553   -0.6653 C   0  0  0  0  0  0  0  0  0  0  0  0
   -2.8254    2.4352    2.4150 H   0  0  0  0  0  0  0  0  0  0  0  0
   -3.4836    0.7082    0.2278 H   0  0  0  0  0  0  0  0  0  0  0  0
   -1.6866    3.1298   -0.3871 H   0  0  0  0  0  0  0  0  0  0  0  0
   -1.9704    1.7677   -1.4777 H   0  0  0  0  0  0  0  0  0  0  0  0
   -3.3030    2.8584   -1.0531 H   0  0  0  0  0  0  0  0  0  0  0  0
   -1.1107   -0.2839    0.3303 N   0  0  0  0  0  0  0  0  0  0  0  0
    0.0490   -1.0750    0.6539 C   0  0  2  0  0  0  0  0  0  0  0  0
    0.1678   -2.1712   -0.4010 C   0  0  0  0  0  0  0  0  0  0  0  0
   -0.3315   -3.2867   -0.2677 O   0  0  0  0  0  0  0  0  0  0  0  0
   -0.0071   -1.6602    2.0726 C   0  0  2  0  0  0  0  0  0  0  0  0
   -1.1343   -2.5226    2.2186 O   0  0  0  0  0  0  0  0  0  0  0  0
   -0.1084   -0.5768    3.1395 C   0  0  0  0  0  0  0  0  0  0  0  0
   -1.6733   -0.5660   -0.4691 H   0  0  0  0  0  0  0  0  0  0  0  0
    0.9153   -0.4092    0.5582 H   0  0  0  0  0  0  0  0  0  0  0  0
    0.8887   -2.2596    2.2721 H   0  0  0  0  0  0  0  0  0  0  0  0
   -1.0822   -2.8937    3.1126 H   0  0  0  0  0  0  0  0  0  0  0  0
   -0.9906    0.0542    2.9866 H   0  0  0  0  0  0  0  0  0  0  0  0
    0.7830    0.0576    3.1480 H   0  0  0  0  0  0  0  0  0  0  0  0
   -0.2207   -1.0309    4.1302 H   0  0  0  0  0  0  0  0  0  0  0  0
    0.9378   -1.7734   -1.4847 N   0  0  0  0  0  0  0  0  0  0  0  0
    1.2227   -2.6475   -2.5983 C   0  0  2  0  0  0  0  0  0  0  0  0
   -0.0051   -2.6774   -3.4988 C   0  0  0  0  0  0  0  0  0  0  0  0
   -1.1344   -2.3961   -3.1029 O   0  0  0  0  0  0  0  0  0  0  0  0
    1.5839   -4.0468   -2.1250 C   0  0  0  0  0  0  0  0  0  0  0  0
    1.3157   -0.8305   -1.4950 H   0  0  0  0  0  0  0  0  0  0  0  0
    2.0641   -2.2036   -3.1415 H   0  0  0  0  0  0  0  0  0  0  0  0
    0.7530   -4.5077   -1.5785 H   0  0  0  0  0  0  0  0  0  0  0  0
    1.8274   -4.7006   -2.9690 H   0  0  0  0  0  0  0  0  0  0  0  0
    2.4490   -4.0201   -1.4537 H   0  0  0  0  0  0  0  0  0  0  0  0
    0.3016   -3.0967   -4.7858 N   0  0  0  0  0  0  0  0  0  0  0  0
   -0.6950   -3.2205   -5.8238 C   0  0  0  0  0  0  0  0  0  0  0  0
    1.2680   -3.2911   -5.0309 H   0  0  0  0  0  0  0  0  0  0  0  0
   -1.0853   -4.2488   -5.8373 H   0  0  0  0  0  0  0  0  0  0  0  0
   -1.5185   -2.5184   -5.6268 H   0  0  0  0  0  0  0  0  0  0  0  0
   -0.2402   -2.9882   -6.7981 H   0  0  0  0  0  0  0  0  0  0  0  0
  1  3  1  0  0  0  0
  1  7  1  0  0  0  0
  1  2  2  0  0  0  0
 32 33  1  0  0  0  0
 33 41  1  0  0  0  0
 33 34  2  0  0  0  0
  8  9  1  0  0  0  0
  9 17  1  0  0  0  0
  9 10  2  0  0  0  0
 18 19  1  0  0  0  0
 19 31  1  0  0  0  0
 19 20  2  0  0  0  0
 32 35  1  0  0  0  0
  8 11  1  0  0  0  0
 21 23  1  0  0  0  0
 41 42  1  0  0  0  0
 31 32  1  0  0  0  0
  7  8  1  0  0  0  0
 18 21  1  0  0  0  0
 17 18  1  0  0  0  0
 21 22  1  0  0  0  0
  3  4  1  0  0  0  0
  3  5  1  0  0  0  0
  3  6  1  0  0  0  0
 35 38  1  0  0  0  0
 35 39  1  0  0  0  0
 35 40  1  0  0  0  0
 11 14  1  0  0  0  0
 11 15  1  0  0  0  0
 11 16  1  0  0  0  0
 23 28  1  0  0  0  0
 23 29  1  0  0  0  0
 23 30  1  0  0  0  0
 42 44  1  0  0  0  0
 42 45  1  0  0  0  0
 42 46  1  0  0  0  0
 32 37  1  0  0  0  0
  8 13  1  0  0  0  0
 18 25  1  0  0  0  0
 21 26  1  0  0  0  0
 41 43  1  0  0  0  0
  7 12  1  0  0  0  0
 31 36  1  0  0  0  0
 17 24  1  0  0  0  0
 22 27  1  0  0  0  0
M  END
$$$$

  -OEChem-05262214473D

 46 45  0     1  0  0  0  0  0999 V2000
   -4.6700    2.7214    1.5150 C   0  0  0  0  0  0  0  0  0  0  0  0
   -5.4532    2.5715    0.5845 O   0  0  0  0  0  0  0  0  0  0  0  0
   -5.0996    3.4865    2.7226 C   0  0  0  0  0  0  0  0  0  0  0  0
   -4.8796    4.5629    2.6387 H   0  0  0  0  0  0  0  0  0  0  0  0
   -6.1861    3.4241    2.8954 H   0  0  0  0  0  0  0  0  0  0  0  0
   -4.6369    3.1693    3.6708 H   0  0  0  0  0  0  0  0  0  0  0  0
   -3.3731    2.2391    1.5790 N   0  0  0  0  0  0  0  0  0  0  0  0
   -2.7599    1.4751    0.5247 C   0  0  2  0  0  0  0  0  0  0  0  0
   -1.5143    0.8067    1.0915 C   0  0  0  0  0  0  0  0  0  0  0  0
   -0.9247    1.2213    2.0872 O   0  0  0  0  0  0  0  0  0  0  0  0
   -2.4106    2.3553   -0.6653 C   0  0  0  0  0  0  0  0  0  0  0  0
   -2.8254    2.4352    2.4150 H   0  0  0  0  0  0  0  0  0  0  0  0
   -3.4836    0.7082    0.2278 H   0  0  0  0  0  0  0  0  0  0  0  0
   -1.6866    3.1298   -0.3871 H   0  0  0  0  0  0  0  0  0  0  0  0
   -1.9704    1.7677   -1.4777 H   0  0  0  0  0  0  0  0  0  0  0  0
   -3.3030    2.8584   -1.0531 H   0  0  0  0  0  0  0  0  0  0  0  0
   -1.1107   -0.2839    0.3303 N   0  0  0  0  0  0  0  0  0  0  0  0
    0.0490   -1.0750    0.6539 C   0  0  2  0  0  0  0  0  0  0  0  0
    0.1678   -2.1712   -0.4010 C   0  0  0  0  0  0  0  0  0  0  0  0
   -0.5371   -3.1784   -0.4033 O   0  0  0  0  0  0  0  0  0  0  0  0
   -0.0071   -1.6602    2.0726 C   0  0  2  0  0  0  0  0  0  0  0  0
   -1.1343   -2.5226    2.2186 O   0  0  0  0  0  0  0  0  0  0  0  0
   -0.1084   -0.5768    3.1395 C   0  0  0  0  0  0  0  0  0  0  0  0
   -1.6733   -0.5660   -0.4691 H   0  0  0  0  0  0  0  0  0  0  0  0
    0.9153   -0.4092    0.5582 H   0  0  0  0  0  0  0  0  0  0  0  0
    0.8887   -2.2596    2.2721 H   0  0  0  0  0  0  0  0  0  0  0  0
   -1.0822   -2.8937    3.1126 H   0  0  0  0  0  0  0  0  0  0  0  0
   -0.9906    0.0542    2.9866 H   0  0  0  0  0  0  0  0  0  0  0  0
    0.7830    0.0576    3.1480 H   0  0  0  0  0  0  0  0  0  0  0  0
   -0.2207   -1.0309    4.1302 H   0  0  0  0  0  0  0  0  0  0  0  0
    1.1856   -1.9157   -1.3089 N   0  0  0  0  0  0  0  0  0  0  0  0
    1.5153   -2.8233   -2.3826 C   0  0  2  0  0  0  0  0  0  0  0  0
    0.4928   -2.6277   -3.4943 C   0  0  0  0  0  0  0  0  0  0  0  0
   -0.6228   -2.1482   -3.3029 O   0  0  0  0  0  0  0  0  0  0  0  0
    1.5276   -4.2664   -1.9031 C   0  0  0  0  0  0  0  0  0  0  0  0
    1.7196   -1.0567   -1.2146 H   0  0  0  0  0  0  0  0  0  0  0  0
    2.5087   -2.5371   -2.7449 H   0  0  0  0  0  0  0  0  0  0  0  0
    0.5407   -4.5712   -1.5364 H   0  0  0  0  0  0  0  0  0  0  0  0
    1.8056   -4.9507   -2.7115 H   0  0  0  0  0  0  0  0  0  0  0  0
    2.2421   -4.3987   -1.0835 H   0  0  0  0  0  0  0  0  0  0  0  0
    0.9566   -3.0915   -4.7174 N   0  0  0  0  0  0  0  0  0  0  0  0
    0.1667   -3.0297   -5.9250 C   0  0  0  0  0  0  0  0  0  0  0  0
    1.9019   -3.4566   -4.7875 H   0  0  0  0  0  0  0  0  0  0  0  0
   -0.3899   -3.9704   -6.0483 H   0  0  0  0  0  0  0  0  0  0  0  0
   -0.5417   -2.1909   -5.8571 H   0  0  0  0  0  0  0  0  0  0  0  0
    0.8301   -2.8803   -6.7896 H   0  0  0  0  0  0  0  0  0  0  0  0
  1  3  1  0  0  0  0
  1  7  1  0  0  0  0
  1  2  2  0  0  0  0
 32 33  1  0  0  0  0
 33 41  1  0  0  0  0
 33 34  2  0  0  0  0
  8  9  1  0  0  0  0
  9 17  1  0  0  0  0
  9 10  2  0  0  0  0
 18 19  1  0  0  0  0
 19 31  1  0  0  0  0
 19 20  2  0  0  0  0
 32 35  1  0  0  0  0
  8 11  1  0  0  0  0
 21 23  1  0  0  0  0
 41 42  1  0  0  0  0
 31 32  1  0  0  0  0
  7  8  1  0  0  0  0
 18 21  1  0  0  0  0
 17 18  1  0  0  0  0
 21 22  1  0  0  0  0
  3  4  1  0  0  0  0
  3  5  1  0  0  0  0
  3  6  1  0  0  0  0
 35 38  1  0  0  0  0
 35 39  1  0  0  0  0
 35 40  1  0  0  0  0
 11 14  1  0  0  0  0
 11 15  1  0  0  0  0
 11 16  1  0  0  0  0
 23 28  1  0  0  0  0
 23 29  1  0  0  0  0
 23 30  1  0  0  0  0
 42 44  1  0  0  0  0
 42 45  1  0  0  0  0
 42 46  1  0  0  0  0
 32 37  1  0  0  0  0
  8 13  1  0  0  0  0
 18 25  1  0  0  0  0
 21 26  1  0  0  0  0
 41 43  1  0  0  0  0
  7 12  1  0  0  0  0
 31 36  1  0  0  0  0
 17 24  1  0  0  0  0
 22 27  1  0  0  0  0
M  END
$$$$

  -OEChem-05262214473D

 46 45  0     1  0  0  0  0  0999 V2000
   -4.6700    2.7214    1.5150 C   0  0  0  0  0  0  0  0  0  0  0  0
   -5.4532    2.5715    0.5845 O   0  0  0  0  0  0  0  0  0  0  0  0
   -5.0996    3.4865    2.7226 C   0  0  0  0  0  0  0  0  0  0  0  0
   -4.8796    4.5629    2.6387 H   0  0  0  0  0  0  0  0  0  0  0  0
   -6.1861    3.4241    2.8954 H   0  0  0  0  0  0  0  0  0  0  0  0
   -4.6369    3.1693    3.6708 H   0  0  0  0  0  0  0  0  0  0  0  0
   -3.3731    2.2391    1.5790 N   0  0  0  0  0  0  0  0  0  0  0  0
   -2.7599    1.4751    0.5247 C   0  0  2  0  0  0  0  0  0  0  0  0
   -1.5143    0.8067    1.0915 C   0  0  0  0  0  0  0  0  0  0  0  0
   -0.9247    1.2213    2.0872 O   0  0  0  0  0  0  0  0  0  0  0  0
   -2.4106    2.3553   -0.6653 C   0  0  0  0  0  0  0  0  0  0  0  0
   -2.8254    2.4352    2.4150 H   0  0  0  0  0  0  0  0  0  0  0  0
   -3.4836    0.7082    0.2278 H   0  0  0  0  0  0  0  0  0  0  0  0
   -1.6866    3.1298   -0.3871 H   0  0  0  0  0  0  0  0  0  0  0  0
   -1.9704    1.7677   -1.4777 H   0  0  0  0  0  0  0  0  0  0  0  0
   -3.3030    2.8584   -1.0531 H   0  0  0  0  0  0  0  0  0  0  0  0
   -1.1107   -0.2839    0.3303 N   0  0  0  0  0  0  0  0  0  0  0  0
    0.0490   -1.0750    0.6539 C   0  0  2  0  0  0  0  0  0  0  0  0
    0.1678   -2.1712   -0.4010 C   0  0  0  0  0  0  0  0  0  0  0  0
   -0.6911   -3.0343   -0.5704 O   0  0  0  0  0  0  0  0  0  0  0  0
   -0.0071   -1.6602    2.0726 C   0  0  2  0  0  0  0  0  0  0  0  0
   -1.1343   -2.5226    2.2186 O   0  0  0  0  0  0  0  0  0  0  0  0
   -0.1084   -0.5768    3.1395 C   0  0  0  0  0  0  0  0  0  0  0  0
   -1.6733   -0.5660   -0.4691 H   0  0  0  0  0  0  0  0  0  0  0  0
    0.9153   -0.4092    0.5582 H   0  0  0  0  0  0  0  0  0  0  0  0
    0.8887   -2.2596    2.2721 H   0  0  0  0  0  0  0  0  0  0  0  0
   -1.0822   -2.8937    3.1126 H   0  0  0  0  0  0  0  0  0  0  0  0
   -0.9906    0.0542    2.9866 H   0  0  0  0  0  0  0  0  0  0  0  0
    0.7830    0.0576    3.1480 H   0  0  0  0  0  0  0  0  0  0  0  0
   -0.2207   -1.0309    4.1302 H   0  0  0  0  0  0  0  0  0  0  0  0
    1.3669   -2.1010   -1.0959 N   0  0  0  0  0  0  0  0  0  0  0  0
    1.7263   -3.0498   -2.1235 C   0  0  2  0  0  0  0  0  0  0  0  0
    0.9818   -2.6690   -3.3964 C   0  0  0  0  0  0  0  0  0  0  0  0
   -0.0470   -1.9963   -3.3959 O   0  0  0  0  0  0  0  0  0  0  0  0
    1.3927   -4.4729   -1.7037 C   0  0  0  0  0  0  0  0  0  0  0  0
    2.0171   -1.3530   -0.8731 H   0  0  0  0  0  0  0  0  0  0  0  0
    2.8048   -2.9468   -2.2858 H   0  0  0  0  0  0  0  0  0  0  0  0
    0.3164   -4.5954   -1.5365 H   0  0  0  0  0  0  0  0  0  0  0  0
    1.6920   -5.1936   -2.4719 H   0  0  0  0  0  0  0  0  0  0  0  0
    1.9058   -4.7348   -0.7721 H   0  0  0  0  0  0  0  0  0  0  0  0
    1.5774   -3.2050   -4.5295 N   0  0  0  0  0  0  0  0  0  0  0  0
    1.0520   -2.9975   -5.8587 C   0  0  0  0  0  0  0  0  0  0  0  0
    2.4392   -3.7348   -4.4379 H   0  0  0  0  0  0  0  0  0  0  0  0
    0.3709   -3.8217   -6.1172 H   0  0  0  0  0  0  0  0  0  0  0  0
    0.5034   -2.0447   -5.8914 H   0  0  0  0  0  0  0  0  0  0  0  0
    1.8817   -2.9677   -6.5803 H   0  0  0  0  0  0  0  0  0  0  0  0
  1  3  1  0  0  0  0
  1  7  1  0  0  0  0
  1  2  2  0  0  0  0
 32 33  1  0  0  0  0
 33 41  1  0  0  0  0
 33 34  2  0  0  0  0
  8  9  1  0  0  0  0
  9 17  1  0  0  0  0
  9 10  2  0  0  0  0
 18 19  1  0  0  0  0
 19 31  1  0  0  0  0
 19 20  2  0  0  0  0
 32 35  1  0  0  0  0
  8 11  1  0  0  0  0
 21 23  1  0  0  0  0
 41 42  1  0  0  0  0
 31 32  1  0  0  0  0
  7  8  1  0  0  0  0
 18 21  1  0  0  0  0
 17 18  1  0  0  0  0
 21 22  1  0  0  0  0
  3  4  1  0  0  0  0
  3  5  1  0  0  0  0
  3  6  1  0  0  0  0
 35 38  1  0  0  0  0
 35 39  1  0  0  0  0
 35 40  1  0  0  0  0
 11 14  1  0  0  0  0
 11 15  1  0  0  0  0
 11 16  1  0  0  0  0
 23 28  1  0  0  0  0
 23 29  1  0  0  0  0
 23 30  1  0  0  0  0
 42 44  1  0  0  0  0
 42 45  1  0  0  0  0
 42 46  1  0  0  0  0
 32 37  1  0  0  0  0
  8 13  1  0  0  0  0
 18 25  1  0  0  0  0
 21 26  1  0  0  0  0
 41 43  1  0  0  0  0
  7 12  1  0  0  0  0
 31 36  1  0  0  0  0
 17 24  1  0  0  0  0
 22 27  1  0  0  0  0
M  END
$$$$

  -OEChem-05262214473D

 46 45  0     1  0  0  0  0  0999 V2000
   -4.6700    2.7214    1.5150 C   0  0  0  0  0  0  0  0  0  0  0  0
   -5.4532    2.5715    0.5845 O   0  0  0  0  0  0  0  0  0  0  0  0
   -5.0996    3.4865    2.7226 C   0  0  0  0  0  0  0  0  0  0  0  0
   -4.8796    4.5629    2.6387 H   0  0  0  0  0  0  0  0  0  0  0  0
   -6.1861    3.4241    2.8954 H   0  0  0  0  0  0  0  0  0  0  0  0
   -4.6369    3.1693    3.6708 H   0  0  0  0  0  0  0  0  0  0  0  0
   -3.3731    2.2391    1.5790 N   0  0  0  0  0  0  0  0  0  0  0  0
   -2.7599    1.4751    0.5247 C   0  0  2  0  0  0  0  0  0  0  0  0
   -1.5143    0.8067    1.0915 C   0  0  0  0  0  0  0  0  0  0  0  0
   -0.9247    1.2213    2.0872 O   0  0  0  0  0  0  0  0  0  0  0  0
   -2.4106    2.3553   -0.6653 C   0  0  0  0  0  0  0  0  0  0  0  0
   -2.8254    2.4352    2.4150 H   0  0  0  0  0  0  0  0  0  0  0  0
   -3.4836    0.7082    0.2278 H   0  0  0  0  0  0  0  0  0  0  0  0
   -1.6866    3.1298   -0.3871 H   0  0  0  0  0  0  0  0  0  0  0  0
   -1.9704    1.7677   -1.4777 H   0  0  0  0  0  0  0  0  0  0  0  0
   -3.3030    2.8584   -1.0531 H   0  0  0  0  0  0  0  0  0  0  0  0
   -1.1107   -0.2839    0.3303 N   0  0  0  0  0  0  0  0  0  0  0  0
    0.0490   -1.0750    0.6539 C   0  0  2  0  0  0  0  0  0  0  0  0
    0.1678   -2.1712   -0.4010 C   0  0  0  0  0  0  0  0  0  0  0  0
   -0.7830   -2.8642   -0.7575 O   0  0  0  0  0  0  0  0  0  0  0  0
   -0.0071   -1.6602    2.0726 C   0  0  2  0  0  0  0  0  0  0  0  0
   -1.1343   -2.5226    2.2186 O   0  0  0  0  0  0  0  0  0  0  0  0
   -0.1084   -0.5768    3.1395 C   0  0  0  0  0  0  0  0  0  0  0  0
   -1.6733   -0.5660   -0.4691 H   0  0  0  0  0  0  0  0  0  0  0  0
    0.9153   -0.4092    0.5582 H   0  0  0  0  0  0  0  0  0  0  0  0
    0.8887   -2.2596    2.2721 H   0  0  0  0  0  0  0  0  0  0  0  0
   -1.0822   -2.8937    3.1126 H   0  0  0  0  0  0  0  0  0  0  0  0
   -0.9906    0.0542    2.9866 H   0  0  0  0  0  0  0  0  0  0  0  0
    0.7830    0.0576    3.1480 H   0  0  0  0  0  0  0  0  0  0  0  0
   -0.2207   -1.0309    4.1302 H   0  0  0  0  0  0  0  0  0  0  0  0
    1.4692   -2.3167   -0.8602 N   0  0  0  0  0  0  0  0  0  0  0  0
    1.8414   -3.3115   -1.8385 C   0  0  2  0  0  0  0  0  0  0  0  0
    1.4286   -2.7983   -3.2117 C   0  0  0  0  0  0  0  0  0  0  0  0
    0.5536   -1.9507   -3.3757 O   0  0  0  0  0  0  0  0  0  0  0  0
    1.1885   -4.6522   -1.5404 C   0  0  0  0  0  0  0  0  0  0  0  0
    2.1879   -1.6994   -0.4939 H   0  0  0  0  0  0  0  0  0  0  0  0
    2.9321   -3.4047   -1.7956 H   0  0  0  0  0  0  0  0  0  0  0  0
    0.0955   -4.5786   -1.5788 H   0  0  0  0  0  0  0  0  0  0  0  0
    1.4942   -5.4127   -2.2665 H   0  0  0  0  0  0  0  0  0  0  0  0
    1.4628   -5.0056   -0.5405 H   0  0  0  0  0  0  0  0  0  0  0  0
    2.1219   -3.4296   -4.2349 N   0  0  0  0  0  0  0  0  0  0  0  0
    1.9006   -3.1262   -5.6295 C   0  0  0  0  0  0  0  0  0  0  0  0
    2.8435   -4.1067   -4.0059 H   0  0  0  0  0  0  0  0  0  0  0  0
    1.1452   -3.8128   -6.0393 H   0  0  0  0  0  0  0  0  0  0  0  0
    1.5453   -2.0897   -5.7272 H   0  0  0  0  0  0  0  0  0  0  0  0
    2.8430   -3.2446   -6.1844 H   0  0  0  0  0  0  0  0  0  0  0  0
  1  3  1  0  0  0  0
  1  7  1  0  0  0  0
  1  2  2  0  0  0  0
 32 33  1  0  0  0  0
 33 41  1  0  0  0  0
 33 34  2  0  0  0  0
  8  9  1  0  0  0  0
  9 17  1  0  0  0  0
  9 10  2  0  0  0  0
 18 19  1  0  0  0  0
 19 31  1  0  0  0  0
 19 20  2  0  0  0  0
 32 35  1  0  0  0  0
  8 11  1  0  0  0  0
 21 23  1  0  0  0  0
 41 42  1  0  0  0  0
 31 32  1  0  0  0  0
  7  8  1  0  0  0  0
 18 21  1  0  0  0  0
 17 18  1  0  0  0  0
 21 22  1  0  0  0  0
  3  4  1  0  0  0  0
  3  5  1  0  0  0  0
  3  6  1  0  0  0  0
 35 38  1  0  0  0  0
 35 39  1  0  0  0  0
 35 40  1  0  0  0  0
 11 14  1  0  0  0  0
 11 15  1  0  0  0  0
 11 16  1  0  0  0  0
 23 28  1  0  0  0  0
 23 29  1  0  0  0  0
 23 30  1  0  0  0  0
 42 44  1  0  0  0  0
 42 45  1  0  0  0  0
 42 46  1  0  0  0  0
 32 37  1  0  0  0  0
  8 13  1  0  0  0  0
 18 25  1  0  0  0  0
 21 26  1  0  0  0  0
 41 43  1  0  0  0  0
  7 12  1  0  0  0  0
 31 36  1  0  0  0  0
 17 24  1  0  0  0  0
 22 27  1  0  0  0  0
M  END
$$$$

  -OEChem-05262214473D

 46 45  0     1  0  0  0  0  0999 V2000
   -4.6700    2.7214    1.5150 C   0  0  0  0  0  0  0  0  0  0  0  0
   -5.4532    2.5715    0.5845 O   0  0  0  0  0  0  0  0  0  0  0  0
   -5.0996    3.4865    2.7226 C   0  0  0  0  0  0  0  0  0  0  0  0
   -4.8796    4.5629    2.6387 H   0  0  0  0  0  0  0  0  0  0  0  0
   -6.1861    3.4241    2.8954 H   0  0  0  0  0  0  0  0  0  0  0  0
   -4.6369    3.1693    3.6708 H   0  0  0  0  0  0  0  0  0  0  0  0
   -3.3731    2.2391    1.5790 N   0  0  0  0  0  0  0  0  0  0  0  0
   -2.7599    1.4751    0.5247 C   0  0  2  0  0  0  0  0  0  0  0  0
   -1.5143    0.8067    1.0915 C   0  0  0  0  0  0  0  0  0  0  0  0
   -0.9247    1.2213    2.0872 O   0  0  0  0  0  0  0  0  0  0  0  0
   -2.4106    2.3553   -0.6653 C   0  0  0  0  0  0  0  0  0  0  0  0
   -2.8254    2.4352    2.4150 H   0  0  0  0  0  0  0  0  0  0  0  0
   -3.4836    0.7082    0.2278 H   0  0  0  0  0  0  0  0  0  0  0  0
   -1.6866    3.1298   -0.3871 H   0  0  0  0  0  0  0  0  0  0  0  0
   -1.9704    1.7677   -1.4777 H   0  0  0  0  0  0  0  0  0  0  0  0
   -3.3030    2.8584   -1.0531 H   0  0  0  0  0  0  0  0  0  0  0  0
   -1.1107   -0.2839    0.3303 N   0  0  0  0  0  0  0  0  0  0  0  0
    0.0490   -1.0750    0.6539 C   0  0  2  0  0  0  0  0  0  0  0  0
    0.1678   -2.1712   -0.4010 C   0  0  0  0  0  0  0  0  0  0  0  0
   -0.8065   -2.6797   -0.9518 O   0  0  0  0  0  0  0  0  0  0  0  0
   -0.0071   -1.6602    2.0726 C   0  0  2  0  0  0  0  0  0  0  0  0
   -1.1343   -2.5226    2.2186 O   0  0  0  0  0  0  0  0  0  0  0  0
   -0.1084   -0.5768    3.1395 C   0  0  0  0  0  0  0  0  0  0  0  0
   -1.6733   -0.5660   -0.4691 H   0  0  0  0  0  0  0  0  0  0  0  0
    0.9153   -0.4092    0.5582 H   0  0  0  0  0  0  0  0  0  0  0  0
    0.8887   -2.2596    2.2721 H   0  0  0  0  0  0  0  0  0  0  0  0
   -1.0822   -2.8937    3.1126 H   0  0  0  0  0  0  0  0  0  0  0  0
   -0.9906    0.0542    2.9866 H   0  0  0  0  0  0  0  0  0  0  0  0
    0.7830    0.0576    3.1480 H   0  0  0  0  0  0  0  0  0  0  0  0
   -0.2207   -1.0309    4.1302 H   0  0  0  0  0  0  0  0  0  0  0  0
    1.4856   -2.5482   -0.6178 N   0  0  0  0  0  0  0  0  0  0  0  0
    1.8528   -3.5907   -1.5471 C   0  0  2  0  0  0  0  0  0  0  0  0
    1.8026   -3.0069   -2.9528 C   0  0  0  0  0  0  0  0  0  0  0  0
    1.1381   -2.0145   -3.2436 O   0  0  0  0  0  0  0  0  0  0  0  0
    0.9287   -4.7922   -1.4242 C   0  0  0  0  0  0  0  0  0  0  0  0
    2.2205   -2.0722   -0.1028 H   0  0  0  0  0  0  0  0  0  0  0  0
    2.8820   -3.8798   -1.3076 H   0  0  0  0  0  0  0  0  0  0  0  0
   -0.1070   -4.5220   -1.6604 H   0  0  0  0  0  0  0  0  0  0  0  0
    1.2258   -5.5931   -2.1093 H   0  0  0  0  0  0  0  0  0  0  0  0
    0.9434   -5.1926   -0.4047 H   0  0  0  0  0  0  0  0  0  0  0  0
    2.5529   -3.7498   -3.8536 N   0  0  0  0  0  0  0  0  0  0  0  0
    2.6546   -3.4069   -5.2529 C   0  0  0  0  0  0  0  0  0  0  0  0
    3.0872   -4.5470   -3.5209 H   0  0  0  0  0  0  0  0  0  0  0  0
    1.8802   -3.9442   -5.8199 H   0  0  0  0  0  0  0  0  0  0  0  0
    2.5132   -2.3230   -5.3758 H   0  0  0  0  0  0  0  0  0  0  0  0
    3.6483   -3.6920   -5.6288 H   0  0  0  0  0  0  0  0  0  0  0  0
  1  3  1  0  0  0  0
  1  7  1  0  0  0  0
  1  2  2  0  0  0  0
 32 33  1  0  0  0  0
 33 41  1  0  0  0  0
 33 34  2  0  0  0  0
  8  9  1  0  0  0  0
  9 17  1  0  0  0  0
  9 10  2  0  0  0  0
 18 19  1  0  0  0  0
 19 31  1  0  0  0  0
 19 20  2  0  0  0  0
 32 35  1  0  0  0  0
  8 11  1  0  0  0  0
 21 23  1  0  0  0  0
 41 42  1  0  0  0  0
 31 32  1  0  0  0  0
  7  8  1  0  0  0  0
 18 21  1  0  0  0  0
 17 18  1  0  0  0  0
 21 22  1  0  0  0  0
  3  4  1  0  0  0  0
  3  5  1  0  0  0  0
  3  6  1  0  0  0  0
 35 38  1  0  0  0  0
 35 39  1  0  0  0  0
 35 40  1  0  0  0  0
 11 14  1  0  0  0  0
 11 15  1  0  0  0  0
 11 16  1  0  0  0  0
 23 28  1  0  0  0  0
 23 29  1  0  0  0  0
 23 30  1  0  0  0  0
 42 44  1  0  0  0  0
 42 45  1  0  0  0  0
 42 46  1  0  0  0  0
 32 37  1  0  0  0  0
  8 13  1  0  0  0  0
 18 25  1  0  0  0  0
 21 26  1  0  0  0  0
 41 43  1  0  0  0  0
  7 12  1  0  0  0  0
 31 36  1  0  0  0  0
 17 24  1  0  0  0  0
 22 27  1  0  0  0  0
M  END
$$$$

  -OEChem-05262214473D

 46 45  0     1  0  0  0  0  0999 V2000
   -4.6700    2.7214    1.5150 C   0  0  0  0  0  0  0  0  0  0  0  0
   -5.4532    2.5715    0.5845 O   0  0  0  0  0  0  0  0  0  0  0  0
   -5.0996    3.4865    2.7226 C   0  0  0  0  0  0  0  0  0  0  0  0
   -4.8796    4.5629    2.6387 H   0  0  0  0  0  0  0  0  0  0  0  0
   -6.1861    3.4241    2.8954 H   0  0  0  0  0  0  0  0  0  0  0  0
   -4.6369    3.1693    3.6708 H   0  0  0  0  0  0  0  0  0  0  0  0
   -3.3731    2.2391    1.5790 N   0  0  0  0  0  0  0  0  0  0  0  0
   -2.7599    1.4751    0.5247 C   0  0  2  0  0  0  0  0  0  0  0  0
   -1.5143    0.8067    1.0915 C   0  0  0  0  0  0  0  0  0  0  0  0
   -0.9247    1.2213    2.0872 O   0  0  0  0  0  0  0  0  0  0  0  0
   -2.4106    2.3553   -0.6653 C   0  0  0  0  0  0  0  0  0  0  0  0
   -2.8254    2.4352    2.4150 H   0  0  0  0  0  0  0  0  0  0  0  0
   -3.4836    0.7082    0.2278 H   0  0  0  0  0  0  0  0  0  0  0  0
   -1.6866    3.1298   -0.3871 H   0  0  0  0  0  0  0  0  0  0  0  0
   -1.9704    1.7677   -1.4777 H   0  0  0  0  0  0  0  0  0  0  0  0
   -3.3030    2.8584   -1.0531 H   0  0  0  0  0  0  0  0  0  0  0  0
   -1.1107   -0.2839    0.3303 N   0  0  0  0  0  0  0  0  0  0  0  0
    0.0490   -1.0750    0.6539 C   0  0  2  0  0  0  0  0  0  0  0  0
    0.1678   -2.1712   -0.4010 C   0  0  0  0  0  0  0  0  0  0  0  0
   -0.7601   -2.4934   -1.1402 O   0  0  0  0  0  0  0  0  0  0  0  0
   -0.0071   -1.6602    2.0726 C   0  0  2  0  0  0  0  0  0  0  0  0
   -1.1343   -2.5226    2.2186 O   0  0  0  0  0  0  0  0  0  0  0  0
   -0.1084   -0.5768    3.1395 C   0  0  0  0  0  0  0  0  0  0  0  0
   -1.6733   -0.5660   -0.4691 H   0  0  0  0  0  0  0  0  0  0  0  0
    0.9153   -0.4092    0.5582 H   0  0  0  0  0  0  0  0  0  0  0  0
    0.8887   -2.2596    2.2721 H   0  0  0  0  0  0  0  0  0  0  0  0
   -1.0822   -2.8937    3.1126 H   0  0  0  0  0  0  0  0  0  0  0  0
   -0.9906    0.0542    2.9866 H   0  0  0  0  0  0  0  0  0  0  0  0
    0.7830    0.0576    3.1480 H   0  0  0  0  0  0  0  0  0  0  0  0
   -0.2207   -1.0309    4.1302 H   0  0  0  0  0  0  0  0  0  0  0  0
    1.4149   -2.7795   -0.3853 N   0  0  0  0  0  0  0  0  0  0  0  0
    1.7597   -3.8683   -1.2691 C   0  0  2  0  0  0  0  0  0  0  0  0
    2.0785   -3.2805   -2.6374 C   0  0  0  0  0  0  0  0  0  0  0  0
    1.6667   -2.1833   -3.0086 O   0  0  0  0  0  0  0  0  0  0  0  0
    0.6311   -4.8833   -1.3630 C   0  0  0  0  0  0  0  0  0  0  0  0
    2.1125   -2.4460    0.2734 H   0  0  0  0  0  0  0  0  0  0  0  0
    2.6578   -4.3394   -0.8551 H   0  0  0  0  0  0  0  0  0  0  0  0
   -0.2774   -4.4295   -1.7757 H   0  0  0  0  0  0  0  0  0  0  0  0
    0.9050   -5.7224   -2.0110 H   0  0  0  0  0  0  0  0  0  0  0  0
    0.3830   -5.2830   -0.3739 H   0  0  0  0  0  0  0  0  0  0  0  0
    2.8409   -4.1439   -3.4116 N   0  0  0  0  0  0  0  0  0  0  0  0
    3.2627   -3.8205   -4.7545 C   0  0  0  0  0  0  0  0  0  0  0  0
    3.1536   -5.0257   -3.0160 H   0  0  0  0  0  0  0  0  0  0  0  0
    2.5258   -4.2072   -5.4739 H   0  0  0  0  0  0  0  0  0  0  0  0
    3.3410   -2.7285   -4.8612 H   0  0  0  0  0  0  0  0  0  0  0  0
    4.2428   -4.2794   -4.9514 H   0  0  0  0  0  0  0  0  0  0  0  0
  1  3  1  0  0  0  0
  1  7  1  0  0  0  0
  1  2  2  0  0  0  0
 32 33  1  0  0  0  0
 33 41  1  0  0  0  0
 33 34  2  0  0  0  0
  8  9  1  0  0  0  0
  9 17  1  0  0  0  0
  9 10  2  0  0  0  0
 18 19  1  0  0  0  0
 19 31  1  0  0  0  0
 19 20  2  0  0  0  0
 32 35  1  0  0  0  0
  8 11  1  0  0  0  0
 21 23  1  0  0  0  0
 41 42  1  0  0  0  0
 31 32  1  0  0  0  0
  7  8  1  0  0  0  0
 18 21  1  0  0  0  0
 17 18  1  0  0  0  0
 21 22  1  0  0  0  0
  3  4  1  0  0  0  0
  3  5  1  0  0  0  0
  3  6  1  0  0  0  0
 35 38  1  0  0  0  0
 35 39  1  0  0  0  0
 35 40  1  0  0  0  0
 11 14  1  0  0  0  0
 11 15  1  0  0  0  0
 11 16  1  0  0  0  0
 23 28  1  0  0  0  0
 23 29  1  0  0  0  0
 23 30  1  0  0  0  0
 42 44  1  0  0  0  0
 42 45  1  0  0  0  0
 42 46  1  0  0  0  0
 32 37  1  0  0  0  0
  8 13  1  0  0  0  0
 18 25  1  0  0  0  0
 21 26  1  0  0  0  0
 41 43  1  0  0  0  0
  7 12  1  0  0  0  0
 31 36  1  0  0  0  0
 17 24  1  0  0  0  0
 22 27  1  0  0  0  0
M  END
$$$$

  -OEChem-05262214473D

 46 45  0     1  0  0  0  0  0999 V2000
   -4.6700    2.7214    1.5150 C   0  0  0  0  0  0  0  0  0  0  0  0
   -5.4532    2.5715    0.5845 O   0  0  0  0  0  0  0  0  0  0  0  0
   -5.0996    3.4865    2.7226 C   0  0  0  0  0  0  0  0  0  0  0  0
   -4.8796    4.5629    2.6387 H   0  0  0  0  0  0  0  0  0  0  0  0
   -6.1861    3.4241    2.8954 H   0  0  0  0  0  0  0  0  0  0  0  0
   -4.6369    3.1693    3.6708 H   0  0  0  0  0  0  0  0  0  0  0  0
   -3.3731    2.2391    1.5790 N   0  0  0  0  0  0  0  0  0  0  0  0
   -2.7599    1.4751    0.5247 C   0  0  2  0  0  0  0  0  0  0  0  0
   -1.5143    0.8067    1.0915 C   0  0  0  0  0  0  0  0  0  0  0  0
   -0.9247    1.2213    2.0872 O   0  0  0  0  0  0  0  0  0  0  0  0
   -2.4106    2.3553   -0.6653 C   0  0  0  0  0  0  0  0  0  0  0  0
   -2.8254    2.4352    2.4150 H   0  0  0  0  0  0  0  0  0  0  0  0
   -3.4836    0.7082    0.2278 H   0  0  0  0  0  0  0  0  0  0  0  0
   -1.6866    3.1298   -0.3871 H   0  0  0  0  0  0  0  0  0  0  0  0
   -1.9704    1.7677   -1.4777 H   0  0  0  0  0  0  0  0  0  0  0  0
   -3.3030    2.8584   -1.0531 H   0  0  0  0  0  0  0  0  0  0  0  0
   -1.1107   -0.2839    0.3303 N   0  0  0  0  0  0  0  0  0  0  0  0
    0.0490   -1.0750    0.6539 C   0  0  2  0  0  0  0  0  0  0  0  0
    0.3900   -1.9158   -0.5730 C   0  0  0  0  0  0  0  0  0  0  0  0
   -0.2805   -1.9009   -1.6032 O   0  0  0  0  0  0  0  0  0  0  0  0
   -0.1565   -1.9502    1.8989 C   0  0  2  0  0  0  0  0  0  0  0  0
   -1.2269   -2.8717    1.6970 O   0  0  0  0  0  0  0  0  0  0  0  0
   -0.4809   -1.1238    3.1375 C   0  0  0  0  0  0  0  0  0  0  0  0
   -1.6733   -0.5660   -0.4691 H   0  0  0  0  0  0  0  0  0  0  0  0
    0.8692   -0.3674    0.8256 H   0  0  0  0  0  0  0  0  0  0  0  0
    0.7453   -2.5392    2.1025 H   0  0  0  0  0  0  0  0  0  0  0  0
   -1.2698   -3.4217    2.4940 H   0  0  0  0  0  0  0  0  0  0  0  0
   -1.3780   -0.5133    2.9875 H   0  0  0  0  0  0  0  0  0  0  0  0
    0.3522   -0.4679    3.4074 H   0  0  0  0  0  0  0  0  0  0  0  0
   -0.6933   -1.7825    3.9868 H   0  0  0  0  0  0  0  0  0  0  0  0
    1.5013   -2.7202   -0.3637 N   0  0  0  0  0  0  0  0  0  0  0  0
    2.0015   -3.6308   -1.3666 C   0  0  2  0  0  0  0  0  0  0  0  0
    2.7958   -2.8210   -2.3829 C   0  0  0  0  0  0  0  0  0  0  0  0
    2.6333   -1.6146   -2.5538 O   0  0  0  0  0  0  0  0  0  0  0  0
    0.8681   -4.3879   -2.0412 C   0  0  0  0  0  0  0  0  0  0  0  0
    1.9815   -2.6663    0.5298 H   0  0  0  0  0  0  0  0  0  0  0  0
    2.6701   -4.3304   -0.8533 H   0  0  0  0  0  0  0  0  0  0  0  0
    0.1876   -3.7035   -2.5608 H   0  0  0  0  0  0  0  0  0  0  0  0
    1.2508   -5.0985   -2.7812 H   0  0  0  0  0  0  0  0  0  0  0  0
    0.2798   -4.9461   -1.3049 H   0  0  0  0  0  0  0  0  0  0  0  0
    3.6769   -3.6122   -3.1067 N   0  0  0  0  0  0  0  0  0  0  0  0
    4.5343   -3.0797   -4.1398 C   0  0  0  0  0  0  0  0  0  0  0  0
    3.7593   -4.6000   -2.8849 H   0  0  0  0  0  0  0  0  0  0  0  0
    4.0312   -3.1643   -5.1143 H   0  0  0  0  0  0  0  0  0  0  0  0
    4.7490   -2.0217   -3.9288 H   0  0  0  0  0  0  0  0  0  0  0  0
    5.4762   -3.6474   -4.1631 H   0  0  0  0  0  0  0  0  0  0  0  0
  1  3  1  0  0  0  0
  1  7  1  0  0  0  0
  1  2  2  0  0  0  0
 32 33  1  0  0  0  0
 33 41  1  0  0  0  0
 33 34  2  0  0  0  0
  8  9  1  0  0  0  0
  9 17  1  0  0  0  0
  9 10  2  0  0  0  0
 18 19  1  0  0  0  0
 19 31  1  0  0  0  0
 19 20  2  0  0  0  0
 32 35  1  0  0  0  0
  8 11  1  0  0  0  0
 21 23  1  0  0  0  0
 41 42  1  0  0  0  0
 31 32  1  0  0  0  0
  7  8  1  0  0  0  0
 18 21  1  0  0  0  0
 17 18  1  0  0  0  0
 21 22  1  0  0  0  0
  3  4  1  0  0  0  0
  3  5  1  0  0  0  0
  3  6  1  0  0  0  0
 35 38  1  0  0  0  0
 35 39  1  0  0  0  0
 35 40  1  0  0  0  0
 11 14  1  0  0  0  0
 11 15  1  0  0  0  0
 11 16  1  0  0  0  0
 23 28  1  0  0  0  0
 23 29  1  0  0  0  0
 23 30  1  0  0  0  0
 42 44  1  0  0  0  0
 42 45  1  0  0  0  0
 42 46  1  0  0  0  0
 32 37  1  0  0  0  0
  8 13  1  0  0  0  0
 18 25  1  0  0  0  0
 21 26  1  0  0  0  0
 41 43  1  0  0  0  0
  7 12  1  0  0  0  0
 31 36  1  0  0  0  0
 17 24  1  0  0  0  0
 22 27  1  0  0  0  0
M  END
$$$$

  -OEChem-05262214473D

 46 45  0     1  0  0  0  0  0999 V2000
   -4.6700    2.7214    1.5150 C   0  0  0  0  0  0  0  0  0  0  0  0
   -5.4532    2.5715    0.5845 O   0  0  0  0  0  0  0  0  0  0  0  0
   -5.0996    3.4865    2.7226 C   0  0  0  0  0  0  0  0  0  0  0  0
   -4.8796    4.5629    2.6387 H   0  0  0  0  0  0  0  0  0  0  0  0
   -6.1861    3.4241    2.8954 H   0  0  0  0  0  0  0  0  0  0  0  0
   -4.6369    3.1693    3.6708 H   0  0  0  0  0  0  0  0  0  0  0  0
   -3.3731    2.2391    1.5790 N   0  0  0  0  0  0  0  0  0  0  0  0
   -2.7599    1.4751    0.5247 C   0  0  2  0  0  0  0  0  0  0  0  0
   -1.5143    0.8067    1.0915 C   0  0  0  0  0  0  0  0  0  0  0  0
   -0.9247    1.2213    2.0872 O   0  0  0  0  0  0  0  0  0  0  0  0
   -2.4106    2.3553   -0.6653 C   0  0  0  0  0  0  0  0  0  0  0  0
   -2.8254    2.4352    2.4150 H   0  0  0  0  0  0  0  0  0  0  0  0
   -3.4836    0.7082    0.2278 H   0  0  0  0  0  0  0  0  0  0  0  0
   -1.6866    3.1298   -0.3871 H   0  0  0  0  0  0  0  0  0  0  0  0
   -1.9704    1.7677   -1.4777 H   0  0  0  0  0  0  0  0  0  0  0  0
   -3.3030    2.8584   -1.0531 H   0  0  0  0  0  0  0  0  0  0  0  0
   -1.1107   -0.2839    0.3303 N   0  0  0  0  0  0  0  0  0  0  0  0
    0.0490   -1.0750    0.6539 C   0  0  2  0  0  0  0  0  0  0  0  0
    0.3900   -1.9158   -0.5730 C   0  0  0  0  0  0  0  0  0  0  0  0
   -0.1026   -1.7149   -1.6813 O   0  0  0  0  0  0  0  0  0  0  0  0
   -0.1565   -1.9502    1.8989 C   0  0  2  0  0  0  0  0  0  0  0  0
   -1.2269   -2.8717    1.6970 O   0  0  0  0  0  0  0  0  0  0  0  0
   -0.4809   -1.1238    3.1375 C   0  0  0  0  0  0  0  0  0  0  0  0
   -1.6733   -0.5660   -0.4691 H   0  0  0  0  0  0  0  0  0  0  0  0
    0.8692   -0.3674    0.8256 H   0  0  0  0  0  0  0  0  0  0  0  0
    0.7453   -2.5392    2.1025 H   0  0  0  0  0  0  0  0  0  0  0  0
   -1.2698   -3.4217    2.4940 H   0  0  0  0  0  0  0  0  0  0  0  0
   -1.3780   -0.5133    2.9875 H   0  0  0  0  0  0  0  0  0  0  0  0
    0.3522   -0.4679    3.4074 H   0  0  0  0  0  0  0  0  0  0  0  0
   -0.6933   -1.7825    3.9868 H   0  0  0  0  0  0  0  0  0  0  0  0
    1.2701   -2.9460   -0.2732 N   0  0  0  0  0  0  0  0  0  0  0  0
    1.7176   -3.8983   -1.2622 C   0  0  2  0  0  0  0  0  0  0  0  0
    2.8025   -3.2329   -2.0988 C   0  0  0  0  0  0  0  0  0  0  0  0
    2.9167   -2.0133   -2.2018 O   0  0  0  0  0  0  0  0  0  0  0  0
    0.5669   -4.3680   -2.1385 C   0  0  0  0  0  0  0  0  0  0  0  0
    1.6130   -3.0335    0.6790 H   0  0  0  0  0  0  0  0  0  0  0  0
    2.1457   -4.7452   -0.7148 H   0  0  0  0  0  0  0  0  0  0  0  0
    0.1253   -3.5331   -2.6949 H   0  0  0  0  0  0  0  0  0  0  0  0
    0.9024   -5.1114   -2.8692 H   0  0  0  0  0  0  0  0  0  0  0  0
   -0.2257   -4.8195   -1.5321 H   0  0  0  0  0  0  0  0  0  0  0  0
    3.6015   -4.1614   -2.7513 N   0  0  0  0  0  0  0  0  0  0  0  0
    4.6933   -3.7794   -3.6161 C   0  0  0  0  0  0  0  0  0  0  0  0
    3.4467   -5.1527   -2.5930 H   0  0  0  0  0  0  0  0  0  0  0  0
    4.3342   -3.7135   -4.6537 H   0  0  0  0  0  0  0  0  0  0  0  0
    5.0854   -2.8011   -3.3011 H   0  0  0  0  0  0  0  0  0  0  0  0
    5.4925   -4.5326   -3.5520 H   0  0  0  0  0  0  0  0  0  0  0  0
  1  3  1  0  0  0  0
  1  7  1  0  0  0  0
  1  2  2  0  0  0  0
 32 33  1  0  0  0  0
 33 41  1  0  0  0  0
 33 34  2  0  0  0  0
  8  9  1  0  0  0  0
  9 17  1  0  0  0  0
  9 10  2  0  0  0  0
 18 19  1  0  0  0  0
 19 31  1  0  0  0  0
 19 20  2  0  0  0  0
 32 35  1  0  0  0  0
  8 11  1  0  0  0  0
 21 23  1  0  0  0  0
 41 42  1  0  0  0  0
 31 32  1  0  0  0  0
  7  8  1  0  0  0  0
 18 21  1  0  0  0  0
 17 18  1  0  0  0  0
 21 22  1  0  0  0  0
  3  4  1  0  0  0  0
  3  5  1  0  0  0  0
  3  6  1  0  0  0  0
 35 38  1  0  0  0  0
 35 39  1  0  0  0  0
 35 40  1  0  0  0  0
 11 14  1  0  0  0  0
 11 15  1  0  0  0  0
 11 16  1  0  0  0  0
 23 28  1  0  0  0  0
 23 29  1  0  0  0  0
 23 30  1  0  0  0  0
 42 44  1  0  0  0  0
 42 45  1  0  0  0  0
 42 46  1  0  0  0  0
 32 37  1  0  0  0  0
  8 13  1  0  0  0  0
 18 25  1  0  0  0  0
 21 26  1  0  0  0  0
 41 43  1  0  0  0  0
  7 12  1  0  0  0  0
 31 36  1  0  0  0  0
 17 24  1  0  0  0  0
 22 27  1  0  0  0  0
M  END
$$$$

  -OEChem-05262214473D

 46 45  0     1  0  0  0  0  0999 V2000
   -4.6700    2.7214    1.5150 C   0  0  0  0  0  0  0  0  0  0  0  0
   -5.4532    2.5715    0.5845 O   0  0  0  0  0  0  0  0  0  0  0  0
   -5.0996    3.4865    2.7226 C   0  0  0  0  0  0  0  0  0  0  0  0
   -4.8796    4.5629    2.6387 H   0  0  0  0  0  0  0  0  0  0  0  0
   -6.1861    3.4241    2.8954 H   0  0  0  0  0  0  0  0  0  0  0  0
   -4.6369    3.1693    3.6708 H   0  0  0  0  0  0  0  0  0  0  0  0
   -3.3731    2.2391    1.5790 N   0  0  0  0  0  0  0  0  0  0  0  0
   -2.7599    1.4751    0.5247 C   0  0  2  0  0  0  0  0  0  0  0  0
   -1.5143    0.8067    1.0915 C   0  0  0  0  0  0  0  0  0  0  0  0
   -0.9247    1.2213    2.0872 O   0  0  0  0  0  0  0  0  0  0  0  0
   -2.4106    2.3553   -0.6653 C   0  0  0  0  0  0  0  0  0  0  0  0
   -2.8254    2.4352    2.4150 H   0  0  0  0  0  0  0  0  0  0  0  0
   -3.4836    0.7082    0.2278 H   0  0  0  0  0  0  0  0  0  0  0  0
   -1.6866    3.1298   -0.3871 H   0  0  0  0  0  0  0  0  0  0  0  0
   -1.9704    1.7677   -1.4777 H   0  0  0  0  0  0  0  0  0  0  0  0
   -3.3030    2.8584   -1.0531 H   0  0  0  0  0  0  0  0  0  0  0  0
   -1.1107   -0.2839    0.3303 N   0  0  0  0  0  0  0  0  0  0  0  0
    0.0490   -1.0750    0.6539 C   0  0  2  0  0  0  0  0  0  0  0  0
    0.3900   -1.9158   -0.5730 C   0  0  0  0  0  0  0  0  0  0  0  0
    0.1192   -1.5677   -1.7205 O   0  0  0  0  0  0  0  0  0  0  0  0
   -0.1565   -1.9502    1.8989 C   0  0  2  0  0  0  0  0  0  0  0  0
   -1.2269   -2.8717    1.6970 O   0  0  0  0  0  0  0  0  0  0  0  0
   -0.4809   -1.1238    3.1375 C   0  0  0  0  0  0  0  0  0  0  0  0
   -1.6733   -0.5660   -0.4691 H   0  0  0  0  0  0  0  0  0  0  0  0
    0.8692   -0.3674    0.8256 H   0  0  0  0  0  0  0  0  0  0  0  0
    0.7453   -2.5392    2.1025 H   0  0  0  0  0  0  0  0  0  0  0  0
   -1.2698   -3.4217    2.4940 H   0  0  0  0  0  0  0  0  0  0  0  0
   -1.3780   -0.5133    2.9875 H   0  0  0  0  0  0  0  0  0  0  0  0
    0.3522   -0.4679    3.4074 H   0  0  0  0  0  0  0  0  0  0  0  0
   -0.6933   -1.7825    3.9868 H   0  0  0  0  0  0  0  0  0  0  0  0
    0.9870   -3.1212   -0.2319 N   0  0  0  0  0  0  0  0  0  0  0  0
    1.3729   -4.1036   -1.2173 C   0  0  2  0  0  0  0  0  0  0  0  0
    2.6828   -3.6486   -1.8472 C   0  0  0  0  0  0  0  0  0  0  0  0
    3.0573   -2.4778   -1.8444 O   0  0  0  0  0  0  0  0  0  0  0  0
    0.2940   -4.2805   -2.2744 C   0  0  0  0  0  0  0  0  0  0  0  0
    1.1593   -3.3201    0.7493 H   0  0  0  0  0  0  0  0  0  0  0  0
    1.5330   -5.0447   -0.6799 H   0  0  0  0  0  0  0  0  0  0  0  0
    0.1197   -3.3479   -2.8234 H   0  0  0  0  0  0  0  0  0  0  0  0
    0.5758   -5.0462   -3.0047 H   0  0  0  0  0  0  0  0  0  0  0  0
   -0.6552   -4.5789   -1.8164 H   0  0  0  0  0  0  0  0  0  0  0  0
    3.3636   -4.6968   -2.4505 N   0  0  0  0  0  0  0  0  0  0  0  0
    4.6266   -4.5187   -3.1280 C   0  0  0  0  0  0  0  0  0  0  0  0
    2.9882   -5.6385   -2.3875 H   0  0  0  0  0  0  0  0  0  0  0  0
    4.4469   -4.3338   -4.1974 H   0  0  0  0  0  0  0  0  0  0  0  0
    5.1587   -3.6603   -2.6920 H   0  0  0  0  0  0  0  0  0  0  0  0
    5.2368   -5.4264   -3.0105 H   0  0  0  0  0  0  0  0  0  0  0  0
  1  3  1  0  0  0  0
  1  7  1  0  0  0  0
  1  2  2  0  0  0  0
 32 33  1  0  0  0  0
 33 41  1  0  0  0  0
 33 34  2  0  0  0  0
  8  9  1  0  0  0  0
  9 17  1  0  0  0  0
  9 10  2  0  0  0  0
 18 19  1  0  0  0  0
 19 31  1  0  0  0  0
 19 20  2  0  0  0  0
 32 35  1  0  0  0  0
  8 11  1  0  0  0  0
 21 23  1  0  0  0  0
 41 42  1  0  0  0  0
 31 32  1  0  0  0  0
  7  8  1  0  0  0  0
 18 21  1  0  0  0  0
 17 18  1  0  0  0  0
 21 22  1  0  0  0  0
  3  4  1  0  0  0  0
  3  5  1  0  0  0  0
  3  6  1  0  0  0  0
 35 38  1  0  0  0  0
 35 39  1  0  0  0  0
 35 40  1  0  0  0  0
 11 14  1  0  0  0  0
 11 15  1  0  0  0  0
 11 16  1  0  0  0  0
 23 28  1  0  0  0  0
 23 29  1  0  0  0  0
 23 30  1  0  0  0  0
 42 44  1  0  0  0  0
 42 45  1  0  0  0  0
 42 46  1  0  0  0  0
 32 37  1  0  0  0  0
  8 13  1  0  0  0  0
 18 25  1  0  0  0  0
 21 26  1  0  0  0  0
 41 43  1  0  0  0  0
  7 12  1  0  0  0  0
 31 36  1  0  0  0  0
 17 24  1  0  0  0  0
 22 27  1  0  0  0  0
M  END
$$$$

  -OEChem-05262214473D

 46 45  0     1  0  0  0  0  0999 V2000
   -4.6700    2.7214    1.5150 C   0  0  0  0  0  0  0  0  0  0  0  0
   -5.4532    2.5715    0.5845 O   0  0  0  0  0  0  0  0  0  0  0  0
   -5.0996    3.4865    2.7226 C   0  0  0  0  0  0  0  0  0  0  0  0
   -4.8796    4.5629    2.6387 H   0  0  0  0  0  0  0  0  0  0  0  0
   -6.1861    3.4241    2.8954 H   0  0  0  0  0  0  0  0  0  0  0  0
   -4.6369    3.1693    3.6708 H   0  0  0  0  0  0  0  0  0  0  0  0
   -3.3731    2.2391    1.5790 N   0  0  0  0  0  0  0  0  0  0  0  0
   -2.7599    1.4751    0.5247 C   0  0  2  0  0  0  0  0  0  0  0  0
   -1.5143    0.8067    1.0915 C   0  0  0  0  0  0  0  0  0  0  0  0
   -0.9247    1.2213    2.0872 O   0  0  0  0  0  0  0  0  0  0  0  0
   -2.4106    2.3553   -0.6653 C   0  0  0  0  0  0  0  0  0  0  0  0
   -2.8254    2.4352    2.4150 H   0  0  0  0  0  0  0  0  0  0  0  0
   -3.4836    0.7082    0.2278 H   0  0  0  0  0  0  0  0  0  0  0  0
   -1.6866    3.1298   -0.3871 H   0  0  0  0  0  0  0  0  0  0  0  0
   -1.9704    1.7677   -1.4777 H   0  0  0  0  0  0  0  0  0  0  0  0
   -3.3030    2.8584   -1.0531 H   0  0  0  0  0  0  0  0  0  0  0  0
   -1.1107   -0.2839    0.3303 N   0  0  0  0  0  0  0  0  0  0  0  0
    0.0490   -1.0750    0.6539 C   0  0  2  0  0  0  0  0  0  0  0  0
    0.3900   -1.9158   -0.5730 C   0  0  0  0  0  0  0  0  0  0  0  0
    0.3696   -1.4694   -1.7182 O   0  0  0  0  0  0  0  0  0  0  0  0
   -0.1565   -1.9502    1.8989 C   0  0  2  0  0  0  0  0  0  0  0  0
   -1.2269   -2.8717    1.6970 O   0  0  0  0  0  0  0  0  0  0  0  0
   -0.4809   -1.1238    3.1375 C   0  0  0  0  0  0  0  0  0  0  0  0
   -1.6733   -0.5660   -0.4691 H   0  0  0  0  0  0  0  0  0  0  0  0
    0.8692   -0.3674    0.8256 H   0  0  0  0  0  0  0  0  0  0  0  0
    0.7453   -2.5392    2.1025 H   0  0  0  0  0  0  0  0  0  0  0  0
   -1.2698   -3.4217    2.4940 H   0  0  0  0  0  0  0  0  0  0  0  0
   -1.3780   -0.5133    2.9875 H   0  0  0  0  0  0  0  0  0  0  0  0
    0.3522   -0.4679    3.4074 H   0  0  0  0  0  0  0  0  0  0  0  0
   -0.6933   -1.7825    3.9868 H   0  0  0  0  0  0  0  0  0  0  0  0
    0.6712   -3.2339   -0.2424 N   0  0  0  0  0  0  0  0  0  0  0  0
    0.9908   -4.2329   -1.2350 C   0  0  2  0  0  0  0  0  0  0  0  0
    2.4447   -4.0397   -1.6453 C   0  0  0  0  0  0  0  0  0  0  0  0
    3.0455   -2.9763   -1.5060 O   0  0  0  0  0  0  0  0  0  0  0  0
    0.0680   -4.1312   -2.4395 C   0  0  0  0  0  0  0  0  0  0  0  0
    0.6514   -3.5067    0.7359 H   0  0  0  0  0  0  0  0  0  0  0  0
    0.8739   -5.2085   -0.7508 H   0  0  0  0  0  0  0  0  0  0  0  0
    0.1712   -3.1603   -2.9376 H   0  0  0  0  0  0  0  0  0  0  0  0
    0.2931   -4.9074   -3.1784 H   0  0  0  0  0  0  0  0  0  0  0  0
   -0.9794   -4.2407   -2.1383 H   0  0  0  0  0  0  0  0  0  0  0  0
    2.9795   -5.1818   -2.2249 N   0  0  0  0  0  0  0  0  0  0  0  0
    4.3388   -5.2471   -2.7088 C   0  0  0  0  0  0  0  0  0  0  0  0
    2.4149   -6.0242   -2.2826 H   0  0  0  0  0  0  0  0  0  0  0  0
    4.3616   -4.9827   -3.7764 H   0  0  0  0  0  0  0  0  0  0  0  0
    4.9637   -4.5407   -2.1428 H   0  0  0  0  0  0  0  0  0  0  0  0
    4.7266   -6.2678   -2.5757 H   0  0  0  0  0  0  0  0  0  0  0  0
  1  3  1  0  0  0  0
  1  7  1  0  0  0  0
  1  2  2  0  0  0  0
 32 33  1  0  0  0  0
 33 41  1  0  0  0  0
 33 34  2  0  0  0  0
  8  9  1  0  0  0  0
  9 17  1  0  0  0  0
  9 10  2  0  0  0  0
 18 19  1  0  0  0  0
 19 31  1  0  0  0  0
 19 20  2  0  0  0  0
 32 35  1  0  0  0  0
  8 11  1  0  0  0  0
 21 23  1  0  0  0  0
 41 42  1  0  0  0  0
 31 32  1  0  0  0  0
  7  8  1  0  0  0  0
 18 21  1  0  0  0  0
 17 18  1  0  0  0  0
 21 22  1  0  0  0  0
  3  4  1  0  0  0  0
  3  5  1  0  0  0  0
  3  6  1  0  0  0  0
 35 38  1  0  0  0  0
 35 39  1  0  0  0  0
 35 40  1  0  0  0  0
 11 14  1  0  0  0  0
 11 15  1  0  0  0  0
 11 16  1  0  0  0  0
 23 28  1  0  0  0  0
 23 29  1  0  0  0  0
 23 30  1  0  0  0  0
 42 44  1  0  0  0  0
 42 45  1  0  0  0  0
 42 46  1  0  0  0  0
 32 37  1  0  0  0  0
  8 13  1  0  0  0  0
 18 25  1  0  0  0  0
 21 26  1  0  0  0  0
 41 43  1  0  0  0  0
  7 12  1  0  0  0  0
 31 36  1  0  0  0  0
 17 24  1  0  0  0  0
 22 27  1  0  0  0  0
M  END
$$$$

  -OEChem-05262214473D

 46 45  0     1  0  0  0  0  0999 V2000
   -4.6700    2.7214    1.5150 C   0  0  0  0  0  0  0  0  0  0  0  0
   -5.4532    2.5715    0.5845 O   0  0  0  0  0  0  0  0  0  0  0  0
   -5.0996    3.4865    2.7226 C   0  0  0  0  0  0  0  0  0  0  0  0
   -4.8796    4.5629    2.6387 H   0  0  0  0  0  0  0  0  0  0  0  0
   -6.1861    3.4241    2.8954 H   0  0  0  0  0  0  0  0  0  0  0  0
   -4.6369    3.1693    3.6708 H   0  0  0  0  0  0  0  0  0  0  0  0
   -3.3731    2.2391    1.5790 N   0  0  0  0  0  0  0  0  0  0  0  0
   -2.7599    1.4751    0.5247 C   0  0  2  0  0  0  0  0  0  0  0  0
   -1.5143    0.8067    1.0915 C   0  0  0  0  0  0  0  0  0  0  0  0
   -0.9247    1.2213    2.0872 O   0  0  0  0  0  0  0  0  0  0  0  0
   -2.4106    2.3553   -0.6653 C   0  0  0  0  0  0  0  0  0  0  0  0
   -2.8254    2.4352    2.4150 H   0  0  0  0  0  0  0  0  0  0  0  0
   -3.4836    0.7082    0.2278 H   0  0  0  0  0  0  0  0  0  0  0  0
   -1.6866    3.1298   -0.3871 H   0  0  0  0  0  0  0  0  0  0  0  0
   -1.9704    1.7677   -1.4777 H   0  0  0  0  0  0  0  0  0  0  0  0
   -3.3030    2.8584   -1.0531 H   0  0  0  0  0  0  0  0  0  0  0  0
   -1.1107   -0.2839    0.3303 N   0  0  0  0  0  0  0  0  0  0  0  0
    0.0490   -1.0750    0.6539 C   0  0  2  0  0  0  0  0  0  0  0  0
    0.3900   -1.9158   -0.5730 C   0  0  0  0  0  0  0  0  0  0  0  0
    0.6316   -1.4267   -1.6747 O   0  0  0  0  0  0  0  0  0  0  0  0
   -0.1565   -1.9502    1.8989 C   0  0  2  0  0  0  0  0  0  0  0  0
   -1.2269   -2.8717    1.6970 O   0  0  0  0  0  0  0  0  0  0  0  0
   -0.4809   -1.1238    3.1375 C   0  0  0  0  0  0  0  0  0  0  0  0
   -1.6733   -0.5660   -0.4691 H   0  0  0  0  0  0  0  0  0  0  0  0
    0.8692   -0.3674    0.8256 H   0  0  0  0  0  0  0  0  0  0  0  0
    0.7453   -2.5392    2.1025 H   0  0  0  0  0  0  0  0  0  0  0  0
   -1.2698   -3.4217    2.4940 H   0  0  0  0  0  0  0  0  0  0  0  0
   -1.3780   -0.5133    2.9875 H   0  0  0  0  0  0  0  0  0  0  0  0
    0.3522   -0.4679    3.4074 H   0  0  0  0  0  0  0  0  0  0  0  0
   -0.6933   -1.7825    3.9868 H   0  0  0  0  0  0  0  0  0  0  0  0
    0.3442   -3.2764   -0.3041 N   0  0  0  0  0  0  0  0  0  0  0  0
    0.5974   -4.2771   -1.3140 C   0  0  2  0  0  0  0  0  0  0  0  0
    2.1046   -4.3797   -1.5069 C   0  0  0  0  0  0  0  0  0  0  0  0
    2.8820   -3.4750   -1.2097 O   0  0  0  0  0  0  0  0  0  0  0  0
   -0.0957   -3.9305   -2.6225 C   0  0  0  0  0  0  0  0  0  0  0  0
    0.1239   -3.5803    0.6398 H   0  0  0  0  0  0  0  0  0  0  0  0
    0.2133   -5.2255   -0.9228 H   0  0  0  0  0  0  0  0  0  0  0  0
    0.2762   -2.9832   -3.0298 H   0  0  0  0  0  0  0  0  0  0  0  0
    0.0738   -4.7044   -3.3784 H   0  0  0  0  0  0  0  0  0  0  0  0
   -1.1763   -3.8279   -2.4759 H   0  0  0  0  0  0  0  0  0  0  0  0
    2.4755   -5.5834   -2.0898 N   0  0  0  0  0  0  0  0  0  0  0  0
    3.8494   -5.9151   -2.3871 C   0  0  0  0  0  0  0  0  0  0  0  0
    1.7659   -6.2835   -2.2852 H   0  0  0  0  0  0  0  0  0  0  0  0
    4.0841   -5.6161   -3.4194 H   0  0  0  0  0  0  0  0  0  0  0  0
    4.5139   -5.3823   -1.6911 H   0  0  0  0  0  0  0  0  0  0  0  0
    3.9967   -6.9996   -2.2771 H   0  0  0  0  0  0  0  0  0  0  0  0
  1  3  1  0  0  0  0
  1  7  1  0  0  0  0
  1  2  2  0  0  0  0
 32 33  1  0  0  0  0
 33 41  1  0  0  0  0
 33 34  2  0  0  0  0
  8  9  1  0  0  0  0
  9 17  1  0  0  0  0
  9 10  2  0  0  0  0
 18 19  1  0  0  0  0
 19 31  1  0  0  0  0
 19 20  2  0  0  0  0
 32 35  1  0  0  0  0
  8 11  1  0  0  0  0
 21 23  1  0  0  0  0
 41 42  1  0  0  0  0
 31 32  1  0  0  0  0
  7  8  1  0  0  0  0
 18 21  1  0  0  0  0
 17 18  1  0  0  0  0
 21 22  1  0  0  0  0
  3  4  1  0  0  0  0
  3  5  1  0  0  0  0
  3  6  1  0  0  0  0
 35 38  1  0  0  0  0
 35 39  1  0  0  0  0
 35 40  1  0  0  0  0
 11 14  1  0  0  0  0
 11 15  1  0  0  0  0
 11 16  1  0  0  0  0
 23 28  1  0  0  0  0
 23 29  1  0  0  0  0
 23 30  1  0  0  0  0
 42 44  1  0  0  0  0
 42 45  1  0  0  0  0
 42 46  1  0  0  0  0
 32 37  1  0  0  0  0
  8 13  1  0  0  0  0
 18 25  1  0  0  0  0
 21 26  1  0  0  0  0
 41 43  1  0  0  0  0
  7 12  1  0  0  0  0
 31 36  1  0  0  0  0
 17 24  1  0  0  0  0
 22 27  1  0  0  0  0
M  END
$$$$

  -OEChem-05262214473D

 46 45  0     1  0  0  0  0  0999 V2000
   -4.6700    2.7214    1.5150 C   0  0  0  0  0  0  0  0  0  0  0  0
   -5.4532    2.5715    0.5845 O   0  0  0  0  0  0  0  0  0  0  0  0
   -5.0996    3.4865    2.7226 C   0  0  0  0  0  0  0  0  0  0  0  0
   -4.8796    4.5629    2.6387 H   0  0  0  0  0  0  0  0  0  0  0  0
   -6.1861    3.4241    2.8954 H   0  0  0  0  0  0  0  0  0  0  0  0
   -4.6369    3.1693    3.6708 H   0  0  0  0  0  0  0  0  0  0  0  0
   -3.3731    2.2391    1.5790 N   0  0  0  0  0  0  0  0  0  0  0  0
   -2.7599    1.4751    0.5247 C   0  0  2  0  0  0  0  0  0  0  0  0
   -1.5143    0.8067    1.0915 C   0  0  0  0  0  0  0  0  0  0  0  0
   -0.9247    1.2213    2.0872 O   0  0  0  0  0  0  0  0  0  0  0  0
   -2.4106    2.3553   -0.6653 C   0  0  0  0  0  0  0  0  0  0  0  0
   -2.8254    2.4352    2.4150 H   0  0  0  0  0  0  0  0  0  0  0  0
   -3.4836    0.7082    0.2278 H   0  0  0  0  0  0  0  0  0  0  0  0
   -1.6866    3.1298   -0.3871 H   0  0  0  0  0  0  0  0  0  0  0  0
   -1.9704    1.7677   -1.4777 H   0  0  0  0  0  0  0  0  0  0  0  0
   -3.3030    2.8584   -1.0531 H   0  0  0  0  0  0  0  0  0  0  0  0
   -1.1107   -0.2839    0.3303 N   0  0  0  0  0  0  0  0  0  0  0  0
    0.0490   -1.0750    0.6539 C   0  0  2  0  0  0  0  0  0  0  0  0
    0.3900   -1.9158   -0.5730 C   0  0  0  0  0  0  0  0  0  0  0  0
    0.8874   -1.4425   -1.5928 O   0  0  0  0  0  0  0  0  0  0  0  0
   -0.1565   -1.9502    1.8989 C   0  0  2  0  0  0  0  0  0  0  0  0
   -1.2269   -2.8717    1.6970 O   0  0  0  0  0  0  0  0  0  0  0  0
   -0.4809   -1.1238    3.1375 C   0  0  0  0  0  0  0  0  0  0  0  0
   -1.6733   -0.5660   -0.4691 H   0  0  0  0  0  0  0  0  0  0  0  0
    0.8692   -0.3674    0.8256 H   0  0  0  0  0  0  0  0  0  0  0  0
    0.7453   -2.5392    2.1025 H   0  0  0  0  0  0  0  0  0  0  0  0
   -1.2698   -3.4217    2.4940 H   0  0  0  0  0  0  0  0  0  0  0  0
   -1.3780   -0.5133    2.9875 H   0  0  0  0  0  0  0  0  0  0  0  0
    0.3522   -0.4679    3.4074 H   0  0  0  0  0  0  0  0  0  0  0  0
   -0.6933   -1.7825    3.9868 H   0  0  0  0  0  0  0  0  0  0  0  0
    0.0282   -3.2459   -0.4129 N   0  0  0  0  0  0  0  0  0  0  0  0
    0.2194   -4.2335   -1.4490 C   0  0  2  0  0  0  0  0  0  0  0  0
    1.6856   -4.6453   -1.4413 C   0  0  0  0  0  0  0  0  0  0  0  0
    2.5781   -3.9398   -0.9757 O   0  0  0  0  0  0  0  0  0  0  0  0
   -0.1859   -3.6920   -2.8111 C   0  0  0  0  0  0  0  0  0  0  0  0
   -0.3873   -3.5362    0.4674 H   0  0  0  0  0  0  0  0  0  0  0  0
   -0.4038   -5.0945   -1.1841 H   0  0  0  0  0  0  0  0  0  0  0  0
    0.4276   -2.8287   -3.0936 H   0  0  0  0  0  0  0  0  0  0  0  0
   -0.0673   -4.4512   -3.5911 H   0  0  0  0  0  0  0  0  0  0  0  0
   -1.2324   -3.3686   -2.8062 H   0  0  0  0  0  0  0  0  0  0  0  0
    1.8857   -5.8743   -2.0543 N   0  0  0  0  0  0  0  0  0  0  0  0
    3.1917   -6.4770   -2.1848 C   0  0  0  0  0  0  0  0  0  0  0  0
    1.0855   -6.3987   -2.3954 H   0  0  0  0  0  0  0  0  0  0  0  0
    3.6333   -6.1909   -3.1508 H   0  0  0  0  0  0  0  0  0  0  0  0
    3.8399   -6.1277   -1.3676 H   0  0  0  0  0  0  0  0  0  0  0  0
    3.0968   -7.5718   -2.1351 H   0  0  0  0  0  0  0  0  0  0  0  0
  1  3  1  0  0  0  0
  1  7  1  0  0  0  0
  1  2  2  0  0  0  0
 32 33  1  0  0  0  0
 33 41  1  0  0  0  0
 33 34  2  0  0  0  0
  8  9  1  0  0  0  0
  9 17  1  0  0  0  0
  9 10  2  0  0  0  0
 18 19  1  0  0  0  0
 19 31  1  0  0  0  0
 19 20  2  0  0  0  0
 32 35  1  0  0  0  0
  8 11  1  0  0  0  0
 21 23  1  0  0  0  0
 41 42  1  0  0  0  0
 31 32  1  0  0  0  0
  7  8  1  0  0  0  0
 18 21  1  0  0  0  0
 17 18  1  0  0  0  0
 21 22  1  0  0  0  0
  3  4  1  0  0  0  0
  3  5  1  0  0  0  0
  3  6  1  0  0  0  0
 35 38  1  0  0  0  0
 35 39  1  0  0  0  0
 35 40  1  0  0  0  0
 11 14  1  0  0  0  0
 11 15  1  0  0  0  0
 11 16  1  0  0  0  0
 23 28  1  0  0  0  0
 23 29  1  0  0  0  0
 23 30  1  0  0  0  0
 42 44  1  0  0  0  0
 42 45  1  0  0  0  0
 42 46  1  0  0  0  0
 32 37  1  0  0  0  0
  8 13  1  0  0  0  0
 18 25  1  0  0  0  0
 21 26  1  0  0  0  0
 41 43  1  0  0  0  0
  7 12  1  0  0  0  0
 31 36  1  0  0  0  0
 17 24  1  0  0  0  0
 22 27  1  0  0  0  0
M  END
$$$$

  -OEChem-05262214473D

 46 45  0     1  0  0  0  0  0999 V2000
   -4.6700    2.7214    1.5150 C   0  0  0  0  0  0  0  0  0  0  0  0
   -5.4532    2.5715    0.5845 O   0  0  0  0  0  0  0  0  0  0  0  0
   -5.0996    3.4865    2.7226 C   0  0  0  0  0  0  0  0  0  0  0  0
   -4.8796    4.5629    2.6387 H   0  0  0  0  0  0  0  0  0  0  0  0
   -6.1861    3.4241    2.8954 H   0  0  0  0  0  0  0  0  0  0  0  0
   -4.6369    3.1693    3.6708 H   0  0  0  0  0  0  0  0  0  0  0  0
   -3.3731    2.2391    1.5790 N   0  0  0  0  0  0  0  0  0  0  0  0
   -2.7599    1.4751    0.5247 C   0  0  2  0  0  0  0  0  0  0  0  0
   -1.5143    0.8067    1.0915 C   0  0  0  0  0  0  0  0  0  0  0  0
   -0.9247    1.2213    2.0872 O   0  0  0  0  0  0  0  0  0  0  0  0
   -2.4106    2.3553   -0.6653 C   0  0  0  0  0  0  0  0  0  0  0  0
   -2.8254    2.4352    2.4150 H   0  0  0  0  0  0  0  0  0  0  0  0
   -3.4836    0.7082    0.2278 H   0  0  0  0  0  0  0  0  0  0  0  0
   -1.6866    3.1298   -0.3871 H   0  0  0  0  0  0  0  0  0  0  0  0
   -1.9704    1.7677   -1.4777 H   0  0  0  0  0  0  0  0  0  0  0  0
   -3.3030    2.8584   -1.0531 H   0  0  0  0  0  0  0  0  0  0  0  0
   -1.1107   -0.2839    0.3303 N   0  0  0  0  0  0  0  0  0  0  0  0
    0.0490   -1.0750    0.6539 C   0  0  2  0  0  0  0  0  0  0  0  0
    0.3900   -1.9158   -0.5730 C   0  0  0  0  0  0  0  0  0  0  0  0
    1.1194   -1.5157   -1.4781 O   0  0  0  0  0  0  0  0  0  0  0  0
   -0.1565   -1.9502    1.8989 C   0  0  2  0  0  0  0  0  0  0  0  0
   -1.2269   -2.8717    1.6970 O   0  0  0  0  0  0  0  0  0  0  0  0
   -0.4809   -1.1238    3.1375 C   0  0  0  0  0  0  0  0  0  0  0  0
   -1.6733   -0.5660   -0.4691 H   0  0  0  0  0  0  0  0  0  0  0  0
    0.8692   -0.3674    0.8256 H   0  0  0  0  0  0  0  0  0  0  0  0
    0.7453   -2.5392    2.1025 H   0  0  0  0  0  0  0  0  0  0  0  0
   -1.2698   -3.4217    2.4940 H   0  0  0  0  0  0  0  0  0  0  0  0
   -1.3780   -0.5133    2.9875 H   0  0  0  0  0  0  0  0  0  0  0  0
    0.3522   -0.4679    3.4074 H   0  0  0  0  0  0  0  0  0  0  0  0
   -0.6933   -1.7825    3.9868 H   0  0  0  0  0  0  0  0  0  0  0  0
   -0.2551   -3.1444   -0.5612 N   0  0  0  0  0  0  0  0  0  0  0  0
   -0.1173   -4.1048   -1.6308 C   0  0  2  0  0  0  0  0  0  0  0  0
    1.2163   -4.8185   -1.4531 C   0  0  0  0  0  0  0  0  0  0  0  0
    2.1545   -4.3391   -0.8198 O   0  0  0  0  0  0  0  0  0  0  0  0
   -0.1966   -3.4319   -2.9922 C   0  0  0  0  0  0  0  0  0  0  0  0
   -0.8473   -3.3772    0.2306 H   0  0  0  0  0  0  0  0  0  0  0  0
   -0.9354   -4.8244   -1.5169 H   0  0  0  0  0  0  0  0  0  0  0  0
    0.6151   -2.7073   -3.1247 H   0  0  0  0  0  0  0  0  0  0  0  0
   -0.1206   -4.1650   -3.8021 H   0  0  0  0  0  0  0  0  0  0  0  0
   -1.1440   -2.8943   -3.1067 H   0  0  0  0  0  0  0  0  0  0  0  0
    1.2505   -6.0345   -2.1211 N   0  0  0  0  0  0  0  0  0  0  0  0
    2.4107   -6.8947   -2.1157 C   0  0  0  0  0  0  0  0  0  0  0  0
    0.4199   -6.3621   -2.6055 H   0  0  0  0  0  0  0  0  0  0  0  0
    3.0401   -6.6678   -2.9889 H   0  0  0  0  0  0  0  0  0  0  0  0
    2.9876   -6.7262   -1.1944 H   0  0  0  0  0  0  0  0  0  0  0  0
    2.0882   -7.9454   -2.1594 H   0  0  0  0  0  0  0  0  0  0  0  0
  1  3  1  0  0  0  0
  1  7  1  0  0  0  0
  1  2  2  0  0  0  0
 32 33  1  0  0  0  0
 33 41  1  0  0  0  0
 33 34  2  0  0  0  0
  8  9  1  0  0  0  0
  9 17  1  0  0  0  0
  9 10  2  0  0  0  0
 18 19  1  0  0  0  0
 19 31  1  0  0  0  0
 19 20  2  0  0  0  0
 32 35  1  0  0  0  0
  8 11  1  0  0  0  0
 21 23  1  0  0  0  0
 41 42  1  0  0  0  0
 31 32  1  0  0  0  0
  7  8  1  0  0  0  0
 18 21  1  0  0  0  0
 17 18  1  0  0  0  0
 21 22  1  0  0  0  0
  3  4  1  0  0  0  0
  3  5  1  0  0  0  0
  3  6  1  0  0  0  0
 35 38  1  0  0  0  0
 35 39  1  0  0  0  0
 35 40  1  0  0  0  0
 11 14  1  0  0  0  0
 11 15  1  0  0  0  0
 11 16  1  0  0  0  0
 23 28  1  0  0  0  0
 23 29  1  0  0  0  0
 23 30  1  0  0  0  0
 42 44  1  0  0  0  0
 42 45  1  0  0  0  0
 42 46  1  0  0  0  0
 32 37  1  0  0  0  0
  8 13  1  0  0  0  0
 18 25  1  0  0  0  0
 21 26  1  0  0  0  0
 41 43  1  0  0  0  0
  7 12  1  0  0  0  0
 31 36  1  0  0  0  0
 17 24  1  0  0  0  0
 22 27  1  0  0  0  0
M  END
$$$$

  -OEChem-05262214473D

 46 45  0     1  0  0  0  0  0999 V2000
   -4.6700    2.7214    1.5150 C   0  0  0  0  0  0  0  0  0  0  0  0
   -5.4532    2.5715    0.5845 O   0  0  0  0  0  0  0  0  0  0  0  0
   -5.0996    3.4865    2.7226 C   0  0  0  0  0  0  0  0  0  0  0  0
   -4.8796    4.5629    2.6387 H   0  0  0  0  0  0  0  0  0  0  0  0
   -6.1861    3.4241    2.8954 H   0  0  0  0  0  0  0  0  0  0  0  0
   -4.6369    3.1693    3.6708 H   0  0  0  0  0  0  0  0  0  0  0  0
   -3.3731    2.2391    1.5790 N   0  0  0  0  0  0  0  0  0  0  0  0
   -2.7599    1.4751    0.5247 C   0  0  2  0  0  0  0  0  0  0  0  0
   -1.5143    0.8067    1.0915 C   0  0  0  0  0  0  0  0  0  0  0  0
   -0.9247    1.2213    2.0872 O   0  0  0  0  0  0  0  0  0  0  0  0
   -2.4106    2.3553   -0.6653 C   0  0  0  0  0  0  0  0  0  0  0  0
   -2.8254    2.4352    2.4150 H   0  0  0  0  0  0  0  0  0  0  0  0
   -3.4836    0.7082    0.2278 H   0  0  0  0  0  0  0  0  0  0  0  0
   -1.6866    3.1298   -0.3871 H   0  0  0  0  0  0  0  0  0  0  0  0
   -1.9704    1.7677   -1.4777 H   0  0  0  0  0  0  0  0  0  0  0  0
   -3.3030    2.8584   -1.0531 H   0  0  0  0  0  0  0  0  0  0  0  0
   -1.1107   -0.2839    0.3303 N   0  0  0  0  0  0  0  0  0  0  0  0
    0.0490   -1.0750    0.6539 C   0  0  2  0  0  0  0  0  0  0  0  0
    0.3900   -1.9158   -0.5730 C   0  0  0  0  0  0  0  0  0  0  0  0
    1.3120   -1.6414   -1.3384 O   0  0  0  0  0  0  0  0  0  0  0  0
   -0.1565   -1.9502    1.8989 C   0  0  2  0  0  0  0  0  0  0  0  0
   -1.2269   -2.8717    1.6970 O   0  0  0  0  0  0  0  0  0  0  0  0
   -0.4809   -1.1238    3.1375 C   0  0  0  0  0  0  0  0  0  0  0  0
   -1.6733   -0.5660   -0.4691 H   0  0  0  0  0  0  0  0  0  0  0  0
    0.8692   -0.3674    0.8256 H   0  0  0  0  0  0  0  0  0  0  0  0
    0.7453   -2.5392    2.1025 H   0  0  0  0  0  0  0  0  0  0  0  0
   -1.2698   -3.4217    2.4940 H   0  0  0  0  0  0  0  0  0  0  0  0
   -1.3780   -0.5133    2.9875 H   0  0  0  0  0  0  0  0  0  0  0  0
    0.3522   -0.4679    3.4074 H   0  0  0  0  0  0  0  0  0  0  0  0
   -0.6933   -1.7825    3.9868 H   0  0  0  0  0  0  0  0  0  0  0  0
   -0.4865   -2.9788   -0.7390 N   0  0  0  0  0  0  0  0  0  0  0  0
   -0.3899   -3.8999   -1.8469 C   0  0  2  0  0  0  0  0  0  0  0  0
    0.7286   -4.8874   -1.5414 C   0  0  0  0  0  0  0  0  0  0  0  0
    1.6399   -4.6457   -0.7527 O   0  0  0  0  0  0  0  0  0  0  0  0
   -0.1269   -3.1680   -3.1537 C   0  0  0  0  0  0  0  0  0  0  0  0
   -1.2247   -3.1142   -0.0545 H   0  0  0  0  0  0  0  0  0  0  0  0
   -1.3451   -4.4337   -1.8986 H   0  0  0  0  0  0  0  0  0  0  0  0
    0.8260   -2.6272   -3.1209 H   0  0  0  0  0  0  0  0  0  0  0  0
   -0.0824   -3.8652   -3.9970 H   0  0  0  0  0  0  0  0  0  0  0  0
   -0.9170   -2.4371   -3.3569 H   0  0  0  0  0  0  0  0  0  0  0  0
    0.6131   -6.0533   -2.2854 N   0  0  0  0  0  0  0  0  0  0  0  0
    1.5596   -7.1396   -2.1844 C   0  0  0  0  0  0  0  0  0  0  0  0
   -0.1854   -6.1761   -2.9012 H   0  0  0  0  0  0  0  0  0  0  0  0
    2.3446   -7.0143   -2.9447 H   0  0  0  0  0  0  0  0  0  0  0  0
    2.0151   -7.1369   -1.1832 H   0  0  0  0  0  0  0  0  0  0  0  0
    1.0398   -8.0951   -2.3483 H   0  0  0  0  0  0  0  0  0  0  0  0
  1  3  1  0  0  0  0
  1  7  1  0  0  0  0
  1  2  2  0  0  0  0
 32 33  1  0  0  0  0
 33 41  1  0  0  0  0
 33 34  2  0  0  0  0
  8  9  1  0  0  0  0
  9 17  1  0  0  0  0
  9 10  2  0  0  0  0
 18 19  1  0  0  0  0
 19 31  1  0  0  0  0
 19 20  2  0  0  0  0
 32 35  1  0  0  0  0
  8 11  1  0  0  0  0
 21 23  1  0  0  0  0
 41 42  1  0  0  0  0
 31 32  1  0  0  0  0
  7  8  1  0  0  0  0
 18 21  1  0  0  0  0
 17 18  1  0  0  0  0
 21 22  1  0  0  0  0
  3  4  1  0  0  0  0
  3  5  1  0  0  0  0
  3  6  1  0  0  0  0
 35 38  1  0  0  0  0
 35 39  1  0  0  0  0
 35 40  1  0  0  0  0
 11 14  1  0  0  0  0
 11 15  1  0  0  0  0
 11 16  1  0  0  0  0
 23 28  1  0  0  0  0
 23 29  1  0  0  0  0
 23 30  1  0  0  0  0
 42 44  1  0  0  0  0
 42 45  1  0  0  0  0
 42 46  1  0  0  0  0
 32 37  1  0  0  0  0
  8 13  1  0  0  0  0
 18 25  1  0  0  0  0
 21 26  1  0  0  0  0
 41 43  1  0  0  0  0
  7 12  1  0  0  0  0
 31 36  1  0  0  0  0
 17 24  1  0  0  0  0
 22 27  1  0  0  0  0
M  END
$$$$

  -OEChem-05262214473D

 46 45  0     1  0  0  0  0  0999 V2000
   -4.6700    2.7214    1.5150 C   0  0  0  0  0  0  0  0  0  0  0  0
   -5.4532    2.5715    0.5845 O   0  0  0  0  0  0  0  0  0  0  0  0
   -5.0996    3.4865    2.7226 C   0  0  0  0  0  0  0  0  0  0  0  0
   -4.8796    4.5629    2.6387 H   0  0  0  0  0  0  0  0  0  0  0  0
   -6.1861    3.4241    2.8954 H   0  0  0  0  0  0  0  0  0  0  0  0
   -4.6369    3.1693    3.6708 H   0  0  0  0  0  0  0  0  0  0  0  0
   -3.3731    2.2391    1.5790 N   0  0  0  0  0  0  0  0  0  0  0  0
   -2.7599    1.4751    0.5247 C   0  0  2  0  0  0  0  0  0  0  0  0
   -1.5143    0.8067    1.0915 C   0  0  0  0  0  0  0  0  0  0  0  0
   -0.9247    1.2213    2.0872 O   0  0  0  0  0  0  0  0  0  0  0  0
   -2.4106    2.3553   -0.6653 C   0  0  0  0  0  0  0  0  0  0  0  0
   -2.8254    2.4352    2.4150 H   0  0  0  0  0  0  0  0  0  0  0  0
   -3.4836    0.7082    0.2278 H   0  0  0  0  0  0  0  0  0  0  0  0
   -1.6866    3.1298   -0.3871 H   0  0  0  0  0  0  0  0  0  0  0  0
   -1.9704    1.7677   -1.4777 H   0  0  0  0  0  0  0  0  0  0  0  0
   -3.3030    2.8584   -1.0531 H   0  0  0  0  0  0  0  0  0  0  0  0
   -1.1107   -0.2839    0.3303 N   0  0  0  0  0  0  0  0  0  0  0  0
    0.0490   -1.0750    0.6539 C   0  0  2  0  0  0  0  0  0  0  0  0
    0.3900   -1.9158   -0.5730 C   0  0  0  0  0  0  0  0  0  0  0  0
    1.4520   -1.8109   -1.1834 O   0  0  0  0  0  0  0  0  0  0  0  0
   -0.1565   -1.9502    1.8989 C   0  0  2  0  0  0  0  0  0  0  0  0
   -1.2269   -2.8717    1.6970 O   0  0  0  0  0  0  0  0  0  0  0  0
   -0.4809   -1.1238    3.1375 C   0  0  0  0  0  0  0  0  0  0  0  0
   -1.6733   -0.5660   -0.4691 H   0  0  0  0  0  0  0  0  0  0  0  0
    0.8692   -0.3674    0.8256 H   0  0  0  0  0  0  0  0  0  0  0  0
    0.7453   -2.5392    2.1025 H   0  0  0  0  0  0  0  0  0  0  0  0
   -1.2698   -3.4217    2.4940 H   0  0  0  0  0  0  0  0  0  0  0  0
   -1.3780   -0.5133    2.9875 H   0  0  0  0  0  0  0  0  0  0  0  0
    0.3522   -0.4679    3.4074 H   0  0  0  0  0  0  0  0  0  0  0  0
   -0.6933   -1.7825    3.9868 H   0  0  0  0  0  0  0  0  0  0  0  0
   -0.6501   -2.7604   -0.9342 N   0  0  0  0  0  0  0  0  0  0  0  0
   -0.5798   -3.6328   -2.0827 C   0  0  2  0  0  0  0  0  0  0  0  0
    0.2557   -4.8474   -1.7003 C   0  0  0  0  0  0  0  0  0  0  0  0
    1.0696   -4.8386   -0.7791 O   0  0  0  0  0  0  0  0  0  0  0  0
    0.0183   -2.9182   -3.2845 C   0  0  0  0  0  0  0  0  0  0  0  0
   -1.4939   -2.7651   -0.3686 H   0  0  0  0  0  0  0  0  0  0  0  0
   -1.6052   -3.9489   -2.3031 H   0  0  0  0  0  0  0  0  0  0  0  0
    1.0457   -2.5940   -3.0826 H   0  0  0  0  0  0  0  0  0  0  0  0
    0.0447   -3.5723   -4.1624 H   0  0  0  0  0  0  0  0  0  0  0  0
   -0.5669   -2.0282   -3.5398 H   0  0  0  0  0  0  0  0  0  0  0  0
    0.0169   -5.9293   -2.5361 N   0  0  0  0  0  0  0  0  0  0  0  0
    0.6962   -7.1950   -2.3864 C   0  0  0  0  0  0  0  0  0  0  0  0
   -0.6891   -5.8533   -3.2624 H   0  0  0  0  0  0  0  0  0  0  0  0
    1.5945   -7.2069   -3.0212 H   0  0  0  0  0  0  0  0  0  0  0  0
    0.9887   -7.3319   -1.3349 H   0  0  0  0  0  0  0  0  0  0  0  0
    0.0228   -8.0105   -2.6889 H   0  0  0  0  0  0  0  0  0  0  0  0
  1  3  1  0  0  0  0
  1  7  1  0  0  0  0
  1  2  2  0  0  0  0
 32 33  1  0  0  0  0
 33 41  1  0  0  0  0
 33 34  2  0  0  0  0
  8  9  1  0  0  0  0
  9 17  1  0  0  0  0
  9 10  2  0  0  0  0
 18 19  1  0  0  0  0
 19 31  1  0  0  0  0
 19 20  2  0  0  0  0
 32 35  1  0  0  0  0
  8 11  1  0  0  0  0
 21 23  1  0  0  0  0
 41 42  1  0  0  0  0
 31 32  1  0  0  0  0
  7  8  1  0  0  0  0
 18 21  1  0  0  0  0
 17 18  1  0  0  0  0
 21 22  1  0  0  0  0
  3  4  1  0  0  0  0
  3  5  1  0  0  0  0
  3  6  1  0  0  0  0
 35 38  1  0  0  0  0
 35 39  1  0  0  0  0
 35 40  1  0  0  0  0
 11 14  1  0  0  0  0
 11 15  1  0  0  0  0
 11 16  1  0  0  0  0
 23 28  1  0  0  0  0
 23 29  1  0  0  0  0
 23 30  1  0  0  0  0
 42 44  1  0  0  0  0
 42 45  1  0  0  0  0
 42 46  1  0  0  0  0
 32 37  1  0  0  0  0
  8 13  1  0  0  0  0
 18 25  1  0  0  0  0
 21 26  1  0  0  0  0
 41 43  1  0  0  0  0
  7 12  1  0  0  0  0
 31 36  1  0  0  0  0
 17 24  1  0  0  0  0
 22 27  1  0  0  0  0
M  END
$$$$

  -OEChem-05262214473D

 46 45  0     1  0  0  0  0  0999 V2000
   -4.6700    2.7214    1.5150 C   0  0  0  0  0  0  0  0  0  0  0  0
   -5.4532    2.5715    0.5845 O   0  0  0  0  0  0  0  0  0  0  0  0
   -5.0996    3.4865    2.7226 C   0  0  0  0  0  0  0  0  0  0  0  0
   -4.8796    4.5629    2.6387 H   0  0  0  0  0  0  0  0  0  0  0  0
   -6.1861    3.4241    2.8954 H   0  0  0  0  0  0  0  0  0  0  0  0
   -4.6369    3.1693    3.6708 H   0  0  0  0  0  0  0  0  0  0  0  0
   -3.3731    2.2391    1.5790 N   0  0  0  0  0  0  0  0  0  0  0  0
   -2.7599    1.4751    0.5247 C   0  0  2  0  0  0  0  0  0  0  0  0
   -1.5143    0.8067    1.0915 C   0  0  0  0  0  0  0  0  0  0  0  0
   -0.9247    1.2213    2.0872 O   0  0  0  0  0  0  0  0  0  0  0  0
   -2.4106    2.3553   -0.6653 C   0  0  0  0  0  0  0  0  0  0  0  0
   -2.8254    2.4352    2.4150 H   0  0  0  0  0  0  0  0  0  0  0  0
   -3.4836    0.7082    0.2278 H   0  0  0  0  0  0  0  0  0  0  0  0
   -1.6866    3.1298   -0.3871 H   0  0  0  0  0  0  0  0  0  0  0  0
   -1.9704    1.7677   -1.4777 H   0  0  0  0  0  0  0  0  0  0  0  0
   -3.3030    2.8584   -1.0531 H   0  0  0  0  0  0  0  0  0  0  0  0
   -1.1107   -0.2839    0.3303 N   0  0  0  0  0  0  0  0  0  0  0  0
    0.0490   -1.0750    0.6539 C   0  0  2  0  0  0  0  0  0  0  0  0
    0.3900   -1.9158   -0.5730 C   0  0  0  0  0  0  0  0  0  0  0  0
    1.5298   -2.0128   -1.0234 O   0  0  0  0  0  0  0  0  0  0  0  0
   -0.1565   -1.9502    1.8989 C   0  0  2  0  0  0  0  0  0  0  0  0
   -1.2269   -2.8717    1.6970 O   0  0  0  0  0  0  0  0  0  0  0  0
   -0.4809   -1.1238    3.1375 C   0  0  0  0  0  0  0  0  0  0  0  0
   -1.6733   -0.5660   -0.4691 H   0  0  0  0  0  0  0  0  0  0  0  0
    0.8692   -0.3674    0.8256 H   0  0  0  0  0  0  0  0  0  0  0  0
    0.7453   -2.5392    2.1025 H   0  0  0  0  0  0  0  0  0  0  0  0
   -1.2698   -3.4217    2.4940 H   0  0  0  0  0  0  0  0  0  0  0  0
   -1.3780   -0.5133    2.9875 H   0  0  0  0  0  0  0  0  0  0  0  0
    0.3522   -0.4679    3.4074 H   0  0  0  0  0  0  0  0  0  0  0  0
   -0.6933   -1.7825    3.9868 H   0  0  0  0  0  0  0  0  0  0  0  0
   -0.7350   -2.5041   -1.1334 N   0  0  0  0  0  0  0  0  0  0  0  0
   -0.6739   -3.3217   -2.3221 C   0  0  2  0  0  0  0  0  0  0  0  0
   -0.1700   -4.7011   -1.9188 C   0  0  0  0  0  0  0  0  0  0  0  0
    0.4823   -4.9047   -0.8970 O   0  0  0  0  0  0  0  0  0  0  0  0
    0.2293   -2.6996   -3.3757 C   0  0  0  0  0  0  0  0  0  0  0  0
   -1.6365   -2.3537   -0.6901 H   0  0  0  0  0  0  0  0  0  0  0  0
   -1.6979   -3.4032   -2.7028 H   0  0  0  0  0  0  0  0  0  0  0  0
    1.2595   -2.6098   -3.0123 H   0  0  0  0  0  0  0  0  0  0  0  0
    0.2519   -3.3062   -4.2871 H   0  0  0  0  0  0  0  0  0  0  0  0
   -0.1176   -1.6956   -3.6429 H   0  0  0  0  0  0  0  0  0  0  0  0
   -0.4974   -5.6709   -2.8561 N   0  0  0  0  0  0  0  0  0  0  0  0
   -0.1204   -7.0572   -2.7078 C   0  0  0  0  0  0  0  0  0  0  0  0
   -1.0570   -5.4158   -3.6645 H   0  0  0  0  0  0  0  0  0  0  0  0
    0.8408   -7.2324   -3.2132 H   0  0  0  0  0  0  0  0  0  0  0  0
   -0.0218   -7.2979   -1.6390 H   0  0  0  0  0  0  0  0  0  0  0  0
   -0.8933   -7.6975   -3.1580 H   0  0  0  0  0  0  0  0  0  0  0  0
  1  3  1  0  0  0  0
  1  7  1  0  0  0  0
  1  2  2  0  0  0  0
 32 33  1  0  0  0  0
 33 41  1  0  0  0  0
 33 34  2  0  0  0  0
  8  9  1  0  0  0  0
  9 17  1  0  0  0  0
  9 10  2  0  0  0  0
 18 19  1  0  0  0  0
 19 31  1  0  0  0  0
 19 20  2  0  0  0  0
 32 35  1  0  0  0  0
  8 11  1  0  0  0  0
 21 23  1  0  0  0  0
 41 42  1  0  0  0  0
 31 32  1  0  0  0  0
  7  8  1  0  0  0  0
 18 21  1  0  0  0  0
 17 18  1  0  0  0  0
 21 22  1  0  0  0  0
  3  4  1  0  0  0  0
  3  5  1  0  0  0  0
  3  6  1  0  0  0  0
 35 38  1  0  0  0  0
 35 39  1  0  0  0  0
 35 40  1  0  0  0  0
 11 14  1  0  0  0  0
 11 15  1  0  0  0  0
 11 16  1  0  0  0  0
 23 28  1  0  0  0  0
 23 29  1  0  0  0  0
 23 30  1  0  0  0  0
 42 44  1  0  0  0  0
 42 45  1  0  0  0  0
 42 46  1  0  0  0  0
 32 37  1  0  0  0  0
  8 13  1  0  0  0  0
 18 25  1  0  0  0  0
 21 26  1  0  0  0  0
 41 43  1  0  0  0  0
  7 12  1  0  0  0  0
 31 36  1  0  0  0  0
 17 24  1  0  0  0  0
 22 27  1  0  0  0  0
M  END
$$$$

  -OEChem-05262214473D

 46 45  0     1  0  0  0  0  0999 V2000
   -4.6700    2.7214    1.5150 C   0  0  0  0  0  0  0  0  0  0  0  0
   -5.4532    2.5715    0.5845 O   0  0  0  0  0  0  0  0  0  0  0  0
   -5.0996    3.4865    2.7226 C   0  0  0  0  0  0  0  0  0  0  0  0
   -4.8796    4.5629    2.6387 H   0  0  0  0  0  0  0  0  0  0  0  0
   -6.1861    3.4241    2.8954 H   0  0  0  0  0  0  0  0  0  0  0  0
   -4.6369    3.1693    3.6708 H   0  0  0  0  0  0  0  0  0  0  0  0
   -3.3731    2.2391    1.5790 N   0  0  0  0  0  0  0  0  0  0  0  0
   -2.7599    1.4751    0.5247 C   0  0  2  0  0  0  0  0  0  0  0  0
   -1.5143    0.8067    1.0915 C   0  0  0  0  0  0  0  0  0  0  0  0
   -0.9247    1.2213    2.0872 O   0  0  0  0  0  0  0  0  0  0  0  0
   -2.4106    2.3553   -0.6653 C   0  0  0  0  0  0  0  0  0  0  0  0
   -2.8254    2.4352    2.4150 H   0  0  0  0  0  0  0  0  0  0  0  0
   -3.4836    0.7082    0.2278 H   0  0  0  0  0  0  0  0  0  0  0  0
   -1.6866    3.1298   -0.3871 H   0  0  0  0  0  0  0  0  0  0  0  0
   -1.9704    1.7677   -1.4777 H   0  0  0  0  0  0  0  0  0  0  0  0
   -3.3030    2.8584   -1.0531 H   0  0  0  0  0  0  0  0  0  0  0  0
   -1.1107   -0.2839    0.3303 N   0  0  0  0  0  0  0  0  0  0  0  0
    0.0490   -1.0750    0.6539 C   0  0  2  0  0  0  0  0  0  0  0  0
    0.3900   -1.9158   -0.5730 C   0  0  0  0  0  0  0  0  0  0  0  0
    1.5401   -2.2332   -0.8695 O   0  0  0  0  0  0  0  0  0  0  0  0
   -0.1565   -1.9502    1.8989 C   0  0  2  0  0  0  0  0  0  0  0  0
   -1.2269   -2.8717    1.6970 O   0  0  0  0  0  0  0  0  0  0  0  0
   -0.4809   -1.1238    3.1375 C   0  0  0  0  0  0  0  0  0  0  0  0
   -1.6733   -0.5660   -0.4691 H   0  0  0  0  0  0  0  0  0  0  0  0
    0.8692   -0.3674    0.8256 H   0  0  0  0  0  0  0  0  0  0  0  0
    0.7453   -2.5392    2.1025 H   0  0  0  0  0  0  0  0  0  0  0  0
   -1.2698   -3.4217    2.4940 H   0  0  0  0  0  0  0  0  0  0  0  0
   -1.3780   -0.5133    2.9875 H   0  0  0  0  0  0  0  0  0  0  0  0
    0.3522   -0.4679    3.4074 H   0  0  0  0  0  0  0  0  0  0  0  0
   -0.6933   -1.7825    3.9868 H   0  0  0  0  0  0  0  0  0  0  0  0
   -0.7352   -2.2273   -1.3231 N   0  0  0  0  0  0  0  0  0  0  0  0
   -0.6660   -2.9877   -2.5488 C   0  0  2  0  0  0  0  0  0  0  0  0
   -0.5196   -4.4586   -2.1822 C   0  0  0  0  0  0  0  0  0  0  0  0
   -0.0819   -4.8395   -1.0985 O   0  0  0  0  0  0  0  0  0  0  0  0
    0.4915   -2.5271   -3.4211 C   0  0  0  0  0  0  0  0  0  0  0  0
   -1.6428   -1.9081   -0.9972 H   0  0  0  0  0  0  0  0  0  0  0  0
   -1.6168   -2.8336   -3.0706 H   0  0  0  0  0  0  0  0  0  0  0  0
    1.4526   -2.6737   -2.9149 H   0  0  0  0  0  0  0  0  0  0  0  0
    0.5253   -3.0851   -4.3626 H   0  0  0  0  0  0  0  0  0  0  0  0
    0.4003   -1.4618   -3.6591 H   0  0  0  0  0  0  0  0  0  0  0  0
   -0.8948   -5.2958   -3.2236 N   0  0  0  0  0  0  0  0  0  0  0  0
   -0.8347   -6.7356   -3.1268 C   0  0  0  0  0  0  0  0  0  0  0  0
   -1.2641   -4.8934   -4.0800 H   0  0  0  0  0  0  0  0  0  0  0  0
    0.1348   -7.0891   -3.5077 H   0  0  0  0  0  0  0  0  0  0  0  0
   -0.9473   -7.0372   -2.0749 H   0  0  0  0  0  0  0  0  0  0  0  0
   -1.6462   -7.1773   -3.7237 H   0  0  0  0  0  0  0  0  0  0  0  0
  1  3  1  0  0  0  0
  1  7  1  0  0  0  0
  1  2  2  0  0  0  0
 32 33  1  0  0  0  0
 33 41  1  0  0  0  0
 33 34  2  0  0  0  0
  8  9  1  0  0  0  0
  9 17  1  0  0  0  0
  9 10  2  0  0  0  0
 18 19  1  0  0  0  0
 19 31  1  0  0  0  0
 19 20  2  0  0  0  0
 32 35  1  0  0  0  0
  8 11  1  0  0  0  0
 21 23  1  0  0  0  0
 41 42  1  0  0  0  0
 31 32  1  0  0  0  0
  7  8  1  0  0  0  0
 18 21  1  0  0  0  0
 17 18  1  0  0  0  0
 21 22  1  0  0  0  0
  3  4  1  0  0  0  0
  3  5  1  0  0  0  0
  3  6  1  0  0  0  0
 35 38  1  0  0  0  0
 35 39  1  0  0  0  0
 35 40  1  0  0  0  0
 11 14  1  0  0  0  0
 11 15  1  0  0  0  0
 11 16  1  0  0  0  0
 23 28  1  0  0  0  0
 23 29  1  0  0  0  0
 23 30  1  0  0  0  0
 42 44  1  0  0  0  0
 42 45  1  0  0  0  0
 42 46  1  0  0  0  0
 32 37  1  0  0  0  0
  8 13  1  0  0  0  0
 18 25  1  0  0  0  0
 21 26  1  0  0  0  0
 41 43  1  0  0  0  0
  7 12  1  0  0  0  0
 31 36  1  0  0  0  0
 17 24  1  0  0  0  0
 22 27  1  0  0  0  0
M  END
$$$$

  -OEChem-05262214473D

 46 45  0     1  0  0  0  0  0999 V2000
   -4.6700    2.7214    1.5150 C   0  0  0  0  0  0  0  0  0  0  0  0
   -5.4532    2.5715    0.5845 O   0  0  0  0  0  0  0  0  0  0  0  0
   -5.0996    3.4865    2.7226 C   0  0  0  0  0  0  0  0  0  0  0  0
   -4.8796    4.5629    2.6387 H   0  0  0  0  0  0  0  0  0  0  0  0
   -6.1861    3.4241    2.8954 H   0  0  0  0  0  0  0  0  0  0  0  0
   -4.6369    3.1693    3.6708 H   0  0  0  0  0  0  0  0  0  0  0  0
   -3.3731    2.2391    1.5790 N   0  0  0  0  0  0  0  0  0  0  0  0
   -2.7599    1.4751    0.5247 C   0  0  2  0  0  0  0  0  0  0  0  0
   -1.5143    0.8067    1.0915 C   0  0  0  0  0  0  0  0  0  0  0  0
   -0.9247    1.2213    2.0872 O   0  0  0  0  0  0  0  0  0  0  0  0
   -2.4106    2.3553   -0.6653 C   0  0  0  0  0  0  0  0  0  0  0  0
   -2.8254    2.4352    2.4150 H   0  0  0  0  0  0  0  0  0  0  0  0
   -3.4836    0.7082    0.2278 H   0  0  0  0  0  0  0  0  0  0  0  0
   -1.6866    3.1298   -0.3871 H   0  0  0  0  0  0  0  0  0  0  0  0
   -1.9704    1.7677   -1.4777 H   0  0  0  0  0  0  0  0  0  0  0  0
   -3.3030    2.8584   -1.0531 H   0  0  0  0  0  0  0  0  0  0  0  0
   -1.1107   -0.2839    0.3303 N   0  0  0  0  0  0  0  0  0  0  0  0
    0.0490   -1.0750    0.6539 C   0  0  2  0  0  0  0  0  0  0  0  0
    0.3900   -1.9158   -0.5730 C   0  0  0  0  0  0  0  0  0  0  0  0
    1.4822   -2.4571   -0.7321 O   0  0  0  0  0  0  0  0  0  0  0  0
   -0.1565   -1.9502    1.8989 C   0  0  2  0  0  0  0  0  0  0  0  0
   -1.2269   -2.8717    1.6970 O   0  0  0  0  0  0  0  0  0  0  0  0
   -0.4809   -1.1238    3.1375 C   0  0  0  0  0  0  0  0  0  0  0  0
   -1.6733   -0.5660   -0.4691 H   0  0  0  0  0  0  0  0  0  0  0  0
    0.8692   -0.3674    0.8256 H   0  0  0  0  0  0  0  0  0  0  0  0
    0.7453   -2.5392    2.1025 H   0  0  0  0  0  0  0  0  0  0  0  0
   -1.2698   -3.4217    2.4940 H   0  0  0  0  0  0  0  0  0  0  0  0
   -1.3780   -0.5133    2.9875 H   0  0  0  0  0  0  0  0  0  0  0  0
    0.3522   -0.4679    3.4074 H   0  0  0  0  0  0  0  0  0  0  0  0
   -0.6933   -1.7825    3.9868 H   0  0  0  0  0  0  0  0  0  0  0  0
   -0.6507   -1.9490   -1.4903 N   0  0  0  0  0  0  0  0  0  0  0  0
   -0.5565   -2.6536   -2.7473 C   0  0  2  0  0  0  0  0  0  0  0  0
   -0.7693   -4.1364   -2.4724 C   0  0  0  0  0  0  0  0  0  0  0  0
   -0.5846   -4.6474   -1.3698 O   0  0  0  0  0  0  0  0  0  0  0  0
    0.7872   -2.4124   -3.4175 C   0  0  0  0  0  0  0  0  0  0  0  0
   -1.5123   -1.4586   -1.2690 H   0  0  0  0  0  0  0  0  0  0  0  0
   -1.3675   -2.2790   -3.3814 H   0  0  0  0  0  0  0  0  0  0  0  0
    1.6120   -2.7812   -2.7969 H   0  0  0  0  0  0  0  0  0  0  0  0
    0.8461   -2.9241   -4.3838 H   0  0  0  0  0  0  0  0  0  0  0  0
    0.9515   -1.3429   -3.5874 H   0  0  0  0  0  0  0  0  0  0  0  0
   -1.1482   -4.8296   -3.6136 N   0  0  0  0  0  0  0  0  0  0  0  0
   -1.3980   -6.2521   -3.6147 C   0  0  0  0  0  0  0  0  0  0  0  0
   -1.2960   -4.3217   -4.4807 H   0  0  0  0  0  0  0  0  0  0  0  0
   -0.4753   -6.7867   -3.8845 H   0  0  0  0  0  0  0  0  0  0  0  0
   -1.7249   -6.5676   -2.6129 H   0  0  0  0  0  0  0  0  0  0  0  0
   -2.1845   -6.4855   -4.3475 H   0  0  0  0  0  0  0  0  0  0  0  0
  1  3  1  0  0  0  0
  1  7  1  0  0  0  0
  1  2  2  0  0  0  0
 32 33  1  0  0  0  0
 33 41  1  0  0  0  0
 33 34  2  0  0  0  0
  8  9  1  0  0  0  0
  9 17  1  0  0  0  0
  9 10  2  0  0  0  0
 18 19  1  0  0  0  0
 19 31  1  0  0  0  0
 19 20  2  0  0  0  0
 32 35  1  0  0  0  0
  8 11  1  0  0  0  0
 21 23  1  0  0  0  0
 41 42  1  0  0  0  0
 31 32  1  0  0  0  0
  7  8  1  0  0  0  0
 18 21  1  0  0  0  0
 17 18  1  0  0  0  0
 21 22  1  0  0  0  0
  3  4  1  0  0  0  0
  3  5  1  0  0  0  0
  3  6  1  0  0  0  0
 35 38  1  0  0  0  0
 35 39  1  0  0  0  0
 35 40  1  0  0  0  0
 11 14  1  0  0  0  0
 11 15  1  0  0  0  0
 11 16  1  0  0  0  0
 23 28  1  0  0  0  0
 23 29  1  0  0  0  0
 23 30  1  0  0  0  0
 42 44  1  0  0  0  0
 42 45  1  0  0  0  0
 42 46  1  0  0  0  0
 32 37  1  0  0  0  0
  8 13  1  0  0  0  0
 18 25  1  0  0  0  0
 21 26  1  0  0  0  0
 41 43  1  0  0  0  0
  7 12  1  0  0  0  0
 31 36  1  0  0  0  0
 17 24  1  0  0  0  0
 22 27  1  0  0  0  0
M  END
$$$$

  -OEChem-05262214473D

 46 45  0     1  0  0  0  0  0999 V2000
   -4.6700    2.7214    1.5150 C   0  0  0  0  0  0  0  0  0  0  0  0
   -5.4532    2.5715    0.5845 O   0  0  0  0  0  0  0  0  0  0  0  0
   -5.0996    3.4865    2.7226 C   0  0  0  0  0  0  0  0  0  0  0  0
   -4.8796    4.5629    2.6387 H   0  0  0  0  0  0  0  0  0  0  0  0
   -6.1861    3.4241    2.8954 H   0  0  0  0  0  0  0  0  0  0  0  0
   -4.6369    3.1693    3.6708 H   0  0  0  0  0  0  0  0  0  0  0  0
   -3.3731    2.2391    1.5790 N   0  0  0  0  0  0  0  0  0  0  0  0
   -2.7599    1.4751    0.5247 C   0  0  2  0  0  0  0  0  0  0  0  0
   -1.5143    0.8067    1.0915 C   0  0  0  0  0  0  0  0  0  0  0  0
   -0.9247    1.2213    2.0872 O   0  0  0  0  0  0  0  0  0  0  0  0
   -2.4106    2.3553   -0.6653 C   0  0  0  0  0  0  0  0  0  0  0  0
   -2.8254    2.4352    2.4150 H   0  0  0  0  0  0  0  0  0  0  0  0
   -3.4836    0.7082    0.2278 H   0  0  0  0  0  0  0  0  0  0  0  0
   -1.6866    3.1298   -0.3871 H   0  0  0  0  0  0  0  0  0  0  0  0
   -1.9704    1.7677   -1.4777 H   0  0  0  0  0  0  0  0  0  0  0  0
   -3.3030    2.8584   -1.0531 H   0  0  0  0  0  0  0  0  0  0  0  0
   -1.1107   -0.2839    0.3303 N   0  0  0  0  0  0  0  0  0  0  0  0
    0.0490   -1.0750    0.6539 C   0  0  2  0  0  0  0  0  0  0  0  0
    0.3900   -1.9158   -0.5730 C   0  0  0  0  0  0  0  0  0  0  0  0
    1.3602   -2.6693   -0.6206 O   0  0  0  0  0  0  0  0  0  0  0  0
   -0.1565   -1.9502    1.8989 C   0  0  2  0  0  0  0  0  0  0  0  0
   -1.2269   -2.8717    1.6970 O   0  0  0  0  0  0  0  0  0  0  0  0
   -0.4809   -1.1238    3.1375 C   0  0  0  0  0  0  0  0  0  0  0  0
   -1.6733   -0.5660   -0.4691 H   0  0  0  0  0  0  0  0  0  0  0  0
    0.8692   -0.3674    0.8256 H   0  0  0  0  0  0  0  0  0  0  0  0
    0.7453   -2.5392    2.1025 H   0  0  0  0  0  0  0  0  0  0  0  0
   -1.2698   -3.4217    2.4940 H   0  0  0  0  0  0  0  0  0  0  0  0
   -1.3780   -0.5133    2.9875 H   0  0  0  0  0  0  0  0  0  0  0  0
    0.3522   -0.4679    3.4074 H   0  0  0  0  0  0  0  0  0  0  0  0
   -0.6933   -1.7825    3.9868 H   0  0  0  0  0  0  0  0  0  0  0  0
   -0.4873   -1.6881   -1.6237 N   0  0  0  0  0  0  0  0  0  0  0  0
   -0.3529   -2.3422   -2.9041 C   0  0  2  0  0  0  0  0  0  0  0  0
   -0.9021   -3.7563   -2.7698 C   0  0  0  0  0  0  0  0  0  0  0  0
   -0.9915   -4.3416   -1.6925 O   0  0  0  0  0  0  0  0  0  0  0  0
    1.0961   -2.3633   -3.3652 C   0  0  0  0  0  0  0  0  0  0  0  0
   -1.2540   -1.0359   -1.4869 H   0  0  0  0  0  0  0  0  0  0  0  0
   -0.9669   -1.7772   -3.6139 H   0  0  0  0  0  0  0  0  0  0  0  0
    1.7268   -2.9250   -2.6665 H   0  0  0  0  0  0  0  0  0  0  0  0
    1.1926   -2.8341   -4.3491 H   0  0  0  0  0  0  0  0  0  0  0  0
    1.4985   -1.3468   -3.4327 H   0  0  0  0  0  0  0  0  0  0  0  0
   -1.2403   -4.3039   -3.9994 N   0  0  0  0  0  0  0  0  0  0  0  0
   -1.7719   -5.6396   -4.1384 C   0  0  0  0  0  0  0  0  0  0  0  0
   -1.1508   -3.7396   -4.8392 H   0  0  0  0  0  0  0  0  0  0  0  0
   -0.9480   -6.3459   -4.3179 H   0  0  0  0  0  0  0  0  0  0  0  0
   -2.3015   -5.9211   -3.2163 H   0  0  0  0  0  0  0  0  0  0  0  0
   -2.4715   -5.6692   -4.9867 H   0  0  0  0  0  0  0  0  0  0  0  0
  1  3  1  0  0  0  0
  1  7  1  0  0  0  0
  1  2  2  0  0  0  0
 32 33  1  0  0  0  0
 33 41  1  0  0  0  0
 33 34  2  0  0  0  0
  8  9  1  0  0  0  0
  9 17  1  0  0  0  0
  9 10  2  0  0  0  0
 18 19  1  0  0  0  0
 19 31  1  0  0  0  0
 19 20  2  0  0  0  0
 32 35  1  0  0  0  0
  8 11  1  0  0  0  0
 21 23  1  0  0  0  0
 41 42  1  0  0  0  0
 31 32  1  0  0  0  0
  7  8  1  0  0  0  0
 18 21  1  0  0  0  0
 17 18  1  0  0  0  0
 21 22  1  0  0  0  0
  3  4  1  0  0  0  0
  3  5  1  0  0  0  0
  3  6  1  0  0  0  0
 35 38  1  0  0  0  0
 35 39  1  0  0  0  0
 35 40  1  0  0  0  0
 11 14  1  0  0  0  0
 11 15  1  0  0  0  0
 11 16  1  0  0  0  0
 23 28  1  0  0  0  0
 23 29  1  0  0  0  0
 23 30  1  0  0  0  0
 42 44  1  0  0  0  0
 42 45  1  0  0  0  0
 42 46  1  0  0  0  0
 32 37  1  0  0  0  0
  8 13  1  0  0  0  0
 18 25  1  0  0  0  0
 21 26  1  0  0  0  0
 41 43  1  0  0  0  0
  7 12  1  0  0  0  0
 31 36  1  0  0  0  0
 17 24  1  0  0  0  0
 22 27  1  0  0  0  0
M  END
$$$$

  -OEChem-05262214473D

 46 45  0     1  0  0  0  0  0999 V2000
   -4.6700    2.7214    1.5150 C   0  0  0  0  0  0  0  0  0  0  0  0
   -5.4532    2.5715    0.5845 O   0  0  0  0  0  0  0  0  0  0  0  0
   -5.0996    3.4865    2.7226 C   0  0  0  0  0  0  0  0  0  0  0  0
   -4.8796    4.5629    2.6387 H   0  0  0  0  0  0  0  0  0  0  0  0
   -6.1861    3.4241    2.8954 H   0  0  0  0  0  0  0  0  0  0  0  0
   -4.6369    3.1693    3.6708 H   0  0  0  0  0  0  0  0  0  0  0  0
   -3.3731    2.2391    1.5790 N   0  0  0  0  0  0  0  0  0  0  0  0
   -2.7599    1.4751    0.5247 C   0  0  2  0  0  0  0  0  0  0  0  0
   -1.5143    0.8067    1.0915 C   0  0  0  0  0  0  0  0  0  0  0  0
   -0.9247    1.2213    2.0872 O   0  0  0  0  0  0  0  0  0  0  0  0
   -2.4106    2.3553   -0.6653 C   0  0  0  0  0  0  0  0  0  0  0  0
   -2.8254    2.4352    2.4150 H   0  0  0  0  0  0  0  0  0  0  0  0
   -3.4836    0.7082    0.2278 H   0  0  0  0  0  0  0  0  0  0  0  0
   -1.6866    3.1298   -0.3871 H   0  0  0  0  0  0  0  0  0  0  0  0
   -1.9704    1.7677   -1.4777 H   0  0  0  0  0  0  0  0  0  0  0  0
   -3.3030    2.8584   -1.0531 H   0  0  0  0  0  0  0  0  0  0  0  0
   -1.1107   -0.2839    0.3303 N   0  0  0  0  0  0  0  0  0  0  0  0
    0.0490   -1.0750    0.6539 C   0  0  2  0  0  0  0  0  0  0  0  0
    0.3900   -1.9158   -0.5730 C   0  0  0  0  0  0  0  0  0  0  0  0
    1.1822   -2.8554   -0.5426 O   0  0  0  0  0  0  0  0  0  0  0  0
   -0.1565   -1.9502    1.8989 C   0  0  2  0  0  0  0  0  0  0  0  0
   -1.2269   -2.8717    1.6970 O   0  0  0  0  0  0  0  0  0  0  0  0
   -0.4809   -1.1238    3.1375 C   0  0  0  0  0  0  0  0  0  0  0  0
   -1.6733   -0.5660   -0.4691 H   0  0  0  0  0  0  0  0  0  0  0  0
    0.8692   -0.3674    0.8256 H   0  0  0  0  0  0  0  0  0  0  0  0
    0.7453   -2.5392    2.1025 H   0  0  0  0  0  0  0  0  0  0  0  0
   -1.2698   -3.4217    2.4940 H   0  0  0  0  0  0  0  0  0  0  0  0
   -1.3780   -0.5133    2.9875 H   0  0  0  0  0  0  0  0  0  0  0  0
    0.3522   -0.4679    3.4074 H   0  0  0  0  0  0  0  0  0  0  0  0
   -0.6933   -1.7825    3.9868 H   0  0  0  0  0  0  0  0  0  0  0  0
   -0.2562   -1.4623   -1.7142 N   0  0  0  0  0  0  0  0  0  0  0  0
   -0.0691   -2.0747   -3.0085 C   0  0  2  0  0  0  0  0  0  0  0  0
   -0.9088   -3.3445   -3.0539 C   0  0  0  0  0  0  0  0  0  0  0  0
   -1.2750   -3.9429   -2.0445 O   0  0  0  0  0  0  0  0  0  0  0  0
    1.3973   -2.3833   -3.2679 C   0  0  0  0  0  0  0  0  0  0  0  0
   -0.8854   -0.6687   -1.6361 H   0  0  0  0  0  0  0  0  0  0  0  0
   -0.4425   -1.3625   -3.7524 H   0  0  0  0  0  0  0  0  0  0  0  0
    1.7891   -3.0954   -2.5324 H   0  0  0  0  0  0  0  0  0  0  0  0
    1.5410   -2.8213   -4.2611 H   0  0  0  0  0  0  0  0  0  0  0  0
    2.0040   -1.4734   -3.2054 H   0  0  0  0  0  0  0  0  0  0  0  0
   -1.1648   -3.7547   -4.3548 N   0  0  0  0  0  0  0  0  0  0  0  0
   -1.9309   -4.9399   -4.6621 C   0  0  0  0  0  0  0  0  0  0  0  0
   -0.8383   -3.1869   -5.1312 H   0  0  0  0  0  0  0  0  0  0  0  0
   -1.2510   -5.7966   -4.7786 H   0  0  0  0  0  0  0  0  0  0  0  0
   -2.6379   -5.1416   -3.8439 H   0  0  0  0  0  0  0  0  0  0  0  0
   -2.4878   -4.7840   -5.5978 H   0  0  0  0  0  0  0  0  0  0  0  0
  1  3  1  0  0  0  0
  1  7  1  0  0  0  0
  1  2  2  0  0  0  0
 32 33  1  0  0  0  0
 33 41  1  0  0  0  0
 33 34  2  0  0  0  0
  8  9  1  0  0  0  0
  9 17  1  0  0  0  0
  9 10  2  0  0  0  0
 18 19  1  0  0  0  0
 19 31  1  0  0  0  0
 19 20  2  0  0  0  0
 32 35  1  0  0  0  0
  8 11  1  0  0  0  0
 21 23  1  0  0  0  0
 41 42  1  0  0  0  0
 31 32  1  0  0  0  0
  7  8  1  0  0  0  0
 18 21  1  0  0  0  0
 17 18  1  0  0  0  0
 21 22  1  0  0  0  0
  3  4  1  0  0  0  0
  3  5  1  0  0  0  0
  3  6  1  0  0  0  0
 35 38  1  0  0  0  0
 35 39  1  0  0  0  0
 35 40  1  0  0  0  0
 11 14  1  0  0  0  0
 11 15  1  0  0  0  0
 11 16  1  0  0  0  0
 23 28  1  0  0  0  0
 23 29  1  0  0  0  0
 23 30  1  0  0  0  0
 42 44  1  0  0  0  0
 42 45  1  0  0  0  0
 42 46  1  0  0  0  0
 32 37  1  0  0  0  0
  8 13  1  0  0  0  0
 18 25  1  0  0  0  0
 21 26  1  0  0  0  0
 41 43  1  0  0  0  0
  7 12  1  0  0  0  0
 31 36  1  0  0  0  0
 17 24  1  0  0  0  0
 22 27  1  0  0  0  0
M  END
$$$$

  -OEChem-05262214473D

 46 45  0     1  0  0  0  0  0999 V2000
   -4.6700    2.7214    1.5150 C   0  0  0  0  0  0  0  0  0  0  0  0
   -5.4532    2.5715    0.5845 O   0  0  0  0  0  0  0  0  0  0  0  0
   -5.0996    3.4865    2.7226 C   0  0  0  0  0  0  0  0  0  0  0  0
   -4.8796    4.5629    2.6387 H   0  0  0  0  0  0  0  0  0  0  0  0
   -6.1861    3.4241    2.8954 H   0  0  0  0  0  0  0  0  0  0  0  0
   -4.6369    3.1693    3.6708 H   0  0  0  0  0  0  0  0  0  0  0  0
   -3.3731    2.2391    1.5790 N   0  0  0  0  0  0  0  0  0  0  0  0
   -2.7599    1.4751    0.5247 C   0  0  2  0  0  0  0  0  0  0  0  0
   -1.5143    0.8067    1.0915 C   0  0  0  0  0  0  0  0  0  0  0  0
   -0.9247    1.2213    2.0872 O   0  0  0  0  0  0  0  0  0  0  0  0
   -2.4106    2.3553   -0.6653 C   0  0  0  0  0  0  0  0  0  0  0  0
   -2.8254    2.4352    2.4150 H   0  0  0  0  0  0  0  0  0  0  0  0
   -3.4836    0.7082    0.2278 H   0  0  0  0  0  0  0  0  0  0  0  0
   -1.6866    3.1298   -0.3871 H   0  0  0  0  0  0  0  0  0  0  0  0
   -1.9704    1.7677   -1.4777 H   0  0  0  0  0  0  0  0  0  0  0  0
   -3.3030    2.8584   -1.0531 H   0  0  0  0  0  0  0  0  0  0  0  0
   -1.1107   -0.2839    0.3303 N   0  0  0  0  0  0  0  0  0  0  0  0
    0.0490   -1.0750    0.6539 C   0  0  2  0  0  0  0  0  0  0  0  0
    0.3900   -1.9158   -0.5730 C   0  0  0  0  0  0  0  0  0  0  0  0
    0.9605   -3.0026   -0.5034 O   0  0  0  0  0  0  0  0  0  0  0  0
   -0.1565   -1.9502    1.8989 C   0  0  2  0  0  0  0  0  0  0  0  0
   -1.2269   -2.8717    1.6970 O   0  0  0  0  0  0  0  0  0  0  0  0
   -0.4809   -1.1238    3.1375 C   0  0  0  0  0  0  0  0  0  0  0  0
   -1.6733   -0.5660   -0.4691 H   0  0  0  0  0  0  0  0  0  0  0  0
    0.8692   -0.3674    0.8256 H   0  0  0  0  0  0  0  0  0  0  0  0
    0.7453   -2.5392    2.1025 H   0  0  0  0  0  0  0  0  0  0  0  0
   -1.2698   -3.4217    2.4940 H   0  0  0  0  0  0  0  0  0  0  0  0
   -1.3780   -0.5133    2.9875 H   0  0  0  0  0  0  0  0  0  0  0  0
    0.3522   -0.4679    3.4074 H   0  0  0  0  0  0  0  0  0  0  0  0
   -0.6933   -1.7825    3.9868 H   0  0  0  0  0  0  0  0  0  0  0  0
    0.0269   -1.2871   -1.7556 N   0  0  0  0  0  0  0  0  0  0  0  0
    0.2756   -1.8694   -3.0535 C   0  0  2  0  0  0  0  0  0  0  0  0
   -0.7891   -2.9288   -3.3055 C   0  0  0  0  0  0  0  0  0  0  0  0
   -1.4155   -3.4785   -2.4019 O   0  0  0  0  0  0  0  0  0  0  0  0
    1.6702   -2.4708   -3.1320 C   0  0  0  0  0  0  0  0  0  0  0  0
   -0.4317   -0.3821   -1.7064 H   0  0  0  0  0  0  0  0  0  0  0  0
    0.1702   -1.0630   -3.7874 H   0  0  0  0  0  0  0  0  0  0  0  0
    1.7947   -3.2806   -2.4039 H   0  0  0  0  0  0  0  0  0  0  0  0
    1.8676   -2.8865   -4.1256 H   0  0  0  0  0  0  0  0  0  0  0  0
    2.4335   -1.7140   -2.9212 H   0  0  0  0  0  0  0  0  0  0  0  0
   -0.9270   -3.2193   -4.6556 N   0  0  0  0  0  0  0  0  0  0  0  0
   -1.8642   -4.2006   -5.1501 C   0  0  0  0  0  0  0  0  0  0  0  0
   -0.3798   -2.7011   -5.3366 H   0  0  0  0  0  0  0  0  0  0  0  0
   -1.3636   -5.1764   -5.2349 H   0  0  0  0  0  0  0  0  0  0  0  0
   -2.7112   -4.2824   -4.4531 H   0  0  0  0  0  0  0  0  0  0  0  0
   -2.2321   -3.8902   -6.1393 H   0  0  0  0  0  0  0  0  0  0  0  0
  1  3  1  0  0  0  0
  1  7  1  0  0  0  0
  1  2  2  0  0  0  0
 32 33  1  0  0  0  0
 33 41  1  0  0  0  0
 33 34  2  0  0  0  0
  8  9  1  0  0  0  0
  9 17  1  0  0  0  0
  9 10  2  0  0  0  0
 18 19  1  0  0  0  0
 19 31  1  0  0  0  0
 19 20  2  0  0  0  0
 32 35  1  0  0  0  0
  8 11  1  0  0  0  0
 21 23  1  0  0  0  0
 41 42  1  0  0  0  0
 31 32  1  0  0  0  0
  7  8  1  0  0  0  0
 18 21  1  0  0  0  0
 17 18  1  0  0  0  0
 21 22  1  0  0  0  0
  3  4  1  0  0  0  0
  3  5  1  0  0  0  0
  3  6  1  0  0  0  0
 35 38  1  0  0  0  0
 35 39  1  0  0  0  0
 35 40  1  0  0  0  0
 11 14  1  0  0  0  0
 11 15  1  0  0  0  0
 11 16  1  0  0  0  0
 23 28  1  0  0  0  0
 23 29  1  0  0  0  0
 23 30  1  0  0  0  0
 42 44  1  0  0  0  0
 42 45  1  0  0  0  0
 42 46  1  0  0  0  0
 32 37  1  0  0  0  0
  8 13  1  0  0  0  0
 18 25  1  0  0  0  0
 21 26  1  0  0  0  0
 41 43  1  0  0  0  0
  7 12  1  0  0  0  0
 31 36  1  0  0  0  0
 17 24  1  0  0  0  0
 22 27  1  0  0  0  0
M  END
$$$$

  -OEChem-05262214473D

 46 45  0     1  0  0  0  0  0999 V2000
   -4.6700    2.7214    1.5150 C   0  0  0  0  0  0  0  0  0  0  0  0
   -5.4532    2.5715    0.5845 O   0  0  0  0  0  0  0  0  0  0  0  0
   -5.0996    3.4865    2.7226 C   0  0  0  0  0  0  0  0  0  0  0  0
   -4.8796    4.5629    2.6387 H   0  0  0  0  0  0  0  0  0  0  0  0
   -6.1861    3.4241    2.8954 H   0  0  0  0  0  0  0  0  0  0  0  0
   -4.6369    3.1693    3.6708 H   0  0  0  0  0  0  0  0  0  0  0  0
   -3.3731    2.2391    1.5790 N   0  0  0  0  0  0  0  0  0  0  0  0
   -2.7599    1.4751    0.5247 C   0  0  2  0  0  0  0  0  0  0  0  0
   -1.5143    0.8067    1.0915 C   0  0  0  0  0  0  0  0  0  0  0  0
   -0.9247    1.2213    2.0872 O   0  0  0  0  0  0  0  0  0  0  0  0
   -2.4106    2.3553   -0.6653 C   0  0  0  0  0  0  0  0  0  0  0  0
   -2.8254    2.4352    2.4150 H   0  0  0  0  0  0  0  0  0  0  0  0
   -3.4836    0.7082    0.2278 H   0  0  0  0  0  0  0  0  0  0  0  0
   -1.6866    3.1298   -0.3871 H   0  0  0  0  0  0  0  0  0  0  0  0
   -1.9704    1.7677   -1.4777 H   0  0  0  0  0  0  0  0  0  0  0  0
   -3.3030    2.8584   -1.0531 H   0  0  0  0  0  0  0  0  0  0  0  0
   -1.1107   -0.2839    0.3303 N   0  0  0  0  0  0  0  0  0  0  0  0
    0.0490   -1.0750    0.6539 C   0  0  2  0  0  0  0  0  0  0  0  0
    0.3900   -1.9158   -0.5730 C   0  0  0  0  0  0  0  0  0  0  0  0
    0.7100   -3.1009   -0.5056 O   0  0  0  0  0  0  0  0  0  0  0  0
   -0.1565   -1.9502    1.8989 C   0  0  2  0  0  0  0  0  0  0  0  0
   -1.2269   -2.8717    1.6970 O   0  0  0  0  0  0  0  0  0  0  0  0
   -0.4809   -1.1238    3.1375 C   0  0  0  0  0  0  0  0  0  0  0  0
   -1.6733   -0.5660   -0.4691 H   0  0  0  0  0  0  0  0  0  0  0  0
    0.8692   -0.3674    0.8256 H   0  0  0  0  0  0  0  0  0  0  0  0
    0.7453   -2.5392    2.1025 H   0  0  0  0  0  0  0  0  0  0  0  0
   -1.2698   -3.4217    2.4940 H   0  0  0  0  0  0  0  0  0  0  0  0
   -1.3780   -0.5133    2.9875 H   0  0  0  0  0  0  0  0  0  0  0  0
    0.3522   -0.4679    3.4074 H   0  0  0  0  0  0  0  0  0  0  0  0
   -0.6933   -1.7825    3.9868 H   0  0  0  0  0  0  0  0  0  0  0  0
    0.3427   -1.1744   -1.7451 N   0  0  0  0  0  0  0  0  0  0  0  0
    0.6577   -1.7402   -3.0358 C   0  0  2  0  0  0  0  0  0  0  0  0
   -0.5511   -2.5376   -3.5074 C   0  0  0  0  0  0  0  0  0  0  0  0
   -1.4037   -2.9799   -2.7402 O   0  0  0  0  0  0  0  0  0  0  0  0
    1.8962   -2.6200   -2.9669 C   0  0  0  0  0  0  0  0  0  0  0  0
    0.0762   -0.1956   -1.6930 H   0  0  0  0  0  0  0  0  0  0  0  0
    0.8293   -0.8991   -3.7164 H   0  0  0  0  0  0  0  0  0  0  0  0
    1.7433   -3.4682   -2.2897 H   0  0  0  0  0  0  0  0  0  0  0  0
    2.1502   -3.0253   -3.9520 H   0  0  0  0  0  0  0  0  0  0  0  0
    2.7577   -2.0522   -2.5993 H   0  0  0  0  0  0  0  0  0  0  0  0
   -0.5429   -2.7343   -4.8812 N   0  0  0  0  0  0  0  0  0  0  0  0
   -1.5764   -3.4722   -5.5693 C   0  0  0  0  0  0  0  0  0  0  0  0
    0.1935   -2.3154   -5.4416 H   0  0  0  0  0  0  0  0  0  0  0  0
   -1.2783   -4.5275   -5.6559 H   0  0  0  0  0  0  0  0  0  0  0  0
   -2.5163   -3.4021   -5.0022 H   0  0  0  0  0  0  0  0  0  0  0  0
   -1.7219   -3.0488   -6.5741 H   0  0  0  0  0  0  0  0  0  0  0  0
  1  3  1  0  0  0  0
  1  7  1  0  0  0  0
  1  2  2  0  0  0  0
 32 33  1  0  0  0  0
 33 41  1  0  0  0  0
 33 34  2  0  0  0  0
  8  9  1  0  0  0  0
  9 17  1  0  0  0  0
  9 10  2  0  0  0  0
 18 19  1  0  0  0  0
 19 31  1  0  0  0  0
 19 20  2  0  0  0  0
 32 35  1  0  0  0  0
  8 11  1  0  0  0  0
 21 23  1  0  0  0  0
 41 42  1  0  0  0  0
 31 32  1  0  0  0  0
  7  8  1  0  0  0  0
 18 21  1  0  0  0  0
 17 18  1  0  0  0  0
 21 22  1  0  0  0  0
  3  4  1  0  0  0  0
  3  5  1  0  0  0  0
  3  6  1  0  0  0  0
 35 38  1  0  0  0  0
 35 39  1  0  0  0  0
 35 40  1  0  0  0  0
 11 14  1  0  0  0  0
 11 15  1  0  0  0  0
 11 16  1  0  0  0  0
 23 28  1  0  0  0  0
 23 29  1  0  0  0  0
 23 30  1  0  0  0  0
 42 44  1  0  0  0  0
 42 45  1  0  0  0  0
 42 46  1  0  0  0  0
 32 37  1  0  0  0  0
  8 13  1  0  0  0  0
 18 25  1  0  0  0  0
 21 26  1  0  0  0  0
 41 43  1  0  0  0  0
  7 12  1  0  0  0  0
 31 36  1  0  0  0  0
 17 24  1  0  0  0  0
 22 27  1  0  0  0  0
M  END
$$$$

  -OEChem-05262214473D

 46 45  0     1  0  0  0  0  0999 V2000
   -4.6700    2.7214    1.5150 C   0  0  0  0  0  0  0  0  0  0  0  0
   -5.4532    2.5715    0.5845 O   0  0  0  0  0  0  0  0  0  0  0  0
   -5.0996    3.4865    2.7226 C   0  0  0  0  0  0  0  0  0  0  0  0
   -4.8796    4.5629    2.6387 H   0  0  0  0  0  0  0  0  0  0  0  0
   -6.1861    3.4241    2.8954 H   0  0  0  0  0  0  0  0  0  0  0  0
   -4.6369    3.1693    3.6708 H   0  0  0  0  0  0  0  0  0  0  0  0
   -3.3731    2.2391    1.5790 N   0  0  0  0  0  0  0  0  0  0  0  0
   -2.7599    1.4751    0.5247 C   0  0  2  0  0  0  0  0  0  0  0  0
   -1.5143    0.8067    1.0915 C   0  0  0  0  0  0  0  0  0  0  0  0
   -0.9247    1.2213    2.0872 O   0  0  0  0  0  0  0  0  0  0  0  0
   -2.4106    2.3553   -0.6653 C   0  0  0  0  0  0  0  0  0  0  0  0
   -2.8254    2.4352    2.4150 H   0  0  0  0  0  0  0  0  0  0  0  0
   -3.4836    0.7082    0.2278 H   0  0  0  0  0  0  0  0  0  0  0  0
   -1.6866    3.1298   -0.3871 H   0  0  0  0  0  0  0  0  0  0  0  0
   -1.9704    1.7677   -1.4777 H   0  0  0  0  0  0  0  0  0  0  0  0
   -3.3030    2.8584   -1.0531 H   0  0  0  0  0  0  0  0  0  0  0  0
   -1.1107   -0.2839    0.3303 N   0  0  0  0  0  0  0  0  0  0  0  0
    0.0490   -1.0750    0.6539 C   0  0  2  0  0  0  0  0  0  0  0  0
    0.3900   -1.9158   -0.5730 C   0  0  0  0  0  0  0  0  0  0  0  0
    0.4480   -3.1436   -0.5492 O   0  0  0  0  0  0  0  0  0  0  0  0
   -0.1565   -1.9502    1.8989 C   0  0  2  0  0  0  0  0  0  0  0  0
   -1.2269   -2.8717    1.6970 O   0  0  0  0  0  0  0  0  0  0  0  0
   -0.4809   -1.1238    3.1375 C   0  0  0  0  0  0  0  0  0  0  0  0
   -1.6733   -0.5660   -0.4691 H   0  0  0  0  0  0  0  0  0  0  0  0
    0.8692   -0.3674    0.8256 H   0  0  0  0  0  0  0  0  0  0  0  0
    0.7453   -2.5392    2.1025 H   0  0  0  0  0  0  0  0  0  0  0  0
   -1.2698   -3.4217    2.4940 H   0  0  0  0  0  0  0  0  0  0  0  0
   -1.3780   -0.5133    2.9875 H   0  0  0  0  0  0  0  0  0  0  0  0
    0.3522   -0.4679    3.4074 H   0  0  0  0  0  0  0  0  0  0  0  0
   -0.6933   -1.7825    3.9868 H   0  0  0  0  0  0  0  0  0  0  0  0
    0.6698   -1.1318   -1.6833 N   0  0  0  0  0  0  0  0  0  0  0  0
    1.0512   -1.6959   -2.9568 C   0  0  2  0  0  0  0  0  0  0  0  0
   -0.2109   -2.1977   -3.6458 C   0  0  0  0  0  0  0  0  0  0  0  0
   -1.2403   -2.4812   -3.0366 O   0  0  0  0  0  0  0  0  0  0  0  0
    2.0599   -2.8207   -2.7839 C   0  0  0  0  0  0  0  0  0  0  0  0
    0.6037   -0.1219   -1.5969 H   0  0  0  0  0  0  0  0  0  0  0  0
    1.4899   -0.8821   -3.5445 H   0  0  0  0  0  0  0  0  0  0  0  0
    1.6383   -3.6453   -2.1975 H   0  0  0  0  0  0  0  0  0  0  0  0
    2.3696   -3.2282   -3.7519 H   0  0  0  0  0  0  0  0  0  0  0  0
    2.9546   -2.4650   -2.2616 H   0  0  0  0  0  0  0  0  0  0  0  0
   -0.0388   -2.3326   -5.0163 N   0  0  0  0  0  0  0  0  0  0  0  0
   -1.0869   -2.8042   -5.8910 C   0  0  0  0  0  0  0  0  0  0  0  0
    0.8425   -2.0561   -5.4389 H   0  0  0  0  0  0  0  0  0  0  0  0
   -1.0009   -3.8941   -6.0129 H   0  0  0  0  0  0  0  0  0  0  0  0
   -2.0665   -2.5605   -5.4539 H   0  0  0  0  0  0  0  0  0  0  0  0
   -0.9920   -2.3170   -6.8727 H   0  0  0  0  0  0  0  0  0  0  0  0
  1  3  1  0  0  0  0
  1  7  1  0  0  0  0
  1  2  2  0  0  0  0
 32 33  1  0  0  0  0
 33 41  1  0  0  0  0
 33 34  2  0  0  0  0
  8  9  1  0  0  0  0
  9 17  1  0  0  0  0
  9 10  2  0  0  0  0
 18 19  1  0  0  0  0
 19 31  1  0  0  0  0
 19 20  2  0  0  0  0
 32 35  1  0  0  0  0
  8 11  1  0  0  0  0
 21 23  1  0  0  0  0
 41 42  1  0  0  0  0
 31 32  1  0  0  0  0
  7  8  1  0  0  0  0
 18 21  1  0  0  0  0
 17 18  1  0  0  0  0
 21 22  1  0  0  0  0
  3  4  1  0  0  0  0
  3  5  1  0  0  0  0
  3  6  1  0  0  0  0
 35 38  1  0  0  0  0
 35 39  1  0  0  0  0
 35 40  1  0  0  0  0
 11 14  1  0  0  0  0
 11 15  1  0  0  0  0
 11 16  1  0  0  0  0
 23 28  1  0  0  0  0
 23 29  1  0  0  0  0
 23 30  1  0  0  0  0
 42 44  1  0  0  0  0
 42 45  1  0  0  0  0
 42 46  1  0  0  0  0
 32 37  1  0  0  0  0
  8 13  1  0  0  0  0
 18 25  1  0  0  0  0
 21 26  1  0  0  0  0
 41 43  1  0  0  0  0
  7 12  1  0  0  0  0
 31 36  1  0  0  0  0
 17 24  1  0  0  0  0
 22 27  1  0  0  0  0
M  END
$$$$

  -OEChem-05262214473D

 46 45  0     1  0  0  0  0  0999 V2000
   -4.6700    2.7214    1.5150 C   0  0  0  0  0  0  0  0  0  0  0  0
   -5.4532    2.5715    0.5845 O   0  0  0  0  0  0  0  0  0  0  0  0
   -5.0996    3.4865    2.7226 C   0  0  0  0  0  0  0  0  0  0  0  0
   -4.8796    4.5629    2.6387 H   0  0  0  0  0  0  0  0  0  0  0  0
   -6.1861    3.4241    2.8954 H   0  0  0  0  0  0  0  0  0  0  0  0
   -4.6369    3.1693    3.6708 H   0  0  0  0  0  0  0  0  0  0  0  0
   -3.3731    2.2391    1.5790 N   0  0  0  0  0  0  0  0  0  0  0  0
   -2.7599    1.4751    0.5247 C   0  0  2  0  0  0  0  0  0  0  0  0
   -1.5143    0.8067    1.0915 C   0  0  0  0  0  0  0  0  0  0  0  0
   -0.9247    1.2213    2.0872 O   0  0  0  0  0  0  0  0  0  0  0  0
   -2.4106    2.3553   -0.6653 C   0  0  0  0  0  0  0  0  0  0  0  0
   -2.8254    2.4352    2.4150 H   0  0  0  0  0  0  0  0  0  0  0  0
   -3.4836    0.7082    0.2278 H   0  0  0  0  0  0  0  0  0  0  0  0
   -1.6866    3.1298   -0.3871 H   0  0  0  0  0  0  0  0  0  0  0  0
   -1.9704    1.7677   -1.4777 H   0  0  0  0  0  0  0  0  0  0  0  0
   -3.3030    2.8584   -1.0531 H   0  0  0  0  0  0  0  0  0  0  0  0
   -1.1107   -0.2839    0.3303 N   0  0  0  0  0  0  0  0  0  0  0  0
    0.0490   -1.0750    0.6539 C   0  0  2  0  0  0  0  0  0  0  0  0
    0.3900   -1.9158   -0.5730 C   0  0  0  0  0  0  0  0  0  0  0  0
    0.1923   -3.1278   -0.6311 O   0  0  0  0  0  0  0  0  0  0  0  0
   -0.1565   -1.9502    1.8989 C   0  0  2  0  0  0  0  0  0  0  0  0
   -1.2269   -2.8717    1.6970 O   0  0  0  0  0  0  0  0  0  0  0  0
   -0.4809   -1.1238    3.1375 C   0  0  0  0  0  0  0  0  0  0  0  0
   -1.6733   -0.5660   -0.4691 H   0  0  0  0  0  0  0  0  0  0  0  0
    0.8692   -0.3674    0.8256 H   0  0  0  0  0  0  0  0  0  0  0  0
    0.7453   -2.5392    2.1025 H   0  0  0  0  0  0  0  0  0  0  0  0
   -1.2698   -3.4217    2.4940 H   0  0  0  0  0  0  0  0  0  0  0  0
   -1.3780   -0.5133    2.9875 H   0  0  0  0  0  0  0  0  0  0  0  0
    0.3522   -0.4679    3.4074 H   0  0  0  0  0  0  0  0  0  0  0  0
   -0.6933   -1.7825    3.9868 H   0  0  0  0  0  0  0  0  0  0  0  0
    0.9857   -1.1624   -1.5746 N   0  0  0  0  0  0  0  0  0  0  0  0
    1.4291   -1.7396   -2.8218 C   0  0  2  0  0  0  0  0  0  0  0  0
    0.2081   -1.9321   -3.7114 C   0  0  0  0  0  0  0  0  0  0  0  0
   -0.9364   -2.0164   -3.2706 O   0  0  0  0  0  0  0  0  0  0  0  0
    2.1501   -3.0593   -2.5954 C   0  0  0  0  0  0  0  0  0  0  0  0
    1.1149   -0.1660   -1.4246 H   0  0  0  0  0  0  0  0  0  0  0  0
    2.1070   -1.0131   -3.2832 H   0  0  0  0  0  0  0  0  0  0  0  0
    1.4868   -3.7998   -2.1337 H   0  0  0  0  0  0  0  0  0  0  0  0
    2.5107   -3.4814   -3.5392 H   0  0  0  0  0  0  0  0  0  0  0  0
    3.0108   -2.9243   -1.9313 H   0  0  0  0  0  0  0  0  0  0  0  0
    0.5509   -2.0418   -5.0517 N   0  0  0  0  0  0  0  0  0  0  0  0
   -0.4293   -2.2423   -6.0933 C   0  0  0  0  0  0  0  0  0  0  0  0
    1.5230   -1.9409   -5.3287 H   0  0  0  0  0  0  0  0  0  0  0  0
   -0.5501   -3.3193   -6.2815 H   0  0  0  0  0  0  0  0  0  0  0  0
   -1.3925   -1.8151   -5.7774 H   0  0  0  0  0  0  0  0  0  0  0  0
   -0.0921   -1.7448   -7.0147 H   0  0  0  0  0  0  0  0  0  0  0  0
  1  3  1  0  0  0  0
  1  7  1  0  0  0  0
  1  2  2  0  0  0  0
 32 33  1  0  0  0  0
 33 41  1  0  0  0  0
 33 34  2  0  0  0  0
  8  9  1  0  0  0  0
  9 17  1  0  0  0  0
  9 10  2  0  0  0  0
 18 19  1  0  0  0  0
 19 31  1  0  0  0  0
 19 20  2  0  0  0  0
 32 35  1  0  0  0  0
  8 11  1  0  0  0  0
 21 23  1  0  0  0  0
 41 42  1  0  0  0  0
 31 32  1  0  0  0  0
  7  8  1  0  0  0  0
 18 21  1  0  0  0  0
 17 18  1  0  0  0  0
 21 22  1  0  0  0  0
  3  4  1  0  0  0  0
  3  5  1  0  0  0  0
  3  6  1  0  0  0  0
 35 38  1  0  0  0  0
 35 39  1  0  0  0  0
 35 40  1  0  0  0  0
 11 14  1  0  0  0  0
 11 15  1  0  0  0  0
 11 16  1  0  0  0  0
 23 28  1  0  0  0  0
 23 29  1  0  0  0  0
 23 30  1  0  0  0  0
 42 44  1  0  0  0  0
 42 45  1  0  0  0  0
 42 46  1  0  0  0  0
 32 37  1  0  0  0  0
  8 13  1  0  0  0  0
 18 25  1  0  0  0  0
 21 26  1  0  0  0  0
 41 43  1  0  0  0  0
  7 12  1  0  0  0  0
 31 36  1  0  0  0  0
 17 24  1  0  0  0  0
 22 27  1  0  0  0  0
M  END
$$$$

  -OEChem-05262214473D

 46 45  0     1  0  0  0  0  0999 V2000
   -4.6700    2.7214    1.5150 C   0  0  0  0  0  0  0  0  0  0  0  0
   -5.4532    2.5715    0.5845 O   0  0  0  0  0  0  0  0  0  0  0  0
   -5.0996    3.4865    2.7226 C   0  0  0  0  0  0  0  0  0  0  0  0
   -4.8796    4.5629    2.6387 H   0  0  0  0  0  0  0  0  0  0  0  0
   -6.1861    3.4241    2.8954 H   0  0  0  0  0  0  0  0  0  0  0  0
   -4.6369    3.1693    3.6708 H   0  0  0  0  0  0  0  0  0  0  0  0
   -3.3731    2.2391    1.5790 N   0  0  0  0  0  0  0  0  0  0  0  0
   -2.7599    1.4751    0.5247 C   0  0  2  0  0  0  0  0  0  0  0  0
   -1.5143    0.8067    1.0915 C   0  0  0  0  0  0  0  0  0  0  0  0
   -0.9247    1.2213    2.0872 O   0  0  0  0  0  0  0  0  0  0  0  0
   -2.4106    2.3553   -0.6653 C   0  0  0  0  0  0  0  0  0  0  0  0
   -2.8254    2.4352    2.4150 H   0  0  0  0  0  0  0  0  0  0  0  0
   -3.4836    0.7082    0.2278 H   0  0  0  0  0  0  0  0  0  0  0  0
   -1.6866    3.1298   -0.3871 H   0  0  0  0  0  0  0  0  0  0  0  0
   -1.9704    1.7677   -1.4777 H   0  0  0  0  0  0  0  0  0  0  0  0
   -3.3030    2.8584   -1.0531 H   0  0  0  0  0  0  0  0  0  0  0  0
   -1.1107   -0.2839    0.3303 N   0  0  0  0  0  0  0  0  0  0  0  0
    0.0490   -1.0750    0.6539 C   0  0  2  0  0  0  0  0  0  0  0  0
    0.3900   -1.9158   -0.5730 C   0  0  0  0  0  0  0  0  0  0  0  0
   -0.0398   -3.0545   -0.7458 O   0  0  0  0  0  0  0  0  0  0  0  0
   -0.1565   -1.9502    1.8989 C   0  0  2  0  0  0  0  0  0  0  0  0
   -1.2269   -2.8717    1.6970 O   0  0  0  0  0  0  0  0  0  0  0  0
   -0.4809   -1.1238    3.1375 C   0  0  0  0  0  0  0  0  0  0  0  0
   -1.6733   -0.5660   -0.4691 H   0  0  0  0  0  0  0  0  0  0  0  0
    0.8692   -0.3674    0.8256 H   0  0  0  0  0  0  0  0  0  0  0  0
    0.7453   -2.5392    2.1025 H   0  0  0  0  0  0  0  0  0  0  0  0
   -1.2698   -3.4217    2.4940 H   0  0  0  0  0  0  0  0  0  0  0  0
   -1.3780   -0.5133    2.9875 H   0  0  0  0  0  0  0  0  0  0  0  0
    0.3522   -0.4679    3.4074 H   0  0  0  0  0  0  0  0  0  0  0  0
   -0.6933   -1.7825    3.9868 H   0  0  0  0  0  0  0  0  0  0  0  0
    1.2690   -1.2639   -1.4263 N   0  0  0  0  0  0  0  0  0  0  0  0
    1.7659   -1.8682   -2.6400 C   0  0  2  0  0  0  0  0  0  0  0  0
    0.6774   -1.7589   -3.6996 C   0  0  0  0  0  0  0  0  0  0  0  0
   -0.5127   -1.6171   -3.4265 O   0  0  0  0  0  0  0  0  0  0  0  0
    2.1608   -3.3193   -2.4142 C   0  0  0  0  0  0  0  0  0  0  0  0
    1.5748   -0.3250   -1.1878 H   0  0  0  0  0  0  0  0  0  0  0  0
    2.6385   -1.2832   -2.9503 H   0  0  0  0  0  0  0  0  0  0  0  0
    1.2993   -3.9212   -2.1026 H   0  0  0  0  0  0  0  0  0  0  0  0
    2.5640   -3.7677   -3.3282 H   0  0  0  0  0  0  0  0  0  0  0  0
    2.9223   -3.3986   -1.6308 H   0  0  0  0  0  0  0  0  0  0  0  0
    1.1862   -1.8815   -4.9850 N   0  0  0  0  0  0  0  0  0  0  0  0
    0.3517   -1.8246   -6.1625 C   0  0  0  0  0  0  0  0  0  0  0  0
    2.1885   -1.9775   -5.1187 H   0  0  0  0  0  0  0  0  0  0  0  0
    0.0432   -2.8424   -6.4434 H   0  0  0  0  0  0  0  0  0  0  0  0
   -0.5402   -1.2166   -5.9506 H   0  0  0  0  0  0  0  0  0  0  0  0
    0.9164   -1.3712   -6.9904 H   0  0  0  0  0  0  0  0  0  0  0  0
  1  3  1  0  0  0  0
  1  7  1  0  0  0  0
  1  2  2  0  0  0  0
 32 33  1  0  0  0  0
 33 41  1  0  0  0  0
 33 34  2  0  0  0  0
  8  9  1  0  0  0  0
  9 17  1  0  0  0  0
  9 10  2  0  0  0  0
 18 19  1  0  0  0  0
 19 31  1  0  0  0  0
 19 20  2  0  0  0  0
 32 35  1  0  0  0  0
  8 11  1  0  0  0  0
 21 23  1  0  0  0  0
 41 42  1  0  0  0  0
 31 32  1  0  0  0  0
  7  8  1  0  0  0  0
 18 21  1  0  0  0  0
 17 18  1  0  0  0  0
 21 22  1  0  0  0  0
  3  4  1  0  0  0  0
  3  5  1  0  0  0  0
  3  6  1  0  0  0  0
 35 38  1  0  0  0  0
 35 39  1  0  0  0  0
 35 40  1  0  0  0  0
 11 14  1  0  0  0  0
 11 15  1  0  0  0  0
 11 16  1  0  0  0  0
 23 28  1  0  0  0  0
 23 29  1  0  0  0  0
 23 30  1  0  0  0  0
 42 44  1  0  0  0  0
 42 45  1  0  0  0  0
 42 46  1  0  0  0  0
 32 37  1  0  0  0  0
  8 13  1  0  0  0  0
 18 25  1  0  0  0  0
 21 26  1  0  0  0  0
 41 43  1  0  0  0  0
  7 12  1  0  0  0  0
 31 36  1  0  0  0  0
 17 24  1  0  0  0  0
 22 27  1  0  0  0  0
M  END
$$$$

  -OEChem-05262214473D

 46 45  0     1  0  0  0  0  0999 V2000
   -4.6700    2.7214    1.5150 C   0  0  0  0  0  0  0  0  0  0  0  0
   -5.4532    2.5715    0.5845 O   0  0  0  0  0  0  0  0  0  0  0  0
   -5.0996    3.4865    2.7226 C   0  0  0  0  0  0  0  0  0  0  0  0
   -4.8796    4.5629    2.6387 H   0  0  0  0  0  0  0  0  0  0  0  0
   -6.1861    3.4241    2.8954 H   0  0  0  0  0  0  0  0  0  0  0  0
   -4.6369    3.1693    3.6708 H   0  0  0  0  0  0  0  0  0  0  0  0
   -3.3731    2.2391    1.5790 N   0  0  0  0  0  0  0  0  0  0  0  0
   -2.7599    1.4751    0.5247 C   0  0  2  0  0  0  0  0  0  0  0  0
   -1.5143    0.8067    1.0915 C   0  0  0  0  0  0  0  0  0  0  0  0
   -0.9247    1.2213    2.0872 O   0  0  0  0  0  0  0  0  0  0  0  0
   -2.4106    2.3553   -0.6653 C   0  0  0  0  0  0  0  0  0  0  0  0
   -2.8254    2.4352    2.4150 H   0  0  0  0  0  0  0  0  0  0  0  0
   -3.4836    0.7082    0.2278 H   0  0  0  0  0  0  0  0  0  0  0  0
   -1.6866    3.1298   -0.3871 H   0  0  0  0  0  0  0  0  0  0  0  0
   -1.9704    1.7677   -1.4777 H   0  0  0  0  0  0  0  0  0  0  0  0
   -3.3030    2.8584   -1.0531 H   0  0  0  0  0  0  0  0  0  0  0  0
   -1.1107   -0.2839    0.3303 N   0  0  0  0  0  0  0  0  0  0  0  0
    0.0490   -1.0750    0.6539 C   0  0  2  0  0  0  0  0  0  0  0  0
    0.3900   -1.9158   -0.5730 C   0  0  0  0  0  0  0  0  0  0  0  0
   -0.2324   -2.9289   -0.8854 O   0  0  0  0  0  0  0  0  0  0  0  0
   -0.1565   -1.9502    1.8989 C   0  0  2  0  0  0  0  0  0  0  0  0
   -1.2269   -2.8717    1.6970 O   0  0  0  0  0  0  0  0  0  0  0  0
   -0.4809   -1.1238    3.1375 C   0  0  0  0  0  0  0  0  0  0  0  0
   -1.6733   -0.5660   -0.4691 H   0  0  0  0  0  0  0  0  0  0  0  0
    0.8692   -0.3674    0.8256 H   0  0  0  0  0  0  0  0  0  0  0  0
    0.7453   -2.5392    2.1025 H   0  0  0  0  0  0  0  0  0  0  0  0
   -1.2698   -3.4217    2.4940 H   0  0  0  0  0  0  0  0  0  0  0  0
   -1.3780   -0.5133    2.9875 H   0  0  0  0  0  0  0  0  0  0  0  0
    0.3522   -0.4679    3.4074 H   0  0  0  0  0  0  0  0  0  0  0  0
   -0.6933   -1.7825    3.9868 H   0  0  0  0  0  0  0  0  0  0  0  0
    1.5004   -1.4295   -1.2485 N   0  0  0  0  0  0  0  0  0  0  0  0
    2.0385   -2.0731   -2.4239 C   0  0  2  0  0  0  0  0  0  0  0  0
    1.1651   -1.6900   -3.6113 C   0  0  0  0  0  0  0  0  0  0  0  0
    0.0018   -1.3106   -3.4936 O   0  0  0  0  0  0  0  0  0  0  0  0
    2.0911   -3.5833   -2.2527 C   0  0  0  0  0  0  0  0  0  0  0  0
    1.9523   -0.5880   -0.9026 H   0  0  0  0  0  0  0  0  0  0  0  0
    3.0483   -1.6740   -2.5687 H   0  0  0  0  0  0  0  0  0  0  0  0
    1.0885   -4.0013   -2.1064 H   0  0  0  0  0  0  0  0  0  0  0  0
    2.5258   -4.0675   -3.1334 H   0  0  0  0  0  0  0  0  0  0  0  0
    2.6953   -3.8558   -1.3806 H   0  0  0  0  0  0  0  0  0  0  0  0
    1.8236   -1.8627   -4.8207 N   0  0  0  0  0  0  0  0  0  0  0  0
    1.2029   -1.5797   -6.0937 C   0  0  0  0  0  0  0  0  0  0  0  0
    2.7938   -2.1635   -4.8229 H   0  0  0  0  0  0  0  0  0  0  0  0
    0.7386   -2.4958   -6.4876 H   0  0  0  0  0  0  0  0  0  0  0  0
    0.4324   -0.8058   -5.9618 H   0  0  0  0  0  0  0  0  0  0  0  0
    1.9649   -1.2215   -6.8015 H   0  0  0  0  0  0  0  0  0  0  0  0
  1  3  1  0  0  0  0
  1  7  1  0  0  0  0
  1  2  2  0  0  0  0
 32 33  1  0  0  0  0
 33 41  1  0  0  0  0
 33 34  2  0  0  0  0
  8  9  1  0  0  0  0
  9 17  1  0  0  0  0
  9 10  2  0  0  0  0
 18 19  1  0  0  0  0
 19 31  1  0  0  0  0
 19 20  2  0  0  0  0
 32 35  1  0  0  0  0
  8 11  1  0  0  0  0
 21 23  1  0  0  0  0
 41 42  1  0  0  0  0
 31 32  1  0  0  0  0
  7  8  1  0  0  0  0
 18 21  1  0  0  0  0
 17 18  1  0  0  0  0
 21 22  1  0  0  0  0
  3  4  1  0  0  0  0
  3  5  1  0  0  0  0
  3  6  1  0  0  0  0
 35 38  1  0  0  0  0
 35 39  1  0  0  0  0
 35 40  1  0  0  0  0
 11 14  1  0  0  0  0
 11 15  1  0  0  0  0
 11 16  1  0  0  0  0
 23 28  1  0  0  0  0
 23 29  1  0  0  0  0
 23 30  1  0  0  0  0
 42 44  1  0  0  0  0
 42 45  1  0  0  0  0
 42 46  1  0  0  0  0
 32 37  1  0  0  0  0
  8 13  1  0  0  0  0
 18 25  1  0  0  0  0
 21 26  1  0  0  0  0
 41 43  1  0  0  0  0
  7 12  1  0  0  0  0
 31 36  1  0  0  0  0
 17 24  1  0  0  0  0
 22 27  1  0  0  0  0
M  END
$$$$

  -OEChem-05262214473D

 46 45  0     1  0  0  0  0  0999 V2000
   -4.6700    2.7214    1.5150 C   0  0  0  0  0  0  0  0  0  0  0  0
   -5.4532    2.5715    0.5845 O   0  0  0  0  0  0  0  0  0  0  0  0
   -5.0996    3.4865    2.7226 C   0  0  0  0  0  0  0  0  0  0  0  0
   -4.8796    4.5629    2.6387 H   0  0  0  0  0  0  0  0  0  0  0  0
   -6.1861    3.4241    2.8954 H   0  0  0  0  0  0  0  0  0  0  0  0
   -4.6369    3.1693    3.6708 H   0  0  0  0  0  0  0  0  0  0  0  0
   -3.3731    2.2391    1.5790 N   0  0  0  0  0  0  0  0  0  0  0  0
   -2.7599    1.4751    0.5247 C   0  0  2  0  0  0  0  0  0  0  0  0
   -1.5143    0.8067    1.0915 C   0  0  0  0  0  0  0  0  0  0  0  0
   -0.9247    1.2213    2.0872 O   0  0  0  0  0  0  0  0  0  0  0  0
   -2.4106    2.3553   -0.6653 C   0  0  0  0  0  0  0  0  0  0  0  0
   -2.8254    2.4352    2.4150 H   0  0  0  0  0  0  0  0  0  0  0  0
   -3.4836    0.7082    0.2278 H   0  0  0  0  0  0  0  0  0  0  0  0
   -1.6866    3.1298   -0.3871 H   0  0  0  0  0  0  0  0  0  0  0  0
   -1.9704    1.7677   -1.4777 H   0  0  0  0  0  0  0  0  0  0  0  0
   -3.3030    2.8584   -1.0531 H   0  0  0  0  0  0  0  0  0  0  0  0
   -1.1107   -0.2839    0.3303 N   0  0  0  0  0  0  0  0  0  0  0  0
    0.0490   -1.0750    0.6539 C   0  0  2  0  0  0  0  0  0  0  0  0
    0.3900   -1.9158   -0.5730 C   0  0  0  0  0  0  0  0  0  0  0  0
   -0.3723   -2.7593   -1.0405 O   0  0  0  0  0  0  0  0  0  0  0  0
   -0.1565   -1.9502    1.8989 C   0  0  2  0  0  0  0  0  0  0  0  0
   -1.2269   -2.8717    1.6970 O   0  0  0  0  0  0  0  0  0  0  0  0
   -0.4809   -1.1238    3.1375 C   0  0  0  0  0  0  0  0  0  0  0  0
   -1.6733   -0.5660   -0.4691 H   0  0  0  0  0  0  0  0  0  0  0  0
    0.8692   -0.3674    0.8256 H   0  0  0  0  0  0  0  0  0  0  0  0
    0.7453   -2.5392    2.1025 H   0  0  0  0  0  0  0  0  0  0  0  0
   -1.2698   -3.4217    2.4940 H   0  0  0  0  0  0  0  0  0  0  0  0
   -1.3780   -0.5133    2.9875 H   0  0  0  0  0  0  0  0  0  0  0  0
    0.3522   -0.4679    3.4074 H   0  0  0  0  0  0  0  0  0  0  0  0
   -0.6933   -1.7825    3.9868 H   0  0  0  0  0  0  0  0  0  0  0  0
    1.6641   -1.6479   -1.0533 N   0  0  0  0  0  0  0  0  0  0  0  0
    2.2283   -2.3402   -2.1880 C   0  0  2  0  0  0  0  0  0  0  0  0
    1.6380   -1.7300   -3.4524 C   0  0  0  0  0  0  0  0  0  0  0  0
    0.5722   -1.1177   -3.4672 O   0  0  0  0  0  0  0  0  0  0  0  0
    1.9459   -3.8330   -2.1219 C   0  0  0  0  0  0  0  0  0  0  0  0
    2.2215   -0.9371   -0.5886 H   0  0  0  0  0  0  0  0  0  0  0  0
    3.3084   -2.1587   -2.1642 H   0  0  0  0  0  0  0  0  0  0  0  0
    0.8687   -4.0345   -2.1447 H   0  0  0  0  0  0  0  0  0  0  0  0
    2.3987   -4.3604   -2.9679 H   0  0  0  0  0  0  0  0  0  0  0  0
    2.3452   -4.2647   -1.1977 H   0  0  0  0  0  0  0  0  0  0  0  0
    2.4198   -1.9868   -4.5700 N   0  0  0  0  0  0  0  0  0  0  0  0
    2.0662   -1.5243   -5.8918 C   0  0  0  0  0  0  0  0  0  0  0  0
    3.2975   -2.4863   -4.4617 H   0  0  0  0  0  0  0  0  0  0  0  0
    1.4887   -2.3033   -6.4111 H   0  0  0  0  0  0  0  0  0  0  0  0
    1.4588   -0.6108   -5.8102 H   0  0  0  0  0  0  0  0  0  0  0  0
    2.9819   -1.3061   -6.4609 H   0  0  0  0  0  0  0  0  0  0  0  0
  1  3  1  0  0  0  0
  1  7  1  0  0  0  0
  1  2  2  0  0  0  0
 32 33  1  0  0  0  0
 33 41  1  0  0  0  0
 33 34  2  0  0  0  0
  8  9  1  0  0  0  0
  9 17  1  0  0  0  0
  9 10  2  0  0  0  0
 18 19  1  0  0  0  0
 19 31  1  0  0  0  0
 19 20  2  0  0  0  0
 32 35  1  0  0  0  0
  8 11  1  0  0  0  0
 21 23  1  0  0  0  0
 41 42  1  0  0  0  0
 31 32  1  0  0  0  0
  7  8  1  0  0  0  0
 18 21  1  0  0  0  0
 17 18  1  0  0  0  0
 21 22  1  0  0  0  0
  3  4  1  0  0  0  0
  3  5  1  0  0  0  0
  3  6  1  0  0  0  0
 35 38  1  0  0  0  0
 35 39  1  0  0  0  0
 35 40  1  0  0  0  0
 11 14  1  0  0  0  0
 11 15  1  0  0  0  0
 11 16  1  0  0  0  0
 23 28  1  0  0  0  0
 23 29  1  0  0  0  0
 23 30  1  0  0  0  0
 42 44  1  0  0  0  0
 42 45  1  0  0  0  0
 42 46  1  0  0  0  0
 32 37  1  0  0  0  0
  8 13  1  0  0  0  0
 18 25  1  0  0  0  0
 21 26  1  0  0  0  0
 41 43  1  0  0  0  0
  7 12  1  0  0  0  0
 31 36  1  0  0  0  0
 17 24  1  0  0  0  0
 22 27  1  0  0  0  0
M  END
$$$$

  -OEChem-05262214473D

 46 45  0     1  0  0  0  0  0999 V2000
   -4.6700    2.7214    1.5150 C   0  0  0  0  0  0  0  0  0  0  0  0
   -5.4532    2.5715    0.5845 O   0  0  0  0  0  0  0  0  0  0  0  0
   -5.0996    3.4865    2.7226 C   0  0  0  0  0  0  0  0  0  0  0  0
   -4.8796    4.5629    2.6387 H   0  0  0  0  0  0  0  0  0  0  0  0
   -6.1861    3.4241    2.8954 H   0  0  0  0  0  0  0  0  0  0  0  0
   -4.6369    3.1693    3.6708 H   0  0  0  0  0  0  0  0  0  0  0  0
   -3.3731    2.2391    1.5790 N   0  0  0  0  0  0  0  0  0  0  0  0
   -2.7599    1.4751    0.5247 C   0  0  2  0  0  0  0  0  0  0  0  0
   -1.5143    0.8067    1.0915 C   0  0  0  0  0  0  0  0  0  0  0  0
   -0.9247    1.2213    2.0872 O   0  0  0  0  0  0  0  0  0  0  0  0
   -2.4106    2.3553   -0.6653 C   0  0  0  0  0  0  0  0  0  0  0  0
   -2.8254    2.4352    2.4150 H   0  0  0  0  0  0  0  0  0  0  0  0
   -3.4836    0.7082    0.2278 H   0  0  0  0  0  0  0  0  0  0  0  0
   -1.6866    3.1298   -0.3871 H   0  0  0  0  0  0  0  0  0  0  0  0
   -1.9704    1.7677   -1.4777 H   0  0  0  0  0  0  0  0  0  0  0  0
   -3.3030    2.8584   -1.0531 H   0  0  0  0  0  0  0  0  0  0  0  0
   -1.1107   -0.2839    0.3303 N   0  0  0  0  0  0  0  0  0  0  0  0
    0.0490   -1.0750    0.6539 C   0  0  2  0  0  0  0  0  0  0  0  0
    0.3900   -1.9158   -0.5730 C   0  0  0  0  0  0  0  0  0  0  0  0
   -0.4501   -2.5575   -1.2004 O   0  0  0  0  0  0  0  0  0  0  0  0
   -0.1565   -1.9502    1.8989 C   0  0  2  0  0  0  0  0  0  0  0  0
   -1.2269   -2.8717    1.6970 O   0  0  0  0  0  0  0  0  0  0  0  0
   -0.4809   -1.1238    3.1375 C   0  0  0  0  0  0  0  0  0  0  0  0
   -1.6733   -0.5660   -0.4691 H   0  0  0  0  0  0  0  0  0  0  0  0
    0.8692   -0.3674    0.8256 H   0  0  0  0  0  0  0  0  0  0  0  0
    0.7453   -2.5392    2.1025 H   0  0  0  0  0  0  0  0  0  0  0  0
   -1.2698   -3.4217    2.4940 H   0  0  0  0  0  0  0  0  0  0  0  0
   -1.3780   -0.5133    2.9875 H   0  0  0  0  0  0  0  0  0  0  0  0
    0.3522   -0.4679    3.4074 H   0  0  0  0  0  0  0  0  0  0  0  0
   -0.6933   -1.7825    3.9868 H   0  0  0  0  0  0  0  0  0  0  0  0
    1.7489   -1.9042   -0.8541 N   0  0  0  0  0  0  0  0  0  0  0  0
    2.3225   -2.6514   -1.9486 C   0  0  2  0  0  0  0  0  0  0  0  0
    2.0637   -1.8763   -3.2338 C   0  0  0  0  0  0  0  0  0  0  0  0
    1.1595   -1.0516   -3.3493 O   0  0  0  0  0  0  0  0  0  0  0  0
    1.7350   -4.0516   -2.0307 C   0  0  0  0  0  0  0  0  0  0  0  0
    2.3641   -1.3485   -0.2671 H   0  0  0  0  0  0  0  0  0  0  0  0
    3.4011   -2.7045   -1.7644 H   0  0  0  0  0  0  0  0  0  0  0  0
    0.6549   -4.0187   -2.2149 H   0  0  0  0  0  0  0  0  0  0  0  0
    2.1914   -4.6265   -2.8432 H   0  0  0  0  0  0  0  0  0  0  0  0
    1.8959   -4.5973   -1.0947 H   0  0  0  0  0  0  0  0  0  0  0  0
    2.9341   -2.2451   -4.2500 N   0  0  0  0  0  0  0  0  0  0  0  0
    2.8828   -1.6621   -5.5704 C   0  0  0  0  0  0  0  0  0  0  0  0
    3.6655   -2.9238   -4.0596 H   0  0  0  0  0  0  0  0  0  0  0  0
    2.2424   -2.2778   -6.2191 H   0  0  0  0  0  0  0  0  0  0  0  0
    2.4692   -0.6448   -5.5060 H   0  0  0  0  0  0  0  0  0  0  0  0
    3.8980   -1.6191   -5.9917 H   0  0  0  0  0  0  0  0  0  0  0  0
  1  3  1  0  0  0  0
  1  7  1  0  0  0  0
  1  2  2  0  0  0  0
 32 33  1  0  0  0  0
 33 41  1  0  0  0  0
 33 34  2  0  0  0  0
  8  9  1  0  0  0  0
  9 17  1  0  0  0  0
  9 10  2  0  0  0  0
 18 19  1  0  0  0  0
 19 31  1  0  0  0  0
 19 20  2  0  0  0  0
 32 35  1  0  0  0  0
  8 11  1  0  0  0  0
 21 23  1  0  0  0  0
 41 42  1  0  0  0  0
 31 32  1  0  0  0  0
  7  8  1  0  0  0  0
 18 21  1  0  0  0  0
 17 18  1  0  0  0  0
 21 22  1  0  0  0  0
  3  4  1  0  0  0  0
  3  5  1  0  0  0  0
  3  6  1  0  0  0  0
 35 38  1  0  0  0  0
 35 39  1  0  0  0  0
 35 40  1  0  0  0  0
 11 14  1  0  0  0  0
 11 15  1  0  0  0  0
 11 16  1  0  0  0  0
 23 28  1  0  0  0  0
 23 29  1  0  0  0  0
 23 30  1  0  0  0  0
 42 44  1  0  0  0  0
 42 45  1  0  0  0  0
 42 46  1  0  0  0  0
 32 37  1  0  0  0  0
  8 13  1  0  0  0  0
 18 25  1  0  0  0  0
 21 26  1  0  0  0  0
 41 43  1  0  0  0  0
  7 12  1  0  0  0  0
 31 36  1  0  0  0  0
 17 24  1  0  0  0  0
 22 27  1  0  0  0  0
M  END
$$$$

  -OEChem-05262214473D

 46 45  0     1  0  0  0  0  0999 V2000
   -4.6700    2.7214    1.5150 C   0  0  0  0  0  0  0  0  0  0  0  0
   -5.4532    2.5715    0.5845 O   0  0  0  0  0  0  0  0  0  0  0  0
   -5.0996    3.4865    2.7226 C   0  0  0  0  0  0  0  0  0  0  0  0
   -4.8796    4.5629    2.6387 H   0  0  0  0  0  0  0  0  0  0  0  0
   -6.1861    3.4241    2.8954 H   0  0  0  0  0  0  0  0  0  0  0  0
   -4.6369    3.1693    3.6708 H   0  0  0  0  0  0  0  0  0  0  0  0
   -3.3731    2.2391    1.5790 N   0  0  0  0  0  0  0  0  0  0  0  0
   -2.7599    1.4751    0.5247 C   0  0  2  0  0  0  0  0  0  0  0  0
   -1.5143    0.8067    1.0915 C   0  0  0  0  0  0  0  0  0  0  0  0
   -0.9247    1.2213    2.0872 O   0  0  0  0  0  0  0  0  0  0  0  0
   -2.4106    2.3553   -0.6653 C   0  0  0  0  0  0  0  0  0  0  0  0
   -2.8254    2.4352    2.4150 H   0  0  0  0  0  0  0  0  0  0  0  0
   -3.4836    0.7082    0.2278 H   0  0  0  0  0  0  0  0  0  0  0  0
   -1.6866    3.1298   -0.3871 H   0  0  0  0  0  0  0  0  0  0  0  0
   -1.9704    1.7677   -1.4777 H   0  0  0  0  0  0  0  0  0  0  0  0
   -3.3030    2.8584   -1.0531 H   0  0  0  0  0  0  0  0  0  0  0  0
   -1.1107   -0.2839    0.3303 N   0  0  0  0  0  0  0  0  0  0  0  0
    0.0490   -1.0750    0.6539 C   0  0  2  0  0  0  0  0  0  0  0  0
    0.3900   -1.9158   -0.5730 C   0  0  0  0  0  0  0  0  0  0  0  0
   -0.4605   -2.3371   -1.3543 O   0  0  0  0  0  0  0  0  0  0  0  0
   -0.1565   -1.9502    1.8989 C   0  0  2  0  0  0  0  0  0  0  0  0
   -1.2269   -2.8717    1.6970 O   0  0  0  0  0  0  0  0  0  0  0  0
   -0.4809   -1.1238    3.1375 C   0  0  0  0  0  0  0  0  0  0  0  0
   -1.6733   -0.5660   -0.4691 H   0  0  0  0  0  0  0  0  0  0  0  0
    0.8692   -0.3674    0.8256 H   0  0  0  0  0  0  0  0  0  0  0  0
    0.7453   -2.5392    2.1025 H   0  0  0  0  0  0  0  0  0  0  0  0
   -1.2698   -3.4217    2.4940 H   0  0  0  0  0  0  0  0  0  0  0  0
   -1.3780   -0.5133    2.9875 H   0  0  0  0  0  0  0  0  0  0  0  0
    0.3522   -0.4679    3.4074 H   0  0  0  0  0  0  0  0  0  0  0  0
   -0.6933   -1.7825    3.9868 H   0  0  0  0  0  0  0  0  0  0  0  0
    1.7491   -2.1809   -0.6644 N   0  0  0  0  0  0  0  0  0  0  0  0
    2.3146   -2.9854   -1.7219 C   0  0  2  0  0  0  0  0  0  0  0  0
    2.4133   -2.1188   -2.9705 C   0  0  0  0  0  0  0  0  0  0  0  0
    1.7237   -1.1168   -3.1478 O   0  0  0  0  0  0  0  0  0  0  0  0
    1.4727   -4.2242   -1.9853 C   0  0  0  0  0  0  0  0  0  0  0  0
    2.3703   -1.7941    0.0401 H   0  0  0  0  0  0  0  0  0  0  0  0
    3.3200   -3.2741   -1.3966 H   0  0  0  0  0  0  0  0  0  0  0  0
    0.4618   -3.9548   -2.3124 H   0  0  0  0  0  0  0  0  0  0  0  0
    1.9181   -4.8475   -2.7677 H   0  0  0  0  0  0  0  0  0  0  0  0
    1.3780   -4.8311   -1.0784 H   0  0  0  0  0  0  0  0  0  0  0  0
    3.3314   -2.6202   -3.8825 N   0  0  0  0  0  0  0  0  0  0  0  0
    3.5971   -1.9837   -5.1514 C   0  0  0  0  0  0  0  0  0  0  0  0
    3.8725   -3.4462   -3.6441 H   0  0  0  0  0  0  0  0  0  0  0  0
    2.9484   -2.4211   -5.9246 H   0  0  0  0  0  0  0  0  0  0  0  0
    3.3948   -0.9055   -5.0701 H   0  0  0  0  0  0  0  0  0  0  0  0
    4.6509   -2.1393   -5.4260 H   0  0  0  0  0  0  0  0  0  0  0  0
  1  3  1  0  0  0  0
  1  7  1  0  0  0  0
  1  2  2  0  0  0  0
 32 33  1  0  0  0  0
 33 41  1  0  0  0  0
 33 34  2  0  0  0  0
  8  9  1  0  0  0  0
  9 17  1  0  0  0  0
  9 10  2  0  0  0  0
 18 19  1  0  0  0  0
 19 31  1  0  0  0  0
 19 20  2  0  0  0  0
 32 35  1  0  0  0  0
  8 11  1  0  0  0  0
 21 23  1  0  0  0  0
 41 42  1  0  0  0  0
 31 32  1  0  0  0  0
  7  8  1  0  0  0  0
 18 21  1  0  0  0  0
 17 18  1  0  0  0  0
 21 22  1  0  0  0  0
  3  4  1  0  0  0  0
  3  5  1  0  0  0  0
  3  6  1  0  0  0  0
 35 38  1  0  0  0  0
 35 39  1  0  0  0  0
 35 40  1  0  0  0  0
 11 14  1  0  0  0  0
 11 15  1  0  0  0  0
 11 16  1  0  0  0  0
 23 28  1  0  0  0  0
 23 29  1  0  0  0  0
 23 30  1  0  0  0  0
 42 44  1  0  0  0  0
 42 45  1  0  0  0  0
 42 46  1  0  0  0  0
 32 37  1  0  0  0  0
  8 13  1  0  0  0  0
 18 25  1  0  0  0  0
 21 26  1  0  0  0  0
 41 43  1  0  0  0  0
  7 12  1  0  0  0  0
 31 36  1  0  0  0  0
 17 24  1  0  0  0  0
 22 27  1  0  0  0  0
M  END
$$$$

  -OEChem-05262214473D

 46 45  0     1  0  0  0  0  0999 V2000
   -4.6700    2.7214    1.5150 C   0  0  0  0  0  0  0  0  0  0  0  0
   -5.4532    2.5715    0.5845 O   0  0  0  0  0  0  0  0  0  0  0  0
   -5.0996    3.4865    2.7226 C   0  0  0  0  0  0  0  0  0  0  0  0
   -4.8796    4.5629    2.6387 H   0  0  0  0  0  0  0  0  0  0  0  0
   -6.1861    3.4241    2.8954 H   0  0  0  0  0  0  0  0  0  0  0  0
   -4.6369    3.1693    3.6708 H   0  0  0  0  0  0  0  0  0  0  0  0
   -3.3731    2.2391    1.5790 N   0  0  0  0  0  0  0  0  0  0  0  0
   -2.7599    1.4751    0.5247 C   0  0  2  0  0  0  0  0  0  0  0  0
   -1.5143    0.8067    1.0915 C   0  0  0  0  0  0  0  0  0  0  0  0
   -0.9247    1.2213    2.0872 O   0  0  0  0  0  0  0  0  0  0  0  0
   -2.4106    2.3553   -0.6653 C   0  0  0  0  0  0  0  0  0  0  0  0
   -2.8254    2.4352    2.4150 H   0  0  0  0  0  0  0  0  0  0  0  0
   -3.4836    0.7082    0.2278 H   0  0  0  0  0  0  0  0  0  0  0  0
   -1.6866    3.1298   -0.3871 H   0  0  0  0  0  0  0  0  0  0  0  0
   -1.9704    1.7677   -1.4777 H   0  0  0  0  0  0  0  0  0  0  0  0
   -3.3030    2.8584   -1.0531 H   0  0  0  0  0  0  0  0  0  0  0  0
   -1.1107   -0.2839    0.3303 N   0  0  0  0  0  0  0  0  0  0  0  0
    0.0490   -1.0750    0.6539 C   0  0  2  0  0  0  0  0  0  0  0  0
    0.3900   -1.9158   -0.5730 C   0  0  0  0  0  0  0  0  0  0  0  0
   -0.4026   -2.1132   -1.4917 O   0  0  0  0  0  0  0  0  0  0  0  0
   -0.1565   -1.9502    1.8989 C   0  0  2  0  0  0  0  0  0  0  0  0
   -1.2269   -2.8717    1.6970 O   0  0  0  0  0  0  0  0  0  0  0  0
   -0.4809   -1.1238    3.1375 C   0  0  0  0  0  0  0  0  0  0  0  0
   -1.6733   -0.5660   -0.4691 H   0  0  0  0  0  0  0  0  0  0  0  0
    0.8692   -0.3674    0.8256 H   0  0  0  0  0  0  0  0  0  0  0  0
    0.7453   -2.5392    2.1025 H   0  0  0  0  0  0  0  0  0  0  0  0
   -1.2698   -3.4217    2.4940 H   0  0  0  0  0  0  0  0  0  0  0  0
   -1.3780   -0.5133    2.9875 H   0  0  0  0  0  0  0  0  0  0  0  0
    0.3522   -0.4679    3.4074 H   0  0  0  0  0  0  0  0  0  0  0  0
   -0.6933   -1.7825    3.9868 H   0  0  0  0  0  0  0  0  0  0  0  0
    1.6646   -2.4593   -0.4971 N   0  0  0  0  0  0  0  0  0  0  0  0
    2.2051   -3.3194   -1.5234 C   0  0  2  0  0  0  0  0  0  0  0  0
    2.6630   -2.4410   -2.6802 C   0  0  0  0  0  0  0  0  0  0  0  0
    2.2264   -1.3088   -2.8765 O   0  0  0  0  0  0  0  0  0  0  0  0
    1.1771   -4.3389   -1.9889 C   0  0  0  0  0  0  0  0  0  0  0  0
    2.2399   -2.2436    0.3118 H   0  0  0  0  0  0  0  0  0  0  0  0
    3.0707   -3.8287   -1.0858 H   0  0  0  0  0  0  0  0  0  0  0  0
    0.3024   -3.8473   -2.4303 H   0  0  0  0  0  0  0  0  0  0  0  0
    1.5972   -5.0085   -2.7466 H   0  0  0  0  0  0  0  0  0  0  0  0
    0.8268   -4.9500   -1.1501 H   0  0  0  0  0  0  0  0  0  0  0  0
    3.5848   -3.0865   -3.4925 N   0  0  0  0  0  0  0  0  0  0  0  0
    4.1604   -2.4672   -4.6635 C   0  0  0  0  0  0  0  0  0  0  0  0
    3.9045   -4.0179   -3.2434 H   0  0  0  0  0  0  0  0  0  0  0  0
    3.5585   -2.7235   -5.5478 H   0  0  0  0  0  0  0  0  0  0  0  0
    4.1724   -1.3751   -4.5321 H   0  0  0  0  0  0  0  0  0  0  0  0
    5.1892   -2.8311   -4.8023 H   0  0  0  0  0  0  0  0  0  0  0  0
  1  3  1  0  0  0  0
  1  7  1  0  0  0  0
  1  2  2  0  0  0  0
 32 33  1  0  0  0  0
 33 41  1  0  0  0  0
 33 34  2  0  0  0  0
  8  9  1  0  0  0  0
  9 17  1  0  0  0  0
  9 10  2  0  0  0  0
 18 19  1  0  0  0  0
 19 31  1  0  0  0  0
 19 20  2  0  0  0  0
 32 35  1  0  0  0  0
  8 11  1  0  0  0  0
 21 23  1  0  0  0  0
 41 42  1  0  0  0  0
 31 32  1  0  0  0  0
  7  8  1  0  0  0  0
 18 21  1  0  0  0  0
 17 18  1  0  0  0  0
 21 22  1  0  0  0  0
  3  4  1  0  0  0  0
  3  5  1  0  0  0  0
  3  6  1  0  0  0  0
 35 38  1  0  0  0  0
 35 39  1  0  0  0  0
 35 40  1  0  0  0  0
 11 14  1  0  0  0  0
 11 15  1  0  0  0  0
 11 16  1  0  0  0  0
 23 28  1  0  0  0  0
 23 29  1  0  0  0  0
 23 30  1  0  0  0  0
 42 44  1  0  0  0  0
 42 45  1  0  0  0  0
 42 46  1  0  0  0  0
 32 37  1  0  0  0  0
  8 13  1  0  0  0  0
 18 25  1  0  0  0  0
 21 26  1  0  0  0  0
 41 43  1  0  0  0  0
  7 12  1  0  0  0  0
 31 36  1  0  0  0  0
 17 24  1  0  0  0  0
 22 27  1  0  0  0  0
M  END
$$$$

  -OEChem-05262214473D

 46 45  0     1  0  0  0  0  0999 V2000
   -4.6700    2.7214    1.5150 C   0  0  0  0  0  0  0  0  0  0  0  0
   -5.4532    2.5715    0.5845 O   0  0  0  0  0  0  0  0  0  0  0  0
   -5.0996    3.4865    2.7226 C   0  0  0  0  0  0  0  0  0  0  0  0
   -4.8796    4.5629    2.6387 H   0  0  0  0  0  0  0  0  0  0  0  0
   -6.1861    3.4241    2.8954 H   0  0  0  0  0  0  0  0  0  0  0  0
   -4.6369    3.1693    3.6708 H   0  0  0  0  0  0  0  0  0  0  0  0
   -3.3731    2.2391    1.5790 N   0  0  0  0  0  0  0  0  0  0  0  0
   -2.7599    1.4751    0.5247 C   0  0  2  0  0  0  0  0  0  0  0  0
   -1.5143    0.8067    1.0915 C   0  0  0  0  0  0  0  0  0  0  0  0
   -0.9247    1.2213    2.0872 O   0  0  0  0  0  0  0  0  0  0  0  0
   -2.4106    2.3553   -0.6653 C   0  0  0  0  0  0  0  0  0  0  0  0
   -2.8254    2.4352    2.4150 H   0  0  0  0  0  0  0  0  0  0  0  0
   -3.4836    0.7082    0.2278 H   0  0  0  0  0  0  0  0  0  0  0  0
   -1.6866    3.1298   -0.3871 H   0  0  0  0  0  0  0  0  0  0  0  0
   -1.9704    1.7677   -1.4777 H   0  0  0  0  0  0  0  0  0  0  0  0
   -3.3030    2.8584   -1.0531 H   0  0  0  0  0  0  0  0  0  0  0  0
   -1.1107   -0.2839    0.3303 N   0  0  0  0  0  0  0  0  0  0  0  0
    0.0490   -1.0750    0.6539 C   0  0  2  0  0  0  0  0  0  0  0  0
    0.6143   -1.6203   -0.6544 C   0  0  0  0  0  0  0  0  0  0  0  0
    0.0907   -1.4157   -1.7477 O   0  0  0  0  0  0  0  0  0  0  0  0
   -0.2593   -2.2028    1.6495 C   0  0  2  0  0  0  0  0  0  0  0  0
   -1.2219   -3.1056    1.1073 O   0  0  0  0  0  0  0  0  0  0  0  0
   -0.8087   -1.6733    2.9686 C   0  0  0  0  0  0  0  0  0  0  0  0
   -1.6733   -0.5660   -0.4691 H   0  0  0  0  0  0  0  0  0  0  0  0
    0.7842   -0.3854    1.0862 H   0  0  0  0  0  0  0  0  0  0  0  0
    0.6472   -2.7823    1.8599 H   0  0  0  0  0  0  0  0  0  0  0  0
   -1.3324   -3.8138    1.7599 H   0  0  0  0  0  0  0  0  0  0  0  0
   -1.7192   -1.0841    2.8150 H   0  0  0  0  0  0  0  0  0  0  0  0
   -0.0702   -1.0545    3.4872 H   0  0  0  0  0  0  0  0  0  0  0  0
   -1.0858   -2.5060    3.6244 H   0  0  0  0  0  0  0  0  0  0  0  0
    1.7426   -2.4022   -0.4513 N   0  0  0  0  0  0  0  0  0  0  0  0
    2.4398   -3.0564   -1.5335 C   0  0  2  0  0  0  0  0  0  0  0  0
    3.3035   -2.0157   -2.2338 C   0  0  0  0  0  0  0  0  0  0  0  0
    3.0779   -0.8087   -2.1770 O   0  0  0  0  0  0  0  0  0  0  0  0
    1.4672   -3.7010   -2.5088 C   0  0  0  0  0  0  0  0  0  0  0  0
    2.0917   -2.5188    0.4955 H   0  0  0  0  0  0  0  0  0  0  0  0
    3.0819   -3.8197   -1.0805 H   0  0  0  0  0  0  0  0  0  0  0  0
    0.8154   -2.9517   -2.9728 H   0  0  0  0  0  0  0  0  0  0  0  0
    1.9979   -4.2209   -3.3132 H   0  0  0  0  0  0  0  0  0  0  0  0
    0.8267   -4.4277   -1.9975 H   0  0  0  0  0  0  0  0  0  0  0  0
    4.3304   -2.5962   -2.9650 N   0  0  0  0  0  0  0  0  0  0  0  0
    5.2790   -1.8199   -3.7289 C   0  0  0  0  0  0  0  0  0  0  0  0
    4.4539   -3.6041   -2.9398 H   0  0  0  0  0  0  0  0  0  0  0  0
    4.9206   -1.7170   -4.7637 H   0  0  0  0  0  0  0  0  0  0  0  0
    5.3850   -0.8227   -3.2768 H   0  0  0  0  0  0  0  0  0  0  0  0
    6.2543   -2.3286   -3.7276 H   0  0  0  0  0  0  0  0  0  0  0  0
  1  3  1  0  0  0  0
  1  7  1  0  0  0  0
  1  2  2  0  0  0  0
 32 33  1  0  0  0  0
 33 41  1  0  0  0  0
 33 34  2  0  0  0  0
  8  9  1  0  0  0  0
  9 17  1  0  0  0  0
  9 10  2  0  0  0  0
 18 19  1  0  0  0  0
 19 31  1  0  0  0  0
 19 20  2  0  0  0  0
 32 35  1  0  0  0  0
  8 11  1  0  0  0  0
 21 23  1  0  0  0  0
 41 42  1  0  0  0  0
 31 32  1  0  0  0  0
  7  8  1  0  0  0  0
 18 21  1  0  0  0  0
 17 18  1  0  0  0  0
 21 22  1  0  0  0  0
  3  4  1  0  0  0  0
  3  5  1  0  0  0  0
  3  6  1  0  0  0  0
 35 38  1  0  0  0  0
 35 39  1  0  0  0  0
 35 40  1  0  0  0  0
 11 14  1  0  0  0  0
 11 15  1  0  0  0  0
 11 16  1  0  0  0  0
 23 28  1  0  0  0  0
 23 29  1  0  0  0  0
 23 30  1  0  0  0  0
 42 44  1  0  0  0  0
 42 45  1  0  0  0  0
 42 46  1  0  0  0  0
 32 37  1  0  0  0  0
  8 13  1  0  0  0  0
 18 25  1  0  0  0  0
 21 26  1  0  0  0  0
 41 43  1  0  0  0  0
  7 12  1  0  0  0  0
 31 36  1  0  0  0  0
 17 24  1  0  0  0  0
 22 27  1  0  0  0  0
M  END
$$$$

  -OEChem-05262214473D

 46 45  0     1  0  0  0  0  0999 V2000
   -4.6700    2.7214    1.5150 C   0  0  0  0  0  0  0  0  0  0  0  0
   -5.4532    2.5715    0.5845 O   0  0  0  0  0  0  0  0  0  0  0  0
   -5.0996    3.4865    2.7226 C   0  0  0  0  0  0  0  0  0  0  0  0
   -4.8796    4.5629    2.6387 H   0  0  0  0  0  0  0  0  0  0  0  0
   -6.1861    3.4241    2.8954 H   0  0  0  0  0  0  0  0  0  0  0  0
   -4.6369    3.1693    3.6708 H   0  0  0  0  0  0  0  0  0  0  0  0
   -3.3731    2.2391    1.5790 N   0  0  0  0  0  0  0  0  0  0  0  0
   -2.7599    1.4751    0.5247 C   0  0  2  0  0  0  0  0  0  0  0  0
   -1.5143    0.8067    1.0915 C   0  0  0  0  0  0  0  0  0  0  0  0
   -0.9247    1.2213    2.0872 O   0  0  0  0  0  0  0  0  0  0  0  0
   -2.4106    2.3553   -0.6653 C   0  0  0  0  0  0  0  0  0  0  0  0
   -2.8254    2.4352    2.4150 H   0  0  0  0  0  0  0  0  0  0  0  0
   -3.4836    0.7082    0.2278 H   0  0  0  0  0  0  0  0  0  0  0  0
   -1.6866    3.1298   -0.3871 H   0  0  0  0  0  0  0  0  0  0  0  0
   -1.9704    1.7677   -1.4777 H   0  0  0  0  0  0  0  0  0  0  0  0
   -3.3030    2.8584   -1.0531 H   0  0  0  0  0  0  0  0  0  0  0  0
   -1.1107   -0.2839    0.3303 N   0  0  0  0  0  0  0  0  0  0  0  0
    0.0490   -1.0750    0.6539 C   0  0  2  0  0  0  0  0  0  0  0  0
    0.6143   -1.6203   -0.6544 C   0  0  0  0  0  0  0  0  0  0  0  0
    0.2636   -1.2098   -1.7588 O   0  0  0  0  0  0  0  0  0  0  0  0
   -0.2593   -2.2028    1.6495 C   0  0  2  0  0  0  0  0  0  0  0  0
   -1.2219   -3.1056    1.1073 O   0  0  0  0  0  0  0  0  0  0  0  0
   -0.8087   -1.6733    2.9686 C   0  0  0  0  0  0  0  0  0  0  0  0
   -1.6733   -0.5660   -0.4691 H   0  0  0  0  0  0  0  0  0  0  0  0
    0.7842   -0.3854    1.0862 H   0  0  0  0  0  0  0  0  0  0  0  0
    0.6472   -2.7823    1.8599 H   0  0  0  0  0  0  0  0  0  0  0  0
   -1.3324   -3.8138    1.7599 H   0  0  0  0  0  0  0  0  0  0  0  0
   -1.7192   -1.0841    2.8150 H   0  0  0  0  0  0  0  0  0  0  0  0
   -0.0702   -1.0545    3.4872 H   0  0  0  0  0  0  0  0  0  0  0  0
   -1.0858   -2.5060    3.6244 H   0  0  0  0  0  0  0  0  0  0  0  0
    1.5185   -2.6518   -0.4441 N   0  0  0  0  0  0  0  0  0  0  0  0
    2.1648   -3.3520   -1.5292 C   0  0  2  0  0  0  0  0  0  0  0  0
    3.3017   -2.4779   -2.0419 C   0  0  0  0  0  0  0  0  0  0  0  0
    3.3393   -1.2605   -1.8757 O   0  0  0  0  0  0  0  0  0  0  0  0
    1.1814   -3.6738   -2.6436 C   0  0  0  0  0  0  0  0  0  0  0  0
    1.7342   -2.9249    0.5102 H   0  0  0  0  0  0  0  0  0  0  0  0
    2.5752   -4.2766   -1.1089 H   0  0  0  0  0  0  0  0  0  0  0  0
    0.7596   -2.7596   -3.0770 H   0  0  0  0  0  0  0  0  0  0  0  0
    1.6666   -4.2297   -3.4527 H   0  0  0  0  0  0  0  0  0  0  0  0
    0.3489   -4.2776   -2.2665 H   0  0  0  0  0  0  0  0  0  0  0  0
    4.2477   -3.2112   -2.7444 N   0  0  0  0  0  0  0  0  0  0  0  0
    5.4161   -2.6074   -3.3414 C   0  0  0  0  0  0  0  0  0  0  0  0
    4.1459   -4.2192   -2.8165 H   0  0  0  0  0  0  0  0  0  0  0  0
    5.1975   -2.3381   -4.3852 H   0  0  0  0  0  0  0  0  0  0  0  0
    5.6891   -1.7025   -2.7787 H   0  0  0  0  0  0  0  0  0  0  0  0
    6.2521   -3.3219   -3.3146 H   0  0  0  0  0  0  0  0  0  0  0  0
  1  3  1  0  0  0  0
  1  7  1  0  0  0  0
  1  2  2  0  0  0  0
 32 33  1  0  0  0  0
 33 41  1  0  0  0  0
 33 34  2  0  0  0  0
  8  9  1  0  0  0  0
  9 17  1  0  0  0  0
  9 10  2  0  0  0  0
 18 19  1  0  0  0  0
 19 31  1  0  0  0  0
 19 20  2  0  0  0  0
 32 35  1  0  0  0  0
  8 11  1  0  0  0  0
 21 23  1  0  0  0  0
 41 42  1  0  0  0  0
 31 32  1  0  0  0  0
  7  8  1  0  0  0  0
 18 21  1  0  0  0  0
 17 18  1  0  0  0  0
 21 22  1  0  0  0  0
  3  4  1  0  0  0  0
  3  5  1  0  0  0  0
  3  6  1  0  0  0  0
 35 38  1  0  0  0  0
 35 39  1  0  0  0  0
 35 40  1  0  0  0  0
 11 14  1  0  0  0  0
 11 15  1  0  0  0  0
 11 16  1  0  0  0  0
 23 28  1  0  0  0  0
 23 29  1  0  0  0  0
 23 30  1  0  0  0  0
 42 44  1  0  0  0  0
 42 45  1  0  0  0  0
 42 46  1  0  0  0  0
 32 37  1  0  0  0  0
  8 13  1  0  0  0  0
 18 25  1  0  0  0  0
 21 26  1  0  0  0  0
 41 43  1  0  0  0  0
  7 12  1  0  0  0  0
 31 36  1  0  0  0  0
 17 24  1  0  0  0  0
 22 27  1  0  0  0  0
M  END
$$$$

  -OEChem-05262214473D

 46 45  0     1  0  0  0  0  0999 V2000
   -4.6700    2.7214    1.5150 C   0  0  0  0  0  0  0  0  0  0  0  0
   -5.4532    2.5715    0.5845 O   0  0  0  0  0  0  0  0  0  0  0  0
   -5.0996    3.4865    2.7226 C   0  0  0  0  0  0  0  0  0  0  0  0
   -4.8796    4.5629    2.6387 H   0  0  0  0  0  0  0  0  0  0  0  0
   -6.1861    3.4241    2.8954 H   0  0  0  0  0  0  0  0  0  0  0  0
   -4.6369    3.1693    3.6708 H   0  0  0  0  0  0  0  0  0  0  0  0
   -3.3731    2.2391    1.5790 N   0  0  0  0  0  0  0  0  0  0  0  0
   -2.7599    1.4751    0.5247 C   0  0  2  0  0  0  0  0  0  0  0  0
   -1.5143    0.8067    1.0915 C   0  0  0  0  0  0  0  0  0  0  0  0
   -0.9247    1.2213    2.0872 O   0  0  0  0  0  0  0  0  0  0  0  0
   -2.4106    2.3553   -0.6653 C   0  0  0  0  0  0  0  0  0  0  0  0
   -2.8254    2.4352    2.4150 H   0  0  0  0  0  0  0  0  0  0  0  0
   -3.4836    0.7082    0.2278 H   0  0  0  0  0  0  0  0  0  0  0  0
   -1.6866    3.1298   -0.3871 H   0  0  0  0  0  0  0  0  0  0  0  0
   -1.9704    1.7677   -1.4777 H   0  0  0  0  0  0  0  0  0  0  0  0
   -3.3030    2.8584   -1.0531 H   0  0  0  0  0  0  0  0  0  0  0  0
   -1.1107   -0.2839    0.3303 N   0  0  0  0  0  0  0  0  0  0  0  0
    0.0490   -1.0750    0.6539 C   0  0  2  0  0  0  0  0  0  0  0  0
    0.6143   -1.6203   -0.6544 C   0  0  0  0  0  0  0  0  0  0  0  0
    0.4772   -1.0483   -1.7338 O   0  0  0  0  0  0  0  0  0  0  0  0
   -0.2593   -2.2028    1.6495 C   0  0  2  0  0  0  0  0  0  0  0  0
   -1.2219   -3.1056    1.1073 O   0  0  0  0  0  0  0  0  0  0  0  0
   -0.8087   -1.6733    2.9686 C   0  0  0  0  0  0  0  0  0  0  0  0
   -1.6733   -0.5660   -0.4691 H   0  0  0  0  0  0  0  0  0  0  0  0
    0.7842   -0.3854    1.0862 H   0  0  0  0  0  0  0  0  0  0  0  0
    0.6472   -2.7823    1.8599 H   0  0  0  0  0  0  0  0  0  0  0  0
   -1.3324   -3.8138    1.7599 H   0  0  0  0  0  0  0  0  0  0  0  0
   -1.7192   -1.0841    2.8150 H   0  0  0  0  0  0  0  0  0  0  0  0
   -0.0702   -1.0545    3.4872 H   0  0  0  0  0  0  0  0  0  0  0  0
   -1.0858   -2.5060    3.6244 H   0  0  0  0  0  0  0  0  0  0  0  0
    1.2460   -2.8438   -0.4818 N   0  0  0  0  0  0  0  0  0  0  0  0
    1.8332   -3.5768   -1.5787 C   0  0  2  0  0  0  0  0  0  0  0  0
    3.1796   -2.9423   -1.9011 C   0  0  0  0  0  0  0  0  0  0  0  0
    3.4636   -1.7838   -1.6039 O   0  0  0  0  0  0  0  0  0  0  0  0
    0.9238   -3.5712   -2.7977 C   0  0  0  0  0  0  0  0  0  0  0  0
    1.2973   -3.2392    0.4525 H   0  0  0  0  0  0  0  0  0  0  0  0
    1.9871   -4.6028   -1.2271 H   0  0  0  0  0  0  0  0  0  0  0  0
    0.7580   -2.5516   -3.1644 H   0  0  0  0  0  0  0  0  0  0  0  0
    1.3576   -4.1513   -3.6189 H   0  0  0  0  0  0  0  0  0  0  0  0
   -0.0544   -4.0008   -2.5562 H   0  0  0  0  0  0  0  0  0  0  0  0
    4.0110   -3.8080   -2.5979 N   0  0  0  0  0  0  0  0  0  0  0  0
    5.3380   -3.4357   -3.0299 C   0  0  0  0  0  0  0  0  0  0  0  0
    3.7005   -4.7568   -2.7849 H   0  0  0  0  0  0  0  0  0  0  0  0
    5.2922   -3.0357   -4.0535 H   0  0  0  0  0  0  0  0  0  0  0  0
    5.7415   -2.6675   -2.3538 H   0  0  0  0  0  0  0  0  0  0  0  0
    5.9913   -4.3205   -3.0110 H   0  0  0  0  0  0  0  0  0  0  0  0
  1  3  1  0  0  0  0
  1  7  1  0  0  0  0
  1  2  2  0  0  0  0
 32 33  1  0  0  0  0
 33 41  1  0  0  0  0
 33 34  2  0  0  0  0
  8  9  1  0  0  0  0
  9 17  1  0  0  0  0
  9 10  2  0  0  0  0
 18 19  1  0  0  0  0
 19 31  1  0  0  0  0
 19 20  2  0  0  0  0
 32 35  1  0  0  0  0
  8 11  1  0  0  0  0
 21 23  1  0  0  0  0
 41 42  1  0  0  0  0
 31 32  1  0  0  0  0
  7  8  1  0  0  0  0
 18 21  1  0  0  0  0
 17 18  1  0  0  0  0
 21 22  1  0  0  0  0
  3  4  1  0  0  0  0
  3  5  1  0  0  0  0
  3  6  1  0  0  0  0
 35 38  1  0  0  0  0
 35 39  1  0  0  0  0
 35 40  1  0  0  0  0
 11 14  1  0  0  0  0
 11 15  1  0  0  0  0
 11 16  1  0  0  0  0
 23 28  1  0  0  0  0
 23 29  1  0  0  0  0
 23 30  1  0  0  0  0
 42 44  1  0  0  0  0
 42 45  1  0  0  0  0
 42 46  1  0  0  0  0
 32 37  1  0  0  0  0
  8 13  1  0  0  0  0
 18 25  1  0  0  0  0
 21 26  1  0  0  0  0
 41 43  1  0  0  0  0
  7 12  1  0  0  0  0
 31 36  1  0  0  0  0
 17 24  1  0  0  0  0
 22 27  1  0  0  0  0
M  END
$$$$

  -OEChem-05262214473D

 46 45  0     1  0  0  0  0  0999 V2000
   -4.6700    2.7214    1.5150 C   0  0  0  0  0  0  0  0  0  0  0  0
   -5.4532    2.5715    0.5845 O   0  0  0  0  0  0  0  0  0  0  0  0
   -5.0996    3.4865    2.7226 C   0  0  0  0  0  0  0  0  0  0  0  0
   -4.8796    4.5629    2.6387 H   0  0  0  0  0  0  0  0  0  0  0  0
   -6.1861    3.4241    2.8954 H   0  0  0  0  0  0  0  0  0  0  0  0
   -4.6369    3.1693    3.6708 H   0  0  0  0  0  0  0  0  0  0  0  0
   -3.3731    2.2391    1.5790 N   0  0  0  0  0  0  0  0  0  0  0  0
   -2.7599    1.4751    0.5247 C   0  0  2  0  0  0  0  0  0  0  0  0
   -1.5143    0.8067    1.0915 C   0  0  0  0  0  0  0  0  0  0  0  0
   -0.9247    1.2213    2.0872 O   0  0  0  0  0  0  0  0  0  0  0  0
   -2.4106    2.3553   -0.6653 C   0  0  0  0  0  0  0  0  0  0  0  0
   -2.8254    2.4352    2.4150 H   0  0  0  0  0  0  0  0  0  0  0  0
   -3.4836    0.7082    0.2278 H   0  0  0  0  0  0  0  0  0  0  0  0
   -1.6866    3.1298   -0.3871 H   0  0  0  0  0  0  0  0  0  0  0  0
   -1.9704    1.7677   -1.4777 H   0  0  0  0  0  0  0  0  0  0  0  0
   -3.3030    2.8584   -1.0531 H   0  0  0  0  0  0  0  0  0  0  0  0
   -1.1107   -0.2839    0.3303 N   0  0  0  0  0  0  0  0  0  0  0  0
    0.0490   -1.0750    0.6539 C   0  0  2  0  0  0  0  0  0  0  0  0
    0.6143   -1.6203   -0.6544 C   0  0  0  0  0  0  0  0  0  0  0  0
    0.7171   -0.9420   -1.6745 O   0  0  0  0  0  0  0  0  0  0  0  0
   -0.2593   -2.2028    1.6495 C   0  0  2  0  0  0  0  0  0  0  0  0
   -1.2219   -3.1056    1.1073 O   0  0  0  0  0  0  0  0  0  0  0  0
   -0.8087   -1.6733    2.9686 C   0  0  0  0  0  0  0  0  0  0  0  0
   -1.6733   -0.5660   -0.4691 H   0  0  0  0  0  0  0  0  0  0  0  0
    0.7842   -0.3854    1.0862 H   0  0  0  0  0  0  0  0  0  0  0  0
    0.6472   -2.7823    1.8599 H   0  0  0  0  0  0  0  0  0  0  0  0
   -1.3324   -3.8138    1.7599 H   0  0  0  0  0  0  0  0  0  0  0  0
   -1.7192   -1.0841    2.8150 H   0  0  0  0  0  0  0  0  0  0  0  0
   -0.0702   -1.0545    3.4872 H   0  0  0  0  0  0  0  0  0  0  0  0
   -1.0858   -2.5060    3.6244 H   0  0  0  0  0  0  0  0  0  0  0  0
    0.9436   -2.9652   -0.5619 N   0  0  0  0  0  0  0  0  0  0  0  0
    1.4675   -3.7157   -1.6789 C   0  0  2  0  0  0  0  0  0  0  0  0
    2.9456   -3.3773   -1.8209 C   0  0  0  0  0  0  0  0  0  0  0  0
    3.4424   -2.3429   -1.3800 O   0  0  0  0  0  0  0  0  0  0  0  0
    0.7121   -3.4002   -2.9605 C   0  0  0  0  0  0  0  0  0  0  0  0
    0.8110   -3.4403    0.3262 H   0  0  0  0  0  0  0  0  0  0  0  0
    1.3576   -4.7761   -1.4269 H   0  0  0  0  0  0  0  0  0  0  0  0
    0.8106   -2.3420   -3.2290 H   0  0  0  0  0  0  0  0  0  0  0  0
    1.0918   -3.9911   -3.8005 H   0  0  0  0  0  0  0  0  0  0  0  0
   -0.3557   -3.6161   -2.8467 H   0  0  0  0  0  0  0  0  0  0  0  0
    3.6364   -4.3459   -2.5356 N   0  0  0  0  0  0  0  0  0  0  0  0
    5.0499   -4.2483   -2.8157 C   0  0  0  0  0  0  0  0  0  0  0  0
    3.1480   -5.1803   -2.8471 H   0  0  0  0  0  0  0  0  0  0  0  0
    5.1982   -3.7623   -3.7913 H   0  0  0  0  0  0  0  0  0  0  0  0
    5.5387   -3.6521   -2.0311 H   0  0  0  0  0  0  0  0  0  0  0  0
    5.4897   -5.2563   -2.8377 H   0  0  0  0  0  0  0  0  0  0  0  0
  1  3  1  0  0  0  0
  1  7  1  0  0  0  0
  1  2  2  0  0  0  0
 32 33  1  0  0  0  0
 33 41  1  0  0  0  0
 33 34  2  0  0  0  0
  8  9  1  0  0  0  0
  9 17  1  0  0  0  0
  9 10  2  0  0  0  0
 18 19  1  0  0  0  0
 19 31  1  0  0  0  0
 19 20  2  0  0  0  0
 32 35  1  0  0  0  0
  8 11  1  0  0  0  0
 21 23  1  0  0  0  0
 41 42  1  0  0  0  0
 31 32  1  0  0  0  0
  7  8  1  0  0  0  0
 18 21  1  0  0  0  0
 17 18  1  0  0  0  0
 21 22  1  0  0  0  0
  3  4  1  0  0  0  0
  3  5  1  0  0  0  0
  3  6  1  0  0  0  0
 35 38  1  0  0  0  0
 35 39  1  0  0  0  0
 35 40  1  0  0  0  0
 11 14  1  0  0  0  0
 11 15  1  0  0  0  0
 11 16  1  0  0  0  0
 23 28  1  0  0  0  0
 23 29  1  0  0  0  0
 23 30  1  0  0  0  0
 42 44  1  0  0  0  0
 42 45  1  0  0  0  0
 42 46  1  0  0  0  0
 32 37  1  0  0  0  0
  8 13  1  0  0  0  0
 18 25  1  0  0  0  0
 21 26  1  0  0  0  0
 41 43  1  0  0  0  0
  7 12  1  0  0  0  0
 31 36  1  0  0  0  0
 17 24  1  0  0  0  0
 22 27  1  0  0  0  0
M  END
$$$$

  -OEChem-05262214473D

 46 45  0     1  0  0  0  0  0999 V2000
   -4.6700    2.7214    1.5150 C   0  0  0  0  0  0  0  0  0  0  0  0
   -5.4532    2.5715    0.5845 O   0  0  0  0  0  0  0  0  0  0  0  0
   -5.0996    3.4865    2.7226 C   0  0  0  0  0  0  0  0  0  0  0  0
   -4.8796    4.5629    2.6387 H   0  0  0  0  0  0  0  0  0  0  0  0
   -6.1861    3.4241    2.8954 H   0  0  0  0  0  0  0  0  0  0  0  0
   -4.6369    3.1693    3.6708 H   0  0  0  0  0  0  0  0  0  0  0  0
   -3.3731    2.2391    1.5790 N   0  0  0  0  0  0  0  0  0  0  0  0
   -2.7599    1.4751    0.5247 C   0  0  2  0  0  0  0  0  0  0  0  0
   -1.5143    0.8067    1.0915 C   0  0  0  0  0  0  0  0  0  0  0  0
   -0.9247    1.2213    2.0872 O   0  0  0  0  0  0  0  0  0  0  0  0
   -2.4106    2.3553   -0.6653 C   0  0  0  0  0  0  0  0  0  0  0  0
   -2.8254    2.4352    2.4150 H   0  0  0  0  0  0  0  0  0  0  0  0
   -3.4836    0.7082    0.2278 H   0  0  0  0  0  0  0  0  0  0  0  0
   -1.6866    3.1298   -0.3871 H   0  0  0  0  0  0  0  0  0  0  0  0
   -1.9704    1.7677   -1.4777 H   0  0  0  0  0  0  0  0  0  0  0  0
   -3.3030    2.8584   -1.0531 H   0  0  0  0  0  0  0  0  0  0  0  0
   -1.1107   -0.2839    0.3303 N   0  0  0  0  0  0  0  0  0  0  0  0
    0.0490   -1.0750    0.6539 C   0  0  2  0  0  0  0  0  0  0  0  0
    0.6143   -1.6203   -0.6544 C   0  0  0  0  0  0  0  0  0  0  0  0
    0.9670   -0.8983   -1.5847 O   0  0  0  0  0  0  0  0  0  0  0  0
   -0.2593   -2.2028    1.6495 C   0  0  2  0  0  0  0  0  0  0  0  0
   -1.2219   -3.1056    1.1073 O   0  0  0  0  0  0  0  0  0  0  0  0
   -0.8087   -1.6733    2.9686 C   0  0  0  0  0  0  0  0  0  0  0  0
   -1.6733   -0.5660   -0.4691 H   0  0  0  0  0  0  0  0  0  0  0  0
    0.7842   -0.3854    1.0862 H   0  0  0  0  0  0  0  0  0  0  0  0
    0.6472   -2.7823    1.8599 H   0  0  0  0  0  0  0  0  0  0  0  0
   -1.3324   -3.8138    1.7599 H   0  0  0  0  0  0  0  0  0  0  0  0
   -1.7192   -1.0841    2.8150 H   0  0  0  0  0  0  0  0  0  0  0  0
   -0.0702   -1.0545    3.4872 H   0  0  0  0  0  0  0  0  0  0  0  0
   -1.0858   -2.5060    3.6244 H   0  0  0  0  0  0  0  0  0  0  0  0
    0.6320   -3.0077   -0.6788 N   0  0  0  0  0  0  0  0  0  0  0  0
    1.0928   -3.7590   -1.8227 C   0  0  2  0  0  0  0  0  0  0  0  0
    2.6157   -3.7533   -1.8068 C   0  0  0  0  0  0  0  0  0  0  0  0
    3.2771   -2.8998   -1.2193 O   0  0  0  0  0  0  0  0  0  0  0  0
    0.5605   -3.1724   -3.1209 C   0  0  0  0  0  0  0  0  0  0  0  0
    0.3082   -3.5145    0.1399 H   0  0  0  0  0  0  0  0  0  0  0  0
    0.7295   -4.7845   -1.6947 H   0  0  0  0  0  0  0  0  0  0  0  0
    0.9140   -2.1451   -3.2665 H   0  0  0  0  0  0  0  0  0  0  0  0
    0.8874   -3.7599   -3.9852 H   0  0  0  0  0  0  0  0  0  0  0  0
   -0.5346   -3.1499   -3.1183 H   0  0  0  0  0  0  0  0  0  0  0  0
    3.1494   -4.7884   -2.5615 N   0  0  0  0  0  0  0  0  0  0  0  0
    4.5715   -4.9898   -2.7133 C   0  0  0  0  0  0  0  0  0  0  0  0
    2.5262   -5.4608   -2.9988 H   0  0  0  0  0  0  0  0  0  0  0  0
    4.9219   -4.4685   -3.6163 H   0  0  0  0  0  0  0  0  0  0  0  0
    5.0945   -4.5890   -1.8325 H   0  0  0  0  0  0  0  0  0  0  0  0
    4.7815   -6.0656   -2.8064 H   0  0  0  0  0  0  0  0  0  0  0  0
  1  3  1  0  0  0  0
  1  7  1  0  0  0  0
  1  2  2  0  0  0  0
 32 33  1  0  0  0  0
 33 41  1  0  0  0  0
 33 34  2  0  0  0  0
  8  9  1  0  0  0  0
  9 17  1  0  0  0  0
  9 10  2  0  0  0  0
 18 19  1  0  0  0  0
 19 31  1  0  0  0  0
 19 20  2  0  0  0  0
 32 35  1  0  0  0  0
  8 11  1  0  0  0  0
 21 23  1  0  0  0  0
 41 42  1  0  0  0  0
 31 32  1  0  0  0  0
  7  8  1  0  0  0  0
 18 21  1  0  0  0  0
 17 18  1  0  0  0  0
 21 22  1  0  0  0  0
  3  4  1  0  0  0  0
  3  5  1  0  0  0  0
  3  6  1  0  0  0  0
 35 38  1  0  0  0  0
 35 39  1  0  0  0  0
 35 40  1  0  0  0  0
 11 14  1  0  0  0  0
 11 15  1  0  0  0  0
 11 16  1  0  0  0  0
 23 28  1  0  0  0  0
 23 29  1  0  0  0  0
 23 30  1  0  0  0  0
 42 44  1  0  0  0  0
 42 45  1  0  0  0  0
 42 46  1  0  0  0  0
 32 37  1  0  0  0  0
  8 13  1  0  0  0  0
 18 25  1  0  0  0  0
 21 26  1  0  0  0  0
 41 43  1  0  0  0  0
  7 12  1  0  0  0  0
 31 36  1  0  0  0  0
 17 24  1  0  0  0  0
 22 27  1  0  0  0  0
M  END
$$$$

  -OEChem-05262214473D

 46 45  0     1  0  0  0  0  0999 V2000
   -4.6700    2.7214    1.5150 C   0  0  0  0  0  0  0  0  0  0  0  0
   -5.4532    2.5715    0.5845 O   0  0  0  0  0  0  0  0  0  0  0  0
   -5.0996    3.4865    2.7226 C   0  0  0  0  0  0  0  0  0  0  0  0
   -4.8796    4.5629    2.6387 H   0  0  0  0  0  0  0  0  0  0  0  0
   -6.1861    3.4241    2.8954 H   0  0  0  0  0  0  0  0  0  0  0  0
   -4.6369    3.1693    3.6708 H   0  0  0  0  0  0  0  0  0  0  0  0
   -3.3731    2.2391    1.5790 N   0  0  0  0  0  0  0  0  0  0  0  0
   -2.7599    1.4751    0.5247 C   0  0  2  0  0  0  0  0  0  0  0  0
   -1.5143    0.8067    1.0915 C   0  0  0  0  0  0  0  0  0  0  0  0
   -0.9247    1.2213    2.0872 O   0  0  0  0  0  0  0  0  0  0  0  0
   -2.4106    2.3553   -0.6653 C   0  0  0  0  0  0  0  0  0  0  0  0
   -2.8254    2.4352    2.4150 H   0  0  0  0  0  0  0  0  0  0  0  0
   -3.4836    0.7082    0.2278 H   0  0  0  0  0  0  0  0  0  0  0  0
   -1.6866    3.1298   -0.3871 H   0  0  0  0  0  0  0  0  0  0  0  0
   -1.9704    1.7677   -1.4777 H   0  0  0  0  0  0  0  0  0  0  0  0
   -3.3030    2.8584   -1.0531 H   0  0  0  0  0  0  0  0  0  0  0  0
   -1.1107   -0.2839    0.3303 N   0  0  0  0  0  0  0  0  0  0  0  0
    0.0490   -1.0750    0.6539 C   0  0  2  0  0  0  0  0  0  0  0  0
    0.6143   -1.6203   -0.6544 C   0  0  0  0  0  0  0  0  0  0  0  0
    1.2097   -0.9201   -1.4708 O   0  0  0  0  0  0  0  0  0  0  0  0
   -0.2593   -2.2028    1.6495 C   0  0  2  0  0  0  0  0  0  0  0  0
   -1.2219   -3.1056    1.1073 O   0  0  0  0  0  0  0  0  0  0  0  0
   -0.8087   -1.6733    2.9686 C   0  0  0  0  0  0  0  0  0  0  0  0
   -1.6733   -0.5660   -0.4691 H   0  0  0  0  0  0  0  0  0  0  0  0
    0.7842   -0.3854    1.0862 H   0  0  0  0  0  0  0  0  0  0  0  0
    0.6472   -2.7823    1.8599 H   0  0  0  0  0  0  0  0  0  0  0  0
   -1.3324   -3.8138    1.7599 H   0  0  0  0  0  0  0  0  0  0  0  0
   -1.7192   -1.0841    2.8150 H   0  0  0  0  0  0  0  0  0  0  0  0
   -0.0702   -1.0545    3.4872 H   0  0  0  0  0  0  0  0  0  0  0  0
   -1.0858   -2.5060    3.6244 H   0  0  0  0  0  0  0  0  0  0  0  0
    0.3324   -2.9684   -0.8246 N   0  0  0  0  0  0  0  0  0  0  0  0
    0.7345   -3.7040   -2.0005 C   0  0  2  0  0  0  0  0  0  0  0  0
    2.2122   -4.0445   -1.8597 C   0  0  0  0  0  0  0  0  0  0  0  0
    2.9790   -3.4164   -1.1327 O   0  0  0  0  0  0  0  0  0  0  0  0
    0.4795   -2.9034   -3.2680 C   0  0  0  0  0  0  0  0  0  0  0  0
   -0.1766   -3.4568   -0.0937 H   0  0  0  0  0  0  0  0  0  0  0  0
    0.1457   -4.6277   -2.0123 H   0  0  0  0  0  0  0  0  0  0  0  0
    1.0609   -1.9742   -3.2742 H   0  0  0  0  0  0  0  0  0  0  0  0
    0.7584   -3.4736   -4.1603 H   0  0  0  0  0  0  0  0  0  0  0  0
   -0.5788   -2.6338   -3.3525 H   0  0  0  0  0  0  0  0  0  0  0  0
    2.5832   -5.1053   -2.6741 N   0  0  0  0  0  0  0  0  0  0  0  0
    3.9354   -5.6097   -2.7298 C   0  0  0  0  0  0  0  0  0  0  0  0
    1.8773   -5.5793   -3.2298 H   0  0  0  0  0  0  0  0  0  0  0  0
    4.4821   -5.1061   -3.5406 H   0  0  0  0  0  0  0  0  0  0  0  0
    4.4391   -5.4145   -1.7716 H   0  0  0  0  0  0  0  0  0  0  0  0
    3.9150   -6.6931   -2.9192 H   0  0  0  0  0  0  0  0  0  0  0  0
  1  3  1  0  0  0  0
  1  7  1  0  0  0  0
  1  2  2  0  0  0  0
 32 33  1  0  0  0  0
 33 41  1  0  0  0  0
 33 34  2  0  0  0  0
  8  9  1  0  0  0  0
  9 17  1  0  0  0  0
  9 10  2  0  0  0  0
 18 19  1  0  0  0  0
 19 31  1  0  0  0  0
 19 20  2  0  0  0  0
 32 35  1  0  0  0  0
  8 11  1  0  0  0  0
 21 23  1  0  0  0  0
 41 42  1  0  0  0  0
 31 32  1  0  0  0  0
  7  8  1  0  0  0  0
 18 21  1  0  0  0  0
 17 18  1  0  0  0  0
 21 22  1  0  0  0  0
  3  4  1  0  0  0  0
  3  5  1  0  0  0  0
  3  6  1  0  0  0  0
 35 38  1  0  0  0  0
 35 39  1  0  0  0  0
 35 40  1  0  0  0  0
 11 14  1  0  0  0  0
 11 15  1  0  0  0  0
 11 16  1  0  0  0  0
 23 28  1  0  0  0  0
 23 29  1  0  0  0  0
 23 30  1  0  0  0  0
 42 44  1  0  0  0  0
 42 45  1  0  0  0  0
 42 46  1  0  0  0  0
 32 37  1  0  0  0  0
  8 13  1  0  0  0  0
 18 25  1  0  0  0  0
 21 26  1  0  0  0  0
 41 43  1  0  0  0  0
  7 12  1  0  0  0  0
 31 36  1  0  0  0  0
 17 24  1  0  0  0  0
 22 27  1  0  0  0  0
M  END
$$$$

  -OEChem-05262214473D

 46 45  0     1  0  0  0  0  0999 V2000
   -4.6700    2.7214    1.5150 C   0  0  0  0  0  0  0  0  0  0  0  0
   -5.4532    2.5715    0.5845 O   0  0  0  0  0  0  0  0  0  0  0  0
   -5.0996    3.4865    2.7226 C   0  0  0  0  0  0  0  0  0  0  0  0
   -4.8796    4.5629    2.6387 H   0  0  0  0  0  0  0  0  0  0  0  0
   -6.1861    3.4241    2.8954 H   0  0  0  0  0  0  0  0  0  0  0  0
   -4.6369    3.1693    3.6708 H   0  0  0  0  0  0  0  0  0  0  0  0
   -3.3731    2.2391    1.5790 N   0  0  0  0  0  0  0  0  0  0  0  0
   -2.7599    1.4751    0.5247 C   0  0  2  0  0  0  0  0  0  0  0  0
   -1.5143    0.8067    1.0915 C   0  0  0  0  0  0  0  0  0  0  0  0
   -0.9247    1.2213    2.0872 O   0  0  0  0  0  0  0  0  0  0  0  0
   -2.4106    2.3553   -0.6653 C   0  0  0  0  0  0  0  0  0  0  0  0
   -2.8254    2.4352    2.4150 H   0  0  0  0  0  0  0  0  0  0  0  0
   -3.4836    0.7082    0.2278 H   0  0  0  0  0  0  0  0  0  0  0  0
   -1.6866    3.1298   -0.3871 H   0  0  0  0  0  0  0  0  0  0  0  0
   -1.9704    1.7677   -1.4777 H   0  0  0  0  0  0  0  0  0  0  0  0
   -3.3030    2.8584   -1.0531 H   0  0  0  0  0  0  0  0  0  0  0  0
   -1.1107   -0.2839    0.3303 N   0  0  0  0  0  0  0  0  0  0  0  0
    0.0490   -1.0750    0.6539 C   0  0  2  0  0  0  0  0  0  0  0  0
    0.6143   -1.6203   -0.6544 C   0  0  0  0  0  0  0  0  0  0  0  0
    1.4287   -1.0060   -1.3403 O   0  0  0  0  0  0  0  0  0  0  0  0
   -0.2593   -2.2028    1.6495 C   0  0  2  0  0  0  0  0  0  0  0  0
   -1.2219   -3.1056    1.1073 O   0  0  0  0  0  0  0  0  0  0  0  0
   -0.8087   -1.6733    2.9686 C   0  0  0  0  0  0  0  0  0  0  0  0
   -1.6733   -0.5660   -0.4691 H   0  0  0  0  0  0  0  0  0  0  0  0
    0.7842   -0.3854    1.0862 H   0  0  0  0  0  0  0  0  0  0  0  0
    0.6472   -2.7823    1.8599 H   0  0  0  0  0  0  0  0  0  0  0  0
   -1.3324   -3.8138    1.7599 H   0  0  0  0  0  0  0  0  0  0  0  0
   -1.7192   -1.0841    2.8150 H   0  0  0  0  0  0  0  0  0  0  0  0
   -0.0702   -1.0545    3.4872 H   0  0  0  0  0  0  0  0  0  0  0  0
   -1.0858   -2.5060    3.6244 H   0  0  0  0  0  0  0  0  0  0  0  0
    0.0652   -2.8500   -0.9894 N   0  0  0  0  0  0  0  0  0  0  0  0
    0.4170   -3.5542   -2.2000 C   0  0  2  0  0  0  0  0  0  0  0  0
    1.7627   -4.2313   -1.9760 C   0  0  0  0  0  0  0  0  0  0  0  0
    2.5685   -3.8575   -1.1262 O   0  0  0  0  0  0  0  0  0  0  0  0
    0.4746   -2.6114   -3.3918 C   0  0  0  0  0  0  0  0  0  0  0  0
   -0.6105   -3.2710   -0.3586 H   0  0  0  0  0  0  0  0  0  0  0  0
   -0.3540   -4.3162   -2.3581 H   0  0  0  0  0  0  0  0  0  0  0  0
    1.2416   -1.8409   -3.2517 H   0  0  0  0  0  0  0  0  0  0  0  0
    0.7135   -3.1516   -4.3139 H   0  0  0  0  0  0  0  0  0  0  0  0
   -0.4852   -2.1030   -3.5333 H   0  0  0  0  0  0  0  0  0  0  0  0
    1.9764   -5.2749   -2.8656 N   0  0  0  0  0  0  0  0  0  0  0  0
    3.1849   -6.0658   -2.8639 C   0  0  0  0  0  0  0  0  0  0  0  0
    1.2456   -5.5275   -3.5243 H   0  0  0  0  0  0  0  0  0  0  0  0
    3.9088   -5.6316   -3.5692 H   0  0  0  0  0  0  0  0  0  0  0  0
    3.6173   -6.0723   -1.8525 H   0  0  0  0  0  0  0  0  0  0  0  0
    2.9492   -7.0961   -3.1685 H   0  0  0  0  0  0  0  0  0  0  0  0
  1  3  1  0  0  0  0
  1  7  1  0  0  0  0
  1  2  2  0  0  0  0
 32 33  1  0  0  0  0
 33 41  1  0  0  0  0
 33 34  2  0  0  0  0
  8  9  1  0  0  0  0
  9 17  1  0  0  0  0
  9 10  2  0  0  0  0
 18 19  1  0  0  0  0
 19 31  1  0  0  0  0
 19 20  2  0  0  0  0
 32 35  1  0  0  0  0
  8 11  1  0  0  0  0
 21 23  1  0  0  0  0
 41 42  1  0  0  0  0
 31 32  1  0  0  0  0
  7  8  1  0  0  0  0
 18 21  1  0  0  0  0
 17 18  1  0  0  0  0
 21 22  1  0  0  0  0
  3  4  1  0  0  0  0
  3  5  1  0  0  0  0
  3  6  1  0  0  0  0
 35 38  1  0  0  0  0
 35 39  1  0  0  0  0
 35 40  1  0  0  0  0
 11 14  1  0  0  0  0
 11 15  1  0  0  0  0
 11 16  1  0  0  0  0
 23 28  1  0  0  0  0
 23 29  1  0  0  0  0
 23 30  1  0  0  0  0
 42 44  1  0  0  0  0
 42 45  1  0  0  0  0
 42 46  1  0  0  0  0
 32 37  1  0  0  0  0
  8 13  1  0  0  0  0
 18 25  1  0  0  0  0
 21 26  1  0  0  0  0
 41 43  1  0  0  0  0
  7 12  1  0  0  0  0
 31 36  1  0  0  0  0
 17 24  1  0  0  0  0
 22 27  1  0  0  0  0
M  END
$$$$

  -OEChem-05262214473D

 46 45  0     1  0  0  0  0  0999 V2000
   -4.6700    2.7214    1.5150 C   0  0  0  0  0  0  0  0  0  0  0  0
   -5.4532    2.5715    0.5845 O   0  0  0  0  0  0  0  0  0  0  0  0
   -5.0996    3.4865    2.7226 C   0  0  0  0  0  0  0  0  0  0  0  0
   -4.8796    4.5629    2.6387 H   0  0  0  0  0  0  0  0  0  0  0  0
   -6.1861    3.4241    2.8954 H   0  0  0  0  0  0  0  0  0  0  0  0
   -4.6369    3.1693    3.6708 H   0  0  0  0  0  0  0  0  0  0  0  0
   -3.3731    2.2391    1.5790 N   0  0  0  0  0  0  0  0  0  0  0  0
   -2.7599    1.4751    0.5247 C   0  0  2  0  0  0  0  0  0  0  0  0
   -1.5143    0.8067    1.0915 C   0  0  0  0  0  0  0  0  0  0  0  0
   -0.9247    1.2213    2.0872 O   0  0  0  0  0  0  0  0  0  0  0  0
   -2.4106    2.3553   -0.6653 C   0  0  0  0  0  0  0  0  0  0  0  0
   -2.8254    2.4352    2.4150 H   0  0  0  0  0  0  0  0  0  0  0  0
   -3.4836    0.7082    0.2278 H   0  0  0  0  0  0  0  0  0  0  0  0
   -1.6866    3.1298   -0.3871 H   0  0  0  0  0  0  0  0  0  0  0  0
   -1.9704    1.7677   -1.4777 H   0  0  0  0  0  0  0  0  0  0  0  0
   -3.3030    2.8584   -1.0531 H   0  0  0  0  0  0  0  0  0  0  0  0
   -1.1107   -0.2839    0.3303 N   0  0  0  0  0  0  0  0  0  0  0  0
    0.0490   -1.0750    0.6539 C   0  0  2  0  0  0  0  0  0  0  0  0
    0.6143   -1.6203   -0.6544 C   0  0  0  0  0  0  0  0  0  0  0  0
    1.6092   -1.1501   -1.2023 O   0  0  0  0  0  0  0  0  0  0  0  0
   -0.2593   -2.2028    1.6495 C   0  0  2  0  0  0  0  0  0  0  0  0
   -1.2219   -3.1056    1.1073 O   0  0  0  0  0  0  0  0  0  0  0  0
   -0.8087   -1.6733    2.9686 C   0  0  0  0  0  0  0  0  0  0  0  0
   -1.6733   -0.5660   -0.4691 H   0  0  0  0  0  0  0  0  0  0  0  0
    0.7842   -0.3854    1.0862 H   0  0  0  0  0  0  0  0  0  0  0  0
    0.6472   -2.7823    1.8599 H   0  0  0  0  0  0  0  0  0  0  0  0
   -1.3324   -3.8138    1.7599 H   0  0  0  0  0  0  0  0  0  0  0  0
   -1.7192   -1.0841    2.8150 H   0  0  0  0  0  0  0  0  0  0  0  0
   -0.0702   -1.0545    3.4872 H   0  0  0  0  0  0  0  0  0  0  0  0
   -1.0858   -2.5060    3.6244 H   0  0  0  0  0  0  0  0  0  0  0  0
   -0.1513   -2.6605   -1.1620 N   0  0  0  0  0  0  0  0  0  0  0  0
    0.1621   -3.3201   -2.4078 C   0  0  2  0  0  0  0  0  0  0  0  0
    1.2979   -4.3008   -2.1479 C   0  0  0  0  0  0  0  0  0  0  0  0
    2.0735   -4.1932   -1.2002 O   0  0  0  0  0  0  0  0  0  0  0  0
    0.5461   -2.3164   -3.4839 C   0  0  0  0  0  0  0  0  0  0  0  0
   -0.9639   -2.9699   -0.6368 H   0  0  0  0  0  0  0  0  0  0  0  0
   -0.7356   -3.8713   -2.7084 H   0  0  0  0  0  0  0  0  0  0  0  0
    1.4435   -1.7545   -3.2005 H   0  0  0  0  0  0  0  0  0  0  0  0
    0.7557   -2.8159   -4.4356 H   0  0  0  0  0  0  0  0  0  0  0  0
   -0.2604   -1.5938   -3.6484 H   0  0  0  0  0  0  0  0  0  0  0  0
    1.3703   -5.2858   -3.1229 N   0  0  0  0  0  0  0  0  0  0  0  0
    2.3712   -6.3269   -3.1067 C   0  0  0  0  0  0  0  0  0  0  0  0
    0.6742   -5.3091   -3.8623 H   0  0  0  0  0  0  0  0  0  0  0  0
    3.2411   -6.0092   -3.7003 H   0  0  0  0  0  0  0  0  0  0  0  0
    2.6850   -6.5175   -2.0697 H   0  0  0  0  0  0  0  0  0  0  0  0
    1.9499   -7.2472   -3.5373 H   0  0  0  0  0  0  0  0  0  0  0  0
  1  3  1  0  0  0  0
  1  7  1  0  0  0  0
  1  2  2  0  0  0  0
 32 33  1  0  0  0  0
 33 41  1  0  0  0  0
 33 34  2  0  0  0  0
  8  9  1  0  0  0  0
  9 17  1  0  0  0  0
  9 10  2  0  0  0  0
 18 19  1  0  0  0  0
 19 31  1  0  0  0  0
 19 20  2  0  0  0  0
 32 35  1  0  0  0  0
  8 11  1  0  0  0  0
 21 23  1  0  0  0  0
 41 42  1  0  0  0  0
 31 32  1  0  0  0  0
  7  8  1  0  0  0  0
 18 21  1  0  0  0  0
 17 18  1  0  0  0  0
 21 22  1  0  0  0  0
  3  4  1  0  0  0  0
  3  5  1  0  0  0  0
  3  6  1  0  0  0  0
 35 38  1  0  0  0  0
 35 39  1  0  0  0  0
 35 40  1  0  0  0  0
 11 14  1  0  0  0  0
 11 15  1  0  0  0  0
 11 16  1  0  0  0  0
 23 28  1  0  0  0  0
 23 29  1  0  0  0  0
 23 30  1  0  0  0  0
 42 44  1  0  0  0  0
 42 45  1  0  0  0  0
 42 46  1  0  0  0  0
 32 37  1  0  0  0  0
  8 13  1  0  0  0  0
 18 25  1  0  0  0  0
 21 26  1  0  0  0  0
 41 43  1  0  0  0  0
  7 12  1  0  0  0  0
 31 36  1  0  0  0  0
 17 24  1  0  0  0  0
 22 27  1  0  0  0  0
M  END
$$$$

  -OEChem-05262214473D

 46 45  0     1  0  0  0  0  0999 V2000
   -4.6700    2.7214    1.5150 C   0  0  0  0  0  0  0  0  0  0  0  0
   -5.4532    2.5715    0.5845 O   0  0  0  0  0  0  0  0  0  0  0  0
   -5.0996    3.4865    2.7226 C   0  0  0  0  0  0  0  0  0  0  0  0
   -4.8796    4.5629    2.6387 H   0  0  0  0  0  0  0  0  0  0  0  0
   -6.1861    3.4241    2.8954 H   0  0  0  0  0  0  0  0  0  0  0  0
   -4.6369    3.1693    3.6708 H   0  0  0  0  0  0  0  0  0  0  0  0
   -3.3731    2.2391    1.5790 N   0  0  0  0  0  0  0  0  0  0  0  0
   -2.7599    1.4751    0.5247 C   0  0  2  0  0  0  0  0  0  0  0  0
   -1.5143    0.8067    1.0915 C   0  0  0  0  0  0  0  0  0  0  0  0
   -0.9247    1.2213    2.0872 O   0  0  0  0  0  0  0  0  0  0  0  0
   -2.4106    2.3553   -0.6653 C   0  0  0  0  0  0  0  0  0  0  0  0
   -2.8254    2.4352    2.4150 H   0  0  0  0  0  0  0  0  0  0  0  0
   -3.4836    0.7082    0.2278 H   0  0  0  0  0  0  0  0  0  0  0  0
   -1.6866    3.1298   -0.3871 H   0  0  0  0  0  0  0  0  0  0  0  0
   -1.9704    1.7677   -1.4777 H   0  0  0  0  0  0  0  0  0  0  0  0
   -3.3030    2.8584   -1.0531 H   0  0  0  0  0  0  0  0  0  0  0  0
   -1.1107   -0.2839    0.3303 N   0  0  0  0  0  0  0  0  0  0  0  0
    0.0490   -1.0750    0.6539 C   0  0  2  0  0  0  0  0  0  0  0  0
    0.6143   -1.6203   -0.6544 C   0  0  0  0  0  0  0  0  0  0  0  0
    1.7388   -1.3425   -1.0661 O   0  0  0  0  0  0  0  0  0  0  0  0
   -0.2593   -2.2028    1.6495 C   0  0  2  0  0  0  0  0  0  0  0  0
   -1.2219   -3.1056    1.1073 O   0  0  0  0  0  0  0  0  0  0  0  0
   -0.8087   -1.6733    2.9686 C   0  0  0  0  0  0  0  0  0  0  0  0
   -1.6733   -0.5660   -0.4691 H   0  0  0  0  0  0  0  0  0  0  0  0
    0.7842   -0.3854    1.0862 H   0  0  0  0  0  0  0  0  0  0  0  0
    0.6472   -2.7823    1.8599 H   0  0  0  0  0  0  0  0  0  0  0  0
   -1.3324   -3.8138    1.7599 H   0  0  0  0  0  0  0  0  0  0  0  0
   -1.7192   -1.0841    2.8150 H   0  0  0  0  0  0  0  0  0  0  0  0
   -0.0702   -1.0545    3.4872 H   0  0  0  0  0  0  0  0  0  0  0  0
   -1.0858   -2.5060    3.6244 H   0  0  0  0  0  0  0  0  0  0  0  0
   -0.3025   -2.4128   -1.3305 N   0  0  0  0  0  0  0  0  0  0  0  0
   -0.0129   -3.0173   -2.6096 C   0  0  2  0  0  0  0  0  0  0  0  0
    0.8494   -4.2483   -2.3636 C   0  0  0  0  0  0  0  0  0  0  0  0
    1.5277   -4.4004   -1.3497 O   0  0  0  0  0  0  0  0  0  0  0  0
    0.6891   -2.0386   -3.5379 C   0  0  0  0  0  0  0  0  0  0  0  0
   -1.2127   -2.5740   -0.9093 H   0  0  0  0  0  0  0  0  0  0  0  0
   -0.9730   -3.3233   -3.0394 H   0  0  0  0  0  0  0  0  0  0  0  0
    1.6530   -1.7207   -3.1240 H   0  0  0  0  0  0  0  0  0  0  0  0
    0.8823   -2.4893   -4.5170 H   0  0  0  0  0  0  0  0  0  0  0  0
    0.0804   -1.1407   -3.6900 H   0  0  0  0  0  0  0  0  0  0  0  0
    0.8063   -5.1371   -3.4286 N   0  0  0  0  0  0  0  0  0  0  0  0
    1.5498   -6.3753   -3.4414 C   0  0  0  0  0  0  0  0  0  0  0  0
    0.2019   -4.9390   -4.2206 H   0  0  0  0  0  0  0  0  0  0  0  0
    2.5245   -6.2133   -3.9249 H   0  0  0  0  0  0  0  0  0  0  0  0
    1.7058   -6.7198   -2.4085 H   0  0  0  0  0  0  0  0  0  0  0  0
    0.9852   -7.1360   -4.0005 H   0  0  0  0  0  0  0  0  0  0  0  0
  1  3  1  0  0  0  0
  1  7  1  0  0  0  0
  1  2  2  0  0  0  0
 32 33  1  0  0  0  0
 33 41  1  0  0  0  0
 33 34  2  0  0  0  0
  8  9  1  0  0  0  0
  9 17  1  0  0  0  0
  9 10  2  0  0  0  0
 18 19  1  0  0  0  0
 19 31  1  0  0  0  0
 19 20  2  0  0  0  0
 32 35  1  0  0  0  0
  8 11  1  0  0  0  0
 21 23  1  0  0  0  0
 41 42  1  0  0  0  0
 31 32  1  0  0  0  0
  7  8  1  0  0  0  0
 18 21  1  0  0  0  0
 17 18  1  0  0  0  0
 21 22  1  0  0  0  0
  3  4  1  0  0  0  0
  3  5  1  0  0  0  0
  3  6  1  0  0  0  0
 35 38  1  0  0  0  0
 35 39  1  0  0  0  0
 35 40  1  0  0  0  0
 11 14  1  0  0  0  0
 11 15  1  0  0  0  0
 11 16  1  0  0  0  0
 23 28  1  0  0  0  0
 23 29  1  0  0  0  0
 23 30  1  0  0  0  0
 42 44  1  0  0  0  0
 42 45  1  0  0  0  0
 42 46  1  0  0  0  0
 32 37  1  0  0  0  0
  8 13  1  0  0  0  0
 18 25  1  0  0  0  0
 21 26  1  0  0  0  0
 41 43  1  0  0  0  0
  7 12  1  0  0  0  0
 31 36  1  0  0  0  0
 17 24  1  0  0  0  0
 22 27  1  0  0  0  0
M  END
$$$$

  -OEChem-05262214473D

 46 45  0     1  0  0  0  0  0999 V2000
   -4.6700    2.7214    1.5150 C   0  0  0  0  0  0  0  0  0  0  0  0
   -5.4532    2.5715    0.5845 O   0  0  0  0  0  0  0  0  0  0  0  0
   -5.0996    3.4865    2.7226 C   0  0  0  0  0  0  0  0  0  0  0  0
   -4.8796    4.5629    2.6387 H   0  0  0  0  0  0  0  0  0  0  0  0
   -6.1861    3.4241    2.8954 H   0  0  0  0  0  0  0  0  0  0  0  0
   -4.6369    3.1693    3.6708 H   0  0  0  0  0  0  0  0  0  0  0  0
   -3.3731    2.2391    1.5790 N   0  0  0  0  0  0  0  0  0  0  0  0
   -2.7599    1.4751    0.5247 C   0  0  2  0  0  0  0  0  0  0  0  0
   -1.5143    0.8067    1.0915 C   0  0  0  0  0  0  0  0  0  0  0  0
   -0.9247    1.2213    2.0872 O   0  0  0  0  0  0  0  0  0  0  0  0
   -2.4106    2.3553   -0.6653 C   0  0  0  0  0  0  0  0  0  0  0  0
   -2.8254    2.4352    2.4150 H   0  0  0  0  0  0  0  0  0  0  0  0
   -3.4836    0.7082    0.2278 H   0  0  0  0  0  0  0  0  0  0  0  0
   -1.6866    3.1298   -0.3871 H   0  0  0  0  0  0  0  0  0  0  0  0
   -1.9704    1.7677   -1.4777 H   0  0  0  0  0  0  0  0  0  0  0  0
   -3.3030    2.8584   -1.0531 H   0  0  0  0  0  0  0  0  0  0  0  0
   -1.1107   -0.2839    0.3303 N   0  0  0  0  0  0  0  0  0  0  0  0
    0.0490   -1.0750    0.6539 C   0  0  2  0  0  0  0  0  0  0  0  0
    0.6143   -1.6203   -0.6544 C   0  0  0  0  0  0  0  0  0  0  0  0
    1.8087   -1.5702   -0.9410 O   0  0  0  0  0  0  0  0  0  0  0  0
   -0.2593   -2.2028    1.6495 C   0  0  2  0  0  0  0  0  0  0  0  0
   -1.2219   -3.1056    1.1073 O   0  0  0  0  0  0  0  0  0  0  0  0
   -0.8087   -1.6733    2.9686 C   0  0  0  0  0  0  0  0  0  0  0  0
   -1.6733   -0.5660   -0.4691 H   0  0  0  0  0  0  0  0  0  0  0  0
    0.7842   -0.3854    1.0862 H   0  0  0  0  0  0  0  0  0  0  0  0
    0.6472   -2.7823    1.8599 H   0  0  0  0  0  0  0  0  0  0  0  0
   -1.3324   -3.8138    1.7599 H   0  0  0  0  0  0  0  0  0  0  0  0
   -1.7192   -1.0841    2.8150 H   0  0  0  0  0  0  0  0  0  0  0  0
   -0.0702   -1.0545    3.4872 H   0  0  0  0  0  0  0  0  0  0  0  0
   -1.0858   -2.5060    3.6244 H   0  0  0  0  0  0  0  0  0  0  0  0
   -0.3780   -2.1239   -1.4835 N   0  0  0  0  0  0  0  0  0  0  0  0
   -0.0962   -2.6668   -2.7917 C   0  0  2  0  0  0  0  0  0  0  0  0
    0.4478   -4.0774   -2.6083 C   0  0  0  0  0  0  0  0  0  0  0  0
    0.9683   -4.4652   -1.5644 O   0  0  0  0  0  0  0  0  0  0  0  0
    0.8939   -1.7967   -3.5503 C   0  0  0  0  0  0  0  0  0  0  0  0
   -1.3400   -2.1102   -1.1576 H   0  0  0  0  0  0  0  0  0  0  0  0
   -1.0501   -2.7095   -3.3286 H   0  0  0  0  0  0  0  0  0  0  0  0
    1.8558   -1.7419   -3.0276 H   0  0  0  0  0  0  0  0  0  0  0  0
    1.0846   -2.1941   -4.5526 H   0  0  0  0  0  0  0  0  0  0  0  0
    0.5140   -0.7747   -3.6552 H   0  0  0  0  0  0  0  0  0  0  0  0
    0.3227   -4.8390   -3.7618 N   0  0  0  0  0  0  0  0  0  0  0  0
    0.7766   -6.2076   -3.8454 C   0  0  0  0  0  0  0  0  0  0  0  0
   -0.1389   -4.4423   -4.5749 H   0  0  0  0  0  0  0  0  0  0  0  0
    1.8077   -6.2298   -4.2277 H   0  0  0  0  0  0  0  0  0  0  0  0
    0.7463   -6.6655   -2.8457 H   0  0  0  0  0  0  0  0  0  0  0  0
    0.1210   -6.7702   -4.5264 H   0  0  0  0  0  0  0  0  0  0  0  0
  1  3  1  0  0  0  0
  1  7  1  0  0  0  0
  1  2  2  0  0  0  0
 32 33  1  0  0  0  0
 33 41  1  0  0  0  0
 33 34  2  0  0  0  0
  8  9  1  0  0  0  0
  9 17  1  0  0  0  0
  9 10  2  0  0  0  0
 18 19  1  0  0  0  0
 19 31  1  0  0  0  0
 19 20  2  0  0  0  0
 32 35  1  0  0  0  0
  8 11  1  0  0  0  0
 21 23  1  0  0  0  0
 41 42  1  0  0  0  0
 31 32  1  0  0  0  0
  7  8  1  0  0  0  0
 18 21  1  0  0  0  0
 17 18  1  0  0  0  0
 21 22  1  0  0  0  0
  3  4  1  0  0  0  0
  3  5  1  0  0  0  0
  3  6  1  0  0  0  0
 35 38  1  0  0  0  0
 35 39  1  0  0  0  0
 35 40  1  0  0  0  0
 11 14  1  0  0  0  0
 11 15  1  0  0  0  0
 11 16  1  0  0  0  0
 23 28  1  0  0  0  0
 23 29  1  0  0  0  0
 23 30  1  0  0  0  0
 42 44  1  0  0  0  0
 42 45  1  0  0  0  0
 42 46  1  0  0  0  0
 32 37  1  0  0  0  0
  8 13  1  0  0  0  0
 18 25  1  0  0  0  0
 21 26  1  0  0  0  0
 41 43  1  0  0  0  0
  7 12  1  0  0  0  0
 31 36  1  0  0  0  0
 17 24  1  0  0  0  0
 22 27  1  0  0  0  0
M  END
$$$$

  -OEChem-05262214473D

 46 45  0     1  0  0  0  0  0999 V2000
   -4.6700    2.7214    1.5150 C   0  0  0  0  0  0  0  0  0  0  0  0
   -5.4532    2.5715    0.5845 O   0  0  0  0  0  0  0  0  0  0  0  0
   -5.0996    3.4865    2.7226 C   0  0  0  0  0  0  0  0  0  0  0  0
   -4.8796    4.5629    2.6387 H   0  0  0  0  0  0  0  0  0  0  0  0
   -6.1861    3.4241    2.8954 H   0  0  0  0  0  0  0  0  0  0  0  0
   -4.6369    3.1693    3.6708 H   0  0  0  0  0  0  0  0  0  0  0  0
   -3.3731    2.2391    1.5790 N   0  0  0  0  0  0  0  0  0  0  0  0
   -2.7599    1.4751    0.5247 C   0  0  2  0  0  0  0  0  0  0  0  0
   -1.5143    0.8067    1.0915 C   0  0  0  0  0  0  0  0  0  0  0  0
   -0.9247    1.2213    2.0872 O   0  0  0  0  0  0  0  0  0  0  0  0
   -2.4106    2.3553   -0.6653 C   0  0  0  0  0  0  0  0  0  0  0  0
   -2.8254    2.4352    2.4150 H   0  0  0  0  0  0  0  0  0  0  0  0
   -3.4836    0.7082    0.2278 H   0  0  0  0  0  0  0  0  0  0  0  0
   -1.6866    3.1298   -0.3871 H   0  0  0  0  0  0  0  0  0  0  0  0
   -1.9704    1.7677   -1.4777 H   0  0  0  0  0  0  0  0  0  0  0  0
   -3.3030    2.8584   -1.0531 H   0  0  0  0  0  0  0  0  0  0  0  0
   -1.1107   -0.2839    0.3303 N   0  0  0  0  0  0  0  0  0  0  0  0
    0.0490   -1.0750    0.6539 C   0  0  2  0  0  0  0  0  0  0  0  0
    0.6143   -1.6203   -0.6544 C   0  0  0  0  0  0  0  0  0  0  0  0
    1.8141   -1.8176   -0.8355 O   0  0  0  0  0  0  0  0  0  0  0  0
   -0.2593   -2.2028    1.6495 C   0  0  2  0  0  0  0  0  0  0  0  0
   -1.2219   -3.1056    1.1073 O   0  0  0  0  0  0  0  0  0  0  0  0
   -0.8087   -1.6733    2.9686 C   0  0  0  0  0  0  0  0  0  0  0  0
   -1.6733   -0.5660   -0.4691 H   0  0  0  0  0  0  0  0  0  0  0  0
    0.7842   -0.3854    1.0862 H   0  0  0  0  0  0  0  0  0  0  0  0
    0.6472   -2.7823    1.8599 H   0  0  0  0  0  0  0  0  0  0  0  0
   -1.3324   -3.8138    1.7599 H   0  0  0  0  0  0  0  0  0  0  0  0
   -1.7192   -1.0841    2.8150 H   0  0  0  0  0  0  0  0  0  0  0  0
   -0.0702   -1.0545    3.4872 H   0  0  0  0  0  0  0  0  0  0  0  0
   -1.0858   -2.5060    3.6244 H   0  0  0  0  0  0  0  0  0  0  0  0
   -0.3726   -1.8135   -1.6106 N   0  0  0  0  0  0  0  0  0  0  0  0
   -0.0820   -2.2922   -2.9417 C   0  0  2  0  0  0  0  0  0  0  0  0
    0.1204   -3.7997   -2.8655 C   0  0  0  0  0  0  0  0  0  0  0  0
    0.4334   -4.3830   -1.8297 O   0  0  0  0  0  0  0  0  0  0  0  0
    1.1465   -1.6073   -3.5200 C   0  0  0  0  0  0  0  0  0  0  0  0
   -1.3370   -1.6102   -1.3647 H   0  0  0  0  0  0  0  0  0  0  0  0
   -0.9617   -2.0718   -3.5561 H   0  0  0  0  0  0  0  0  0  0  0  0
    2.0380   -1.8166   -2.9177 H   0  0  0  0  0  0  0  0  0  0  0  0
    1.3488   -1.9505   -4.5400 H   0  0  0  0  0  0  0  0  0  0  0  0
    1.0108   -0.5208   -3.5464 H   0  0  0  0  0  0  0  0  0  0  0  0
   -0.0474   -4.4118   -4.0998 N   0  0  0  0  0  0  0  0  0  0  0  0
    0.1042   -5.8354   -4.2911 C   0  0  0  0  0  0  0  0  0  0  0  0
   -0.3252   -3.8529   -4.9011 H   0  0  0  0  0  0  0  0  0  0  0  0
    1.1398   -6.0577   -4.5880 H   0  0  0  0  0  0  0  0  0  0  0  0
   -0.1279   -6.3582   -3.3515 H   0  0  0  0  0  0  0  0  0  0  0  0
   -0.5840   -6.1746   -5.0792 H   0  0  0  0  0  0  0  0  0  0  0  0
  1  3  1  0  0  0  0
  1  7  1  0  0  0  0
  1  2  2  0  0  0  0
 32 33  1  0  0  0  0
 33 41  1  0  0  0  0
 33 34  2  0  0  0  0
  8  9  1  0  0  0  0
  9 17  1  0  0  0  0
  9 10  2  0  0  0  0
 18 19  1  0  0  0  0
 19 31  1  0  0  0  0
 19 20  2  0  0  0  0
 32 35  1  0  0  0  0
  8 11  1  0  0  0  0
 21 23  1  0  0  0  0
 41 42  1  0  0  0  0
 31 32  1  0  0  0  0
  7  8  1  0  0  0  0
 18 21  1  0  0  0  0
 17 18  1  0  0  0  0
 21 22  1  0  0  0  0
  3  4  1  0  0  0  0
  3  5  1  0  0  0  0
  3  6  1  0  0  0  0
 35 38  1  0  0  0  0
 35 39  1  0  0  0  0
 35 40  1  0  0  0  0
 11 14  1  0  0  0  0
 11 15  1  0  0  0  0
 11 16  1  0  0  0  0
 23 28  1  0  0  0  0
 23 29  1  0  0  0  0
 23 30  1  0  0  0  0
 42 44  1  0  0  0  0
 42 45  1  0  0  0  0
 42 46  1  0  0  0  0
 32 37  1  0  0  0  0
  8 13  1  0  0  0  0
 18 25  1  0  0  0  0
 21 26  1  0  0  0  0
 41 43  1  0  0  0  0
  7 12  1  0  0  0  0
 31 36  1  0  0  0  0
 17 24  1  0  0  0  0
 22 27  1  0  0  0  0
M  END
$$$$

  -OEChem-05262214473D

 46 45  0     1  0  0  0  0  0999 V2000
   -4.6700    2.7214    1.5150 C   0  0  0  0  0  0  0  0  0  0  0  0
   -5.4532    2.5715    0.5845 O   0  0  0  0  0  0  0  0  0  0  0  0
   -5.0996    3.4865    2.7226 C   0  0  0  0  0  0  0  0  0  0  0  0
   -4.8796    4.5629    2.6387 H   0  0  0  0  0  0  0  0  0  0  0  0
   -6.1861    3.4241    2.8954 H   0  0  0  0  0  0  0  0  0  0  0  0
   -4.6369    3.1693    3.6708 H   0  0  0  0  0  0  0  0  0  0  0  0
   -3.3731    2.2391    1.5790 N   0  0  0  0  0  0  0  0  0  0  0  0
   -2.7599    1.4751    0.5247 C   0  0  2  0  0  0  0  0  0  0  0  0
   -1.5143    0.8067    1.0915 C   0  0  0  0  0  0  0  0  0  0  0  0
   -0.9247    1.2213    2.0872 O   0  0  0  0  0  0  0  0  0  0  0  0
   -2.4106    2.3553   -0.6653 C   0  0  0  0  0  0  0  0  0  0  0  0
   -2.8254    2.4352    2.4150 H   0  0  0  0  0  0  0  0  0  0  0  0
   -3.4836    0.7082    0.2278 H   0  0  0  0  0  0  0  0  0  0  0  0
   -1.6866    3.1298   -0.3871 H   0  0  0  0  0  0  0  0  0  0  0  0
   -1.9704    1.7677   -1.4777 H   0  0  0  0  0  0  0  0  0  0  0  0
   -3.3030    2.8584   -1.0531 H   0  0  0  0  0  0  0  0  0  0  0  0
   -1.1107   -0.2839    0.3303 N   0  0  0  0  0  0  0  0  0  0  0  0
    0.0490   -1.0750    0.6539 C   0  0  2  0  0  0  0  0  0  0  0  0
    0.6143   -1.6203   -0.6544 C   0  0  0  0  0  0  0  0  0  0  0  0
    1.7547   -2.0679   -0.7569 O   0  0  0  0  0  0  0  0  0  0  0  0
   -0.2593   -2.2028    1.6495 C   0  0  2  0  0  0  0  0  0  0  0  0
   -1.2219   -3.1056    1.1073 O   0  0  0  0  0  0  0  0  0  0  0  0
   -0.8087   -1.6733    2.9686 C   0  0  0  0  0  0  0  0  0  0  0  0
   -1.6733   -0.5660   -0.4691 H   0  0  0  0  0  0  0  0  0  0  0  0
    0.7842   -0.3854    1.0862 H   0  0  0  0  0  0  0  0  0  0  0  0
    0.6472   -2.7823    1.8599 H   0  0  0  0  0  0  0  0  0  0  0  0
   -1.3324   -3.8138    1.7599 H   0  0  0  0  0  0  0  0  0  0  0  0
   -1.7192   -1.0841    2.8150 H   0  0  0  0  0  0  0  0  0  0  0  0
   -0.0702   -1.0545    3.4872 H   0  0  0  0  0  0  0  0  0  0  0  0
   -1.0858   -2.5060    3.6244 H   0  0  0  0  0  0  0  0  0  0  0  0
   -0.2868   -1.5026   -1.7031 N   0  0  0  0  0  0  0  0  0  0  0  0
    0.0287   -1.9192   -3.0493 C   0  0  2  0  0  0  0  0  0  0  0  0
   -0.1104   -3.4342   -3.1176 C   0  0  0  0  0  0  0  0  0  0  0  0
   -0.0404   -4.1596   -2.1276 O   0  0  0  0  0  0  0  0  0  0  0  0
    1.4298   -1.4834   -3.4493 C   0  0  0  0  0  0  0  0  0  0  0  0
   -1.2041   -1.1080   -1.5166 H   0  0  0  0  0  0  0  0  0  0  0  0
   -0.7137   -1.4537   -3.7067 H   0  0  0  0  0  0  0  0  0  0  0  0
    2.1873   -1.9398   -2.8018 H   0  0  0  0  0  0  0  0  0  0  0  0
    1.6569   -1.7750   -4.4801 H   0  0  0  0  0  0  0  0  0  0  0  0
    1.5370   -0.3961   -3.3710 H   0  0  0  0  0  0  0  0  0  0  0  0
   -0.2788   -3.8847   -4.4195 N   0  0  0  0  0  0  0  0  0  0  0  0
   -0.4214   -5.2839   -4.7480 C   0  0  0  0  0  0  0  0  0  0  0  0
   -0.3442   -3.2110   -5.1768 H   0  0  0  0  0  0  0  0  0  0  0  0
    0.5661   -5.7087   -4.9814 H   0  0  0  0  0  0  0  0  0  0  0  0
   -0.8574   -5.8189   -3.8915 H   0  0  0  0  0  0  0  0  0  0  0  0
   -1.0817   -5.3899   -5.6214 H   0  0  0  0  0  0  0  0  0  0  0  0
  1  3  1  0  0  0  0
  1  7  1  0  0  0  0
  1  2  2  0  0  0  0
 32 33  1  0  0  0  0
 33 41  1  0  0  0  0
 33 34  2  0  0  0  0
  8  9  1  0  0  0  0
  9 17  1  0  0  0  0
  9 10  2  0  0  0  0
 18 19  1  0  0  0  0
 19 31  1  0  0  0  0
 19 20  2  0  0  0  0
 32 35  1  0  0  0  0
  8 11  1  0  0  0  0
 21 23  1  0  0  0  0
 41 42  1  0  0  0  0
 31 32  1  0  0  0  0
  7  8  1  0  0  0  0
 18 21  1  0  0  0  0
 17 18  1  0  0  0  0
 21 22  1  0  0  0  0
  3  4  1  0  0  0  0
  3  5  1  0  0  0  0
  3  6  1  0  0  0  0
 35 38  1  0  0  0  0
 35 39  1  0  0  0  0
 35 40  1  0  0  0  0
 11 14  1  0  0  0  0
 11 15  1  0  0  0  0
 11 16  1  0  0  0  0
 23 28  1  0  0  0  0
 23 29  1  0  0  0  0
 23 30  1  0  0  0  0
 42 44  1  0  0  0  0
 42 45  1  0  0  0  0
 42 46  1  0  0  0  0
 32 37  1  0  0  0  0
  8 13  1  0  0  0  0
 18 25  1  0  0  0  0
 21 26  1  0  0  0  0
 41 43  1  0  0  0  0
  7 12  1  0  0  0  0
 31 36  1  0  0  0  0
 17 24  1  0  0  0  0
 22 27  1  0  0  0  0
M  END
$$$$

  -OEChem-05262214473D

 46 45  0     1  0  0  0  0  0999 V2000
   -4.6700    2.7214    1.5150 C   0  0  0  0  0  0  0  0  0  0  0  0
   -5.4532    2.5715    0.5845 O   0  0  0  0  0  0  0  0  0  0  0  0
   -5.0996    3.4865    2.7226 C   0  0  0  0  0  0  0  0  0  0  0  0
   -4.8796    4.5629    2.6387 H   0  0  0  0  0  0  0  0  0  0  0  0
   -6.1861    3.4241    2.8954 H   0  0  0  0  0  0  0  0  0  0  0  0
   -4.6369    3.1693    3.6708 H   0  0  0  0  0  0  0  0  0  0  0  0
   -3.3731    2.2391    1.5790 N   0  0  0  0  0  0  0  0  0  0  0  0
   -2.7599    1.4751    0.5247 C   0  0  2  0  0  0  0  0  0  0  0  0
   -1.5143    0.8067    1.0915 C   0  0  0  0  0  0  0  0  0  0  0  0
   -0.9247    1.2213    2.0872 O   0  0  0  0  0  0  0  0  0  0  0  0
   -2.4106    2.3553   -0.6653 C   0  0  0  0  0  0  0  0  0  0  0  0
   -2.8254    2.4352    2.4150 H   0  0  0  0  0  0  0  0  0  0  0  0
   -3.4836    0.7082    0.2278 H   0  0  0  0  0  0  0  0  0  0  0  0
   -1.6866    3.1298   -0.3871 H   0  0  0  0  0  0  0  0  0  0  0  0
   -1.9704    1.7677   -1.4777 H   0  0  0  0  0  0  0  0  0  0  0  0
   -3.3030    2.8584   -1.0531 H   0  0  0  0  0  0  0  0  0  0  0  0
   -1.1107   -0.2839    0.3303 N   0  0  0  0  0  0  0  0  0  0  0  0
    0.0490   -1.0750    0.6539 C   0  0  2  0  0  0  0  0  0  0  0  0
    0.6143   -1.6203   -0.6544 C   0  0  0  0  0  0  0  0  0  0  0  0
    1.6344   -2.3040   -0.7104 O   0  0  0  0  0  0  0  0  0  0  0  0
   -0.2593   -2.2028    1.6495 C   0  0  2  0  0  0  0  0  0  0  0  0
   -1.2219   -3.1056    1.1073 O   0  0  0  0  0  0  0  0  0  0  0  0
   -0.8087   -1.6733    2.9686 C   0  0  0  0  0  0  0  0  0  0  0  0
   -1.6733   -0.5660   -0.4691 H   0  0  0  0  0  0  0  0  0  0  0  0
    0.7842   -0.3854    1.0862 H   0  0  0  0  0  0  0  0  0  0  0  0
    0.6472   -2.7823    1.8599 H   0  0  0  0  0  0  0  0  0  0  0  0
   -1.3324   -3.8138    1.7599 H   0  0  0  0  0  0  0  0  0  0  0  0
   -1.7192   -1.0841    2.8150 H   0  0  0  0  0  0  0  0  0  0  0  0
   -0.0702   -1.0545    3.4872 H   0  0  0  0  0  0  0  0  0  0  0  0
   -1.0858   -2.5060    3.6244 H   0  0  0  0  0  0  0  0  0  0  0  0
   -0.1264   -1.2125   -1.7547 N   0  0  0  0  0  0  0  0  0  0  0  0
    0.2284   -1.5731   -3.1073 C   0  0  2  0  0  0  0  0  0  0  0  0
   -0.2289   -3.0058   -3.3474 C   0  0  0  0  0  0  0  0  0  0  0  0
   -0.4210   -3.8100   -2.4377 O   0  0  0  0  0  0  0  0  0  0  0  0
    1.7243   -1.4333   -3.3429 C   0  0  0  0  0  0  0  0  0  0  0  0
   -0.9502   -0.6379   -1.6029 H   0  0  0  0  0  0  0  0  0  0  0  0
   -0.3231   -0.8972   -3.7698 H   0  0  0  0  0  0  0  0  0  0  0  0
    2.2935   -2.1030   -2.6879 H   0  0  0  0  0  0  0  0  0  0  0  0
    1.9878   -1.6796   -4.3768 H   0  0  0  0  0  0  0  0  0  0  0  0
    2.0567   -0.4093   -3.1410 H   0  0  0  0  0  0  0  0  0  0  0  0
   -0.3558   -3.2935   -4.6992 N   0  0  0  0  0  0  0  0  0  0  0  0
   -0.7644   -4.5908   -5.1851 C   0  0  0  0  0  0  0  0  0  0  0  0
   -0.1945   -2.5603   -5.3834 H   0  0  0  0  0  0  0  0  0  0  0  0
    0.1258   -5.2066   -5.3809 H   0  0  0  0  0  0  0  0  0  0  0  0
   -1.3925   -5.0843   -4.4289 H   0  0  0  0  0  0  0  0  0  0  0  0
   -1.3381   -4.4695   -6.1158 H   0  0  0  0  0  0  0  0  0  0  0  0
  1  3  1  0  0  0  0
  1  7  1  0  0  0  0
  1  2  2  0  0  0  0
 32 33  1  0  0  0  0
 33 41  1  0  0  0  0
 33 34  2  0  0  0  0
  8  9  1  0  0  0  0
  9 17  1  0  0  0  0
  9 10  2  0  0  0  0
 18 19  1  0  0  0  0
 19 31  1  0  0  0  0
 19 20  2  0  0  0  0
 32 35  1  0  0  0  0
  8 11  1  0  0  0  0
 21 23  1  0  0  0  0
 41 42  1  0  0  0  0
 31 32  1  0  0  0  0
  7  8  1  0  0  0  0
 18 21  1  0  0  0  0
 17 18  1  0  0  0  0
 21 22  1  0  0  0  0
  3  4  1  0  0  0  0
  3  5  1  0  0  0  0
  3  6  1  0  0  0  0
 35 38  1  0  0  0  0
 35 39  1  0  0  0  0
 35 40  1  0  0  0  0
 11 14  1  0  0  0  0
 11 15  1  0  0  0  0
 11 16  1  0  0  0  0
 23 28  1  0  0  0  0
 23 29  1  0  0  0  0
 23 30  1  0  0  0  0
 42 44  1  0  0  0  0
 42 45  1  0  0  0  0
 42 46  1  0  0  0  0
 32 37  1  0  0  0  0
  8 13  1  0  0  0  0
 18 25  1  0  0  0  0
 21 26  1  0  0  0  0
 41 43  1  0  0  0  0
  7 12  1  0  0  0  0
 31 36  1  0  0  0  0
 17 24  1  0  0  0  0
 22 27  1  0  0  0  0
M  END
$$$$

  -OEChem-05262214473D

 46 45  0     1  0  0  0  0  0999 V2000
   -4.6700    2.7214    1.5150 C   0  0  0  0  0  0  0  0  0  0  0  0
   -5.4532    2.5715    0.5845 O   0  0  0  0  0  0  0  0  0  0  0  0
   -5.0996    3.4865    2.7226 C   0  0  0  0  0  0  0  0  0  0  0  0
   -4.8796    4.5629    2.6387 H   0  0  0  0  0  0  0  0  0  0  0  0
   -6.1861    3.4241    2.8954 H   0  0  0  0  0  0  0  0  0  0  0  0
   -4.6369    3.1693    3.6708 H   0  0  0  0  0  0  0  0  0  0  0  0
   -3.3731    2.2391    1.5790 N   0  0  0  0  0  0  0  0  0  0  0  0
   -2.7599    1.4751    0.5247 C   0  0  2  0  0  0  0  0  0  0  0  0
   -1.5143    0.8067    1.0915 C   0  0  0  0  0  0  0  0  0  0  0  0
   -0.9247    1.2213    2.0872 O   0  0  0  0  0  0  0  0  0  0  0  0
   -2.4106    2.3553   -0.6653 C   0  0  0  0  0  0  0  0  0  0  0  0
   -2.8254    2.4352    2.4150 H   0  0  0  0  0  0  0  0  0  0  0  0
   -3.4836    0.7082    0.2278 H   0  0  0  0  0  0  0  0  0  0  0  0
   -1.6866    3.1298   -0.3871 H   0  0  0  0  0  0  0  0  0  0  0  0
   -1.9704    1.7677   -1.4777 H   0  0  0  0  0  0  0  0  0  0  0  0
   -3.3030    2.8584   -1.0531 H   0  0  0  0  0  0  0  0  0  0  0  0
   -1.1107   -0.2839    0.3303 N   0  0  0  0  0  0  0  0  0  0  0  0
    0.0490   -1.0750    0.6539 C   0  0  2  0  0  0  0  0  0  0  0  0
    0.6143   -1.6203   -0.6544 C   0  0  0  0  0  0  0  0  0  0  0  0
    1.4616   -2.5099   -0.6993 O   0  0  0  0  0  0  0  0  0  0  0  0
   -0.2593   -2.2028    1.6495 C   0  0  2  0  0  0  0  0  0  0  0  0
   -1.2219   -3.1056    1.1073 O   0  0  0  0  0  0  0  0  0  0  0  0
   -0.8087   -1.6733    2.9686 C   0  0  0  0  0  0  0  0  0  0  0  0
   -1.6733   -0.5660   -0.4691 H   0  0  0  0  0  0  0  0  0  0  0  0
    0.7842   -0.3854    1.0862 H   0  0  0  0  0  0  0  0  0  0  0  0
    0.6472   -2.7823    1.8599 H   0  0  0  0  0  0  0  0  0  0  0  0
   -1.3324   -3.8138    1.7599 H   0  0  0  0  0  0  0  0  0  0  0  0
   -1.7192   -1.0841    2.8150 H   0  0  0  0  0  0  0  0  0  0  0  0
   -0.0702   -1.0545    3.4872 H   0  0  0  0  0  0  0  0  0  0  0  0
   -1.0858   -2.5060    3.6244 H   0  0  0  0  0  0  0  0  0  0  0  0
    0.0978   -0.9629   -1.7619 N   0  0  0  0  0  0  0  0  0  0  0  0
    0.5035   -1.2776   -3.1116 C   0  0  2  0  0  0  0  0  0  0  0  0
   -0.2271   -2.5436   -3.5393 C   0  0  0  0  0  0  0  0  0  0  0  0
   -0.6823   -3.3582   -2.7390 O   0  0  0  0  0  0  0  0  0  0  0  0
    2.0101   -1.4605   -3.2081 C   0  0  0  0  0  0  0  0  0  0  0  0
   -0.5926   -0.2318   -1.6176 H   0  0  0  0  0  0  0  0  0  0  0  0
    0.1835   -0.4402   -3.7414 H   0  0  0  0  0  0  0  0  0  0  0  0
    2.3493   -2.2951   -2.5837 H   0  0  0  0  0  0  0  0  0  0  0  0
    2.3191   -1.6708   -4.2373 H   0  0  0  0  0  0  0  0  0  0  0  0
    2.5344   -0.5594   -2.8720 H   0  0  0  0  0  0  0  0  0  0  0  0
   -0.2731   -2.6786   -4.9198 N   0  0  0  0  0  0  0  0  0  0  0  0
   -0.9015   -3.8032   -5.5727 C   0  0  0  0  0  0  0  0  0  0  0  0
    0.1135   -1.9452   -5.5067 H   0  0  0  0  0  0  0  0  0  0  0  0
   -0.1512   -4.5856   -5.7595 H   0  0  0  0  0  0  0  0  0  0  0  0
   -1.6965   -4.2045   -4.9270 H   0  0  0  0  0  0  0  0  0  0  0  0
   -1.3359   -3.4761   -6.5289 H   0  0  0  0  0  0  0  0  0  0  0  0
  1  3  1  0  0  0  0
  1  7  1  0  0  0  0
  1  2  2  0  0  0  0
 32 33  1  0  0  0  0
 33 41  1  0  0  0  0
 33 34  2  0  0  0  0
  8  9  1  0  0  0  0
  9 17  1  0  0  0  0
  9 10  2  0  0  0  0
 18 19  1  0  0  0  0
 19 31  1  0  0  0  0
 19 20  2  0  0  0  0
 32 35  1  0  0  0  0
  8 11  1  0  0  0  0
 21 23  1  0  0  0  0
 41 42  1  0  0  0  0
 31 32  1  0  0  0  0
  7  8  1  0  0  0  0
 18 21  1  0  0  0  0
 17 18  1  0  0  0  0
 21 22  1  0  0  0  0
  3  4  1  0  0  0  0
  3  5  1  0  0  0  0
  3  6  1  0  0  0  0
 35 38  1  0  0  0  0
 35 39  1  0  0  0  0
 35 40  1  0  0  0  0
 11 14  1  0  0  0  0
 11 15  1  0  0  0  0
 11 16  1  0  0  0  0
 23 28  1  0  0  0  0
 23 29  1  0  0  0  0
 23 30  1  0  0  0  0
 42 44  1  0  0  0  0
 42 45  1  0  0  0  0
 42 46  1  0  0  0  0
 32 37  1  0  0  0  0
  8 13  1  0  0  0  0
 18 25  1  0  0  0  0
 21 26  1  0  0  0  0
 41 43  1  0  0  0  0
  7 12  1  0  0  0  0
 31 36  1  0  0  0  0
 17 24  1  0  0  0  0
 22 27  1  0  0  0  0
M  END
$$$$

  -OEChem-05262214473D

 46 45  0     1  0  0  0  0  0999 V2000
   -4.6700    2.7214    1.5150 C   0  0  0  0  0  0  0  0  0  0  0  0
   -5.4532    2.5715    0.5845 O   0  0  0  0  0  0  0  0  0  0  0  0
   -5.0996    3.4865    2.7226 C   0  0  0  0  0  0  0  0  0  0  0  0
   -4.8796    4.5629    2.6387 H   0  0  0  0  0  0  0  0  0  0  0  0
   -6.1861    3.4241    2.8954 H   0  0  0  0  0  0  0  0  0  0  0  0
   -4.6369    3.1693    3.6708 H   0  0  0  0  0  0  0  0  0  0  0  0
   -3.3731    2.2391    1.5790 N   0  0  0  0  0  0  0  0  0  0  0  0
   -2.7599    1.4751    0.5247 C   0  0  2  0  0  0  0  0  0  0  0  0
   -1.5143    0.8067    1.0915 C   0  0  0  0  0  0  0  0  0  0  0  0
   -0.9247    1.2213    2.0872 O   0  0  0  0  0  0  0  0  0  0  0  0
   -2.4106    2.3553   -0.6653 C   0  0  0  0  0  0  0  0  0  0  0  0
   -2.8254    2.4352    2.4150 H   0  0  0  0  0  0  0  0  0  0  0  0
   -3.4836    0.7082    0.2278 H   0  0  0  0  0  0  0  0  0  0  0  0
   -1.6866    3.1298   -0.3871 H   0  0  0  0  0  0  0  0  0  0  0  0
   -1.9704    1.7677   -1.4777 H   0  0  0  0  0  0  0  0  0  0  0  0
   -3.3030    2.8584   -1.0531 H   0  0  0  0  0  0  0  0  0  0  0  0
   -1.1107   -0.2839    0.3303 N   0  0  0  0  0  0  0  0  0  0  0  0
    0.0490   -1.0750    0.6539 C   0  0  2  0  0  0  0  0  0  0  0  0
    0.6143   -1.6203   -0.6544 C   0  0  0  0  0  0  0  0  0  0  0  0
    1.2480   -2.6715   -0.7243 O   0  0  0  0  0  0  0  0  0  0  0  0
   -0.2593   -2.2028    1.6495 C   0  0  2  0  0  0  0  0  0  0  0  0
   -1.2219   -3.1056    1.1073 O   0  0  0  0  0  0  0  0  0  0  0  0
   -0.8087   -1.6733    2.9686 C   0  0  0  0  0  0  0  0  0  0  0  0
   -1.6733   -0.5660   -0.4691 H   0  0  0  0  0  0  0  0  0  0  0  0
    0.7842   -0.3854    1.0862 H   0  0  0  0  0  0  0  0  0  0  0  0
    0.6472   -2.7823    1.8599 H   0  0  0  0  0  0  0  0  0  0  0  0
   -1.3324   -3.8138    1.7599 H   0  0  0  0  0  0  0  0  0  0  0  0
   -1.7192   -1.0841    2.8150 H   0  0  0  0  0  0  0  0  0  0  0  0
   -0.0702   -1.0545    3.4872 H   0  0  0  0  0  0  0  0  0  0  0  0
   -1.0858   -2.5060    3.6244 H   0  0  0  0  0  0  0  0  0  0  0  0
    0.3703   -0.7709   -1.7242 N   0  0  0  0  0  0  0  0  0  0  0  0
    0.8351   -1.0527   -3.0621 C   0  0  2  0  0  0  0  0  0  0  0  0
   -0.1050   -2.0792   -3.6801 C   0  0  0  0  0  0  0  0  0  0  0  0
   -0.8066   -2.8348   -3.0108 O   0  0  0  0  0  0  0  0  0  0  0  0
    2.2677   -1.5631   -3.0541 C   0  0  0  0  0  0  0  0  0  0  0  0
   -0.1558    0.0824   -1.5599 H   0  0  0  0  0  0  0  0  0  0  0  0
    0.7717   -0.1140   -3.6232 H   0  0  0  0  0  0  0  0  0  0  0  0
    2.3510   -2.5030   -2.4964 H   0  0  0  0  0  0  0  0  0  0  0  0
    2.6282   -1.7492   -4.0711 H   0  0  0  0  0  0  0  0  0  0  0  0
    2.9377   -0.8362   -2.5824 H   0  0  0  0  0  0  0  0  0  0  0  0
   -0.0364   -2.0818   -5.0662 N   0  0  0  0  0  0  0  0  0  0  0  0
   -0.8234   -2.9749   -5.8841 C   0  0  0  0  0  0  0  0  0  0  0  0
    0.5589   -1.4076   -5.5383 H   0  0  0  0  0  0  0  0  0  0  0  0
   -0.2459   -3.8880   -6.0911 H   0  0  0  0  0  0  0  0  0  0  0  0
   -1.7490   -3.2395   -5.3519 H   0  0  0  0  0  0  0  0  0  0  0  0
   -1.0751   -2.4775   -6.8324 H   0  0  0  0  0  0  0  0  0  0  0  0
  1  3  1  0  0  0  0
  1  7  1  0  0  0  0
  1  2  2  0  0  0  0
 32 33  1  0  0  0  0
 33 41  1  0  0  0  0
 33 34  2  0  0  0  0
  8  9  1  0  0  0  0
  9 17  1  0  0  0  0
  9 10  2  0  0  0  0
 18 19  1  0  0  0  0
 19 31  1  0  0  0  0
 19 20  2  0  0  0  0
 32 35  1  0  0  0  0
  8 11  1  0  0  0  0
 21 23  1  0  0  0  0
 41 42  1  0  0  0  0
 31 32  1  0  0  0  0
  7  8  1  0  0  0  0
 18 21  1  0  0  0  0
 17 18  1  0  0  0  0
 21 22  1  0  0  0  0
  3  4  1  0  0  0  0
  3  5  1  0  0  0  0
  3  6  1  0  0  0  0
 35 38  1  0  0  0  0
 35 39  1  0  0  0  0
 35 40  1  0  0  0  0
 11 14  1  0  0  0  0
 11 15  1  0  0  0  0
 11 16  1  0  0  0  0
 23 28  1  0  0  0  0
 23 29  1  0  0  0  0
 23 30  1  0  0  0  0
 42 44  1  0  0  0  0
 42 45  1  0  0  0  0
 42 46  1  0  0  0  0
 32 37  1  0  0  0  0
  8 13  1  0  0  0  0
 18 25  1  0  0  0  0
 21 26  1  0  0  0  0
 41 43  1  0  0  0  0
  7 12  1  0  0  0  0
 31 36  1  0  0  0  0
 17 24  1  0  0  0  0
 22 27  1  0  0  0  0
M  END
$$$$

  -OEChem-05262214473D

 46 45  0     1  0  0  0  0  0999 V2000
   -4.6700    2.7214    1.5150 C   0  0  0  0  0  0  0  0  0  0  0  0
   -5.4532    2.5715    0.5845 O   0  0  0  0  0  0  0  0  0  0  0  0
   -5.0996    3.4865    2.7226 C   0  0  0  0  0  0  0  0  0  0  0  0
   -4.8796    4.5629    2.6387 H   0  0  0  0  0  0  0  0  0  0  0  0
   -6.1861    3.4241    2.8954 H   0  0  0  0  0  0  0  0  0  0  0  0
   -4.6369    3.1693    3.6708 H   0  0  0  0  0  0  0  0  0  0  0  0
   -3.3731    2.2391    1.5790 N   0  0  0  0  0  0  0  0  0  0  0  0
   -2.7599    1.4751    0.5247 C   0  0  2  0  0  0  0  0  0  0  0  0
   -1.5143    0.8067    1.0915 C   0  0  0  0  0  0  0  0  0  0  0  0
   -0.9247    1.2213    2.0872 O   0  0  0  0  0  0  0  0  0  0  0  0
   -2.4106    2.3553   -0.6653 C   0  0  0  0  0  0  0  0  0  0  0  0
   -2.8254    2.4352    2.4150 H   0  0  0  0  0  0  0  0  0  0  0  0
   -3.4836    0.7082    0.2278 H   0  0  0  0  0  0  0  0  0  0  0  0
   -1.6866    3.1298   -0.3871 H   0  0  0  0  0  0  0  0  0  0  0  0
   -1.9704    1.7677   -1.4777 H   0  0  0  0  0  0  0  0  0  0  0  0
   -3.3030    2.8584   -1.0531 H   0  0  0  0  0  0  0  0  0  0  0  0
   -1.1107   -0.2839    0.3303 N   0  0  0  0  0  0  0  0  0  0  0  0
    0.0490   -1.0750    0.6539 C   0  0  2  0  0  0  0  0  0  0  0  0
    0.6143   -1.6203   -0.6544 C   0  0  0  0  0  0  0  0  0  0  0  0
    1.0080   -2.7777   -0.7836 O   0  0  0  0  0  0  0  0  0  0  0  0
   -0.2593   -2.2028    1.6495 C   0  0  2  0  0  0  0  0  0  0  0  0
   -1.2219   -3.1056    1.1073 O   0  0  0  0  0  0  0  0  0  0  0  0
   -0.8087   -1.6733    2.9686 C   0  0  0  0  0  0  0  0  0  0  0  0
   -1.6733   -0.5660   -0.4691 H   0  0  0  0  0  0  0  0  0  0  0  0
    0.7842   -0.3854    1.0862 H   0  0  0  0  0  0  0  0  0  0  0  0
    0.6472   -2.7823    1.8599 H   0  0  0  0  0  0  0  0  0  0  0  0
   -1.3324   -3.8138    1.7599 H   0  0  0  0  0  0  0  0  0  0  0  0
   -1.7192   -1.0841    2.8150 H   0  0  0  0  0  0  0  0  0  0  0  0
   -0.0702   -1.0545    3.4872 H   0  0  0  0  0  0  0  0  0  0  0  0
   -1.0858   -2.5060    3.6244 H   0  0  0  0  0  0  0  0  0  0  0  0
    0.6727   -0.6495   -1.6442 N   0  0  0  0  0  0  0  0  0  0  0  0
    1.2008   -0.9139   -2.9619 C   0  0  2  0  0  0  0  0  0  0  0  0
    0.1290   -1.6442   -3.7603 C   0  0  0  0  0  0  0  0  0  0  0  0
   -0.7854   -2.2757   -3.2347 O   0  0  0  0  0  0  0  0  0  0  0  0
    2.4794   -1.7341   -2.8913 C   0  0  0  0  0  0  0  0  0  0  0  0
    0.3306    0.2835   -1.4335 H   0  0  0  0  0  0  0  0  0  0  0  0
    1.4012    0.0592   -3.4234 H   0  0  0  0  0  0  0  0  0  0  0  0
    2.2983   -2.7126   -2.4317 H   0  0  0  0  0  0  0  0  0  0  0  0
    2.8940   -1.9094   -3.8895 H   0  0  0  0  0  0  0  0  0  0  0  0
    3.2391   -1.2209   -2.2918 H   0  0  0  0  0  0  0  0  0  0  0  0
    0.3382   -1.5438   -5.1286 N   0  0  0  0  0  0  0  0  0  0  0  0
   -0.5353   -2.1624   -6.0983 C   0  0  0  0  0  0  0  0  0  0  0  0
    1.1113   -0.9841   -5.4761 H   0  0  0  0  0  0  0  0  0  0  0  0
   -0.1518   -3.1613   -6.3534 H   0  0  0  0  0  0  0  0  0  0  0  0
   -1.5462   -2.2550   -5.6746 H   0  0  0  0  0  0  0  0  0  0  0  0
   -0.5735   -1.5417   -7.0057 H   0  0  0  0  0  0  0  0  0  0  0  0
  1  3  1  0  0  0  0
  1  7  1  0  0  0  0
  1  2  2  0  0  0  0
 32 33  1  0  0  0  0
 33 41  1  0  0  0  0
 33 34  2  0  0  0  0
  8  9  1  0  0  0  0
  9 17  1  0  0  0  0
  9 10  2  0  0  0  0
 18 19  1  0  0  0  0
 19 31  1  0  0  0  0
 19 20  2  0  0  0  0
 32 35  1  0  0  0  0
  8 11  1  0  0  0  0
 21 23  1  0  0  0  0
 41 42  1  0  0  0  0
 31 32  1  0  0  0  0
  7  8  1  0  0  0  0
 18 21  1  0  0  0  0
 17 18  1  0  0  0  0
 21 22  1  0  0  0  0
  3  4  1  0  0  0  0
  3  5  1  0  0  0  0
  3  6  1  0  0  0  0
 35 38  1  0  0  0  0
 35 39  1  0  0  0  0
 35 40  1  0  0  0  0
 11 14  1  0  0  0  0
 11 15  1  0  0  0  0
 11 16  1  0  0  0  0
 23 28  1  0  0  0  0
 23 29  1  0  0  0  0
 23 30  1  0  0  0  0
 42 44  1  0  0  0  0
 42 45  1  0  0  0  0
 42 46  1  0  0  0  0
 32 37  1  0  0  0  0
  8 13  1  0  0  0  0
 18 25  1  0  0  0  0
 21 26  1  0  0  0  0
 41 43  1  0  0  0  0
  7 12  1  0  0  0  0
 31 36  1  0  0  0  0
 17 24  1  0  0  0  0
 22 27  1  0  0  0  0
M  END
$$$$

  -OEChem-05262214473D

 46 45  0     1  0  0  0  0  0999 V2000
   -4.6700    2.7214    1.5150 C   0  0  0  0  0  0  0  0  0  0  0  0
   -5.4532    2.5715    0.5845 O   0  0  0  0  0  0  0  0  0  0  0  0
   -5.0996    3.4865    2.7226 C   0  0  0  0  0  0  0  0  0  0  0  0
   -4.8796    4.5629    2.6387 H   0  0  0  0  0  0  0  0  0  0  0  0
   -6.1861    3.4241    2.8954 H   0  0  0  0  0  0  0  0  0  0  0  0
   -4.6369    3.1693    3.6708 H   0  0  0  0  0  0  0  0  0  0  0  0
   -3.3731    2.2391    1.5790 N   0  0  0  0  0  0  0  0  0  0  0  0
   -2.7599    1.4751    0.5247 C   0  0  2  0  0  0  0  0  0  0  0  0
   -1.5143    0.8067    1.0915 C   0  0  0  0  0  0  0  0  0  0  0  0
   -0.9247    1.2213    2.0872 O   0  0  0  0  0  0  0  0  0  0  0  0
   -2.4106    2.3553   -0.6653 C   0  0  0  0  0  0  0  0  0  0  0  0
   -2.8254    2.4352    2.4150 H   0  0  0  0  0  0  0  0  0  0  0  0
   -3.4836    0.7082    0.2278 H   0  0  0  0  0  0  0  0  0  0  0  0
   -1.6866    3.1298   -0.3871 H   0  0  0  0  0  0  0  0  0  0  0  0
   -1.9704    1.7677   -1.4777 H   0  0  0  0  0  0  0  0  0  0  0  0
   -3.3030    2.8584   -1.0531 H   0  0  0  0  0  0  0  0  0  0  0  0
   -1.1107   -0.2839    0.3303 N   0  0  0  0  0  0  0  0  0  0  0  0
    0.0490   -1.0750    0.6539 C   0  0  2  0  0  0  0  0  0  0  0  0
    0.6143   -1.6203   -0.6544 C   0  0  0  0  0  0  0  0  0  0  0  0
    0.7582   -2.8214   -0.8734 O   0  0  0  0  0  0  0  0  0  0  0  0
   -0.2593   -2.2028    1.6495 C   0  0  2  0  0  0  0  0  0  0  0  0
   -1.2219   -3.1056    1.1073 O   0  0  0  0  0  0  0  0  0  0  0  0
   -0.8087   -1.6733    2.9686 C   0  0  0  0  0  0  0  0  0  0  0  0
   -1.6733   -0.5660   -0.4691 H   0  0  0  0  0  0  0  0  0  0  0  0
    0.7842   -0.3854    1.0862 H   0  0  0  0  0  0  0  0  0  0  0  0
    0.6472   -2.7823    1.8599 H   0  0  0  0  0  0  0  0  0  0  0  0
   -1.3324   -3.8138    1.7599 H   0  0  0  0  0  0  0  0  0  0  0  0
   -1.7192   -1.0841    2.8150 H   0  0  0  0  0  0  0  0  0  0  0  0
   -0.0702   -1.0545    3.4872 H   0  0  0  0  0  0  0  0  0  0  0  0
   -1.0858   -2.5060    3.6244 H   0  0  0  0  0  0  0  0  0  0  0  0
    0.9843   -0.6070   -1.5272 N   0  0  0  0  0  0  0  0  0  0  0  0
    1.5755   -0.8705   -2.8181 C   0  0  2  0  0  0  0  0  0  0  0  0
    0.4589   -1.2682   -3.7744 C   0  0  0  0  0  0  0  0  0  0  0  0
   -0.6201   -1.7189   -3.3954 O   0  0  0  0  0  0  0  0  0  0  0  0
    2.6310   -1.9619   -2.7309 C   0  0  0  0  0  0  0  0  0  0  0  0
    0.8333    0.3577   -1.2473 H   0  0  0  0  0  0  0  0  0  0  0  0
    2.0293    0.0677   -3.1556 H   0  0  0  0  0  0  0  0  0  0  0  0
    2.1950   -2.9096   -2.3943 H   0  0  0  0  0  0  0  0  0  0  0  0
    3.0984   -2.1406   -3.7048 H   0  0  0  0  0  0  0  0  0  0  0  0
    3.4179   -1.6871   -2.0202 H   0  0  0  0  0  0  0  0  0  0  0  0
    0.8252   -1.1013   -5.1026 N   0  0  0  0  0  0  0  0  0  0  0  0
   -0.0569   -1.4209   -6.2007 C   0  0  0  0  0  0  0  0  0  0  0  0
    1.7332   -0.7036   -5.3244 H   0  0  0  0  0  0  0  0  0  0  0  0
    0.1245   -2.4551   -6.5284 H   0  0  0  0  0  0  0  0  0  0  0  0
   -1.1019   -1.3180   -5.8732 H   0  0  0  0  0  0  0  0  0  0  0  0
    0.1347   -0.7325   -7.0371 H   0  0  0  0  0  0  0  0  0  0  0  0
  1  3  1  0  0  0  0
  1  7  1  0  0  0  0
  1  2  2  0  0  0  0
 32 33  1  0  0  0  0
 33 41  1  0  0  0  0
 33 34  2  0  0  0  0
  8  9  1  0  0  0  0
  9 17  1  0  0  0  0
  9 10  2  0  0  0  0
 18 19  1  0  0  0  0
 19 31  1  0  0  0  0
 19 20  2  0  0  0  0
 32 35  1  0  0  0  0
  8 11  1  0  0  0  0
 21 23  1  0  0  0  0
 41 42  1  0  0  0  0
 31 32  1  0  0  0  0
  7  8  1  0  0  0  0
 18 21  1  0  0  0  0
 17 18  1  0  0  0  0
 21 22  1  0  0  0  0
  3  4  1  0  0  0  0
  3  5  1  0  0  0  0
  3  6  1  0  0  0  0
 35 38  1  0  0  0  0
 35 39  1  0  0  0  0
 35 40  1  0  0  0  0
 11 14  1  0  0  0  0
 11 15  1  0  0  0  0
 11 16  1  0  0  0  0
 23 28  1  0  0  0  0
 23 29  1  0  0  0  0
 23 30  1  0  0  0  0
 42 44  1  0  0  0  0
 42 45  1  0  0  0  0
 42 46  1  0  0  0  0
 32 37  1  0  0  0  0
  8 13  1  0  0  0  0
 18 25  1  0  0  0  0
 21 26  1  0  0  0  0
 41 43  1  0  0  0  0
  7 12  1  0  0  0  0
 31 36  1  0  0  0  0
 17 24  1  0  0  0  0
 22 27  1  0  0  0  0
M  END
$$$$

  -OEChem-05262214473D

 46 45  0     1  0  0  0  0  0999 V2000
   -4.6700    2.7214    1.5150 C   0  0  0  0  0  0  0  0  0  0  0  0
   -5.4532    2.5715    0.5845 O   0  0  0  0  0  0  0  0  0  0  0  0
   -5.0996    3.4865    2.7226 C   0  0  0  0  0  0  0  0  0  0  0  0
   -4.8796    4.5629    2.6387 H   0  0  0  0  0  0  0  0  0  0  0  0
   -6.1861    3.4241    2.8954 H   0  0  0  0  0  0  0  0  0  0  0  0
   -4.6369    3.1693    3.6708 H   0  0  0  0  0  0  0  0  0  0  0  0
   -3.3731    2.2391    1.5790 N   0  0  0  0  0  0  0  0  0  0  0  0
   -2.7599    1.4751    0.5247 C   0  0  2  0  0  0  0  0  0  0  0  0
   -1.5143    0.8067    1.0915 C   0  0  0  0  0  0  0  0  0  0  0  0
   -0.9247    1.2213    2.0872 O   0  0  0  0  0  0  0  0  0  0  0  0
   -2.4106    2.3553   -0.6653 C   0  0  0  0  0  0  0  0  0  0  0  0
   -2.8254    2.4352    2.4150 H   0  0  0  0  0  0  0  0  0  0  0  0
   -3.4836    0.7082    0.2278 H   0  0  0  0  0  0  0  0  0  0  0  0
   -1.6866    3.1298   -0.3871 H   0  0  0  0  0  0  0  0  0  0  0  0
   -1.9704    1.7677   -1.4777 H   0  0  0  0  0  0  0  0  0  0  0  0
   -3.3030    2.8584   -1.0531 H   0  0  0  0  0  0  0  0  0  0  0  0
   -1.1107   -0.2839    0.3303 N   0  0  0  0  0  0  0  0  0  0  0  0
    0.0490   -1.0750    0.6539 C   0  0  2  0  0  0  0  0  0  0  0  0
    0.6143   -1.6203   -0.6544 C   0  0  0  0  0  0  0  0  0  0  0  0
    0.5155   -2.7996   -0.9873 O   0  0  0  0  0  0  0  0  0  0  0  0
   -0.2593   -2.2028    1.6495 C   0  0  2  0  0  0  0  0  0  0  0  0
   -1.2219   -3.1056    1.1073 O   0  0  0  0  0  0  0  0  0  0  0  0
   -0.8087   -1.6733    2.9686 C   0  0  0  0  0  0  0  0  0  0  0  0
   -1.6733   -0.5660   -0.4691 H   0  0  0  0  0  0  0  0  0  0  0  0
    0.7842   -0.3854    1.0862 H   0  0  0  0  0  0  0  0  0  0  0  0
    0.6472   -2.7823    1.8599 H   0  0  0  0  0  0  0  0  0  0  0  0
   -1.3324   -3.8138    1.7599 H   0  0  0  0  0  0  0  0  0  0  0  0
   -1.7192   -1.0841    2.8150 H   0  0  0  0  0  0  0  0  0  0  0  0
   -0.0702   -1.0545    3.4872 H   0  0  0  0  0  0  0  0  0  0  0  0
   -1.0858   -2.5060    3.6244 H   0  0  0  0  0  0  0  0  0  0  0  0
    1.2839   -0.6463   -1.3814 N   0  0  0  0  0  0  0  0  0  0  0  0
    1.9338   -0.9256   -2.6403 C   0  0  2  0  0  0  0  0  0  0  0  0
    0.8624   -0.9770   -3.7215 C   0  0  0  0  0  0  0  0  0  0  0  0
   -0.3221   -1.2023   -3.4820 O   0  0  0  0  0  0  0  0  0  0  0  0
    2.7120   -2.2309   -2.5837 C   0  0  0  0  0  0  0  0  0  0  0  0
    1.3181    0.3000   -1.0137 H   0  0  0  0  0  0  0  0  0  0  0  0
    2.6131   -0.0892   -2.8380 H   0  0  0  0  0  0  0  0  0  0  0  0
    2.0480   -3.0805   -2.3866 H   0  0  0  0  0  0  0  0  0  0  0  0
    3.2274   -2.4269   -3.5297 H   0  0  0  0  0  0  0  0  0  0  0  0
    3.4621   -2.2032   -1.7860 H   0  0  0  0  0  0  0  0  0  0  0  0
    1.3914   -0.7844   -4.9901 N   0  0  0  0  0  0  0  0  0  0  0  0
    0.5792   -0.8010   -6.1842 C   0  0  0  0  0  0  0  0  0  0  0  0
    2.3821   -0.5852   -5.0934 H   0  0  0  0  0  0  0  0  0  0  0  0
    0.5643   -1.8176   -6.6041 H   0  0  0  0  0  0  0  0  0  0  0  0
   -0.4466   -0.4925   -5.9341 H   0  0  0  0  0  0  0  0  0  0  0  0
    1.0012   -0.1050   -6.9242 H   0  0  0  0  0  0  0  0  0  0  0  0
  1  3  1  0  0  0  0
  1  7  1  0  0  0  0
  1  2  2  0  0  0  0
 32 33  1  0  0  0  0
 33 41  1  0  0  0  0
 33 34  2  0  0  0  0
  8  9  1  0  0  0  0
  9 17  1  0  0  0  0
  9 10  2  0  0  0  0
 18 19  1  0  0  0  0
 19 31  1  0  0  0  0
 19 20  2  0  0  0  0
 32 35  1  0  0  0  0
  8 11  1  0  0  0  0
 21 23  1  0  0  0  0
 41 42  1  0  0  0  0
 31 32  1  0  0  0  0
  7  8  1  0  0  0  0
 18 21  1  0  0  0  0
 17 18  1  0  0  0  0
 21 22  1  0  0  0  0
  3  4  1  0  0  0  0
  3  5  1  0  0  0  0
  3  6  1  0  0  0  0
 35 38  1  0  0  0  0
 35 39  1  0  0  0  0
 35 40  1  0  0  0  0
 11 14  1  0  0  0  0
 11 15  1  0  0  0  0
 11 16  1  0  0  0  0
 23 28  1  0  0  0  0
 23 29  1  0  0  0  0
 23 30  1  0  0  0  0
 42 44  1  0  0  0  0
 42 45  1  0  0  0  0
 42 46  1  0  0  0  0
 32 37  1  0  0  0  0
  8 13  1  0  0  0  0
 18 25  1  0  0  0  0
 21 26  1  0  0  0  0
 41 43  1  0  0  0  0
  7 12  1  0  0  0  0
 31 36  1  0  0  0  0
 17 24  1  0  0  0  0
 22 27  1  0  0  0  0
M  END
$$$$

  -OEChem-05262214473D

 46 45  0     1  0  0  0  0  0999 V2000
   -4.6700    2.7214    1.5150 C   0  0  0  0  0  0  0  0  0  0  0  0
   -5.4532    2.5715    0.5845 O   0  0  0  0  0  0  0  0  0  0  0  0
   -5.0996    3.4865    2.7226 C   0  0  0  0  0  0  0  0  0  0  0  0
   -4.8796    4.5629    2.6387 H   0  0  0  0  0  0  0  0  0  0  0  0
   -6.1861    3.4241    2.8954 H   0  0  0  0  0  0  0  0  0  0  0  0
   -4.6369    3.1693    3.6708 H   0  0  0  0  0  0  0  0  0  0  0  0
   -3.3731    2.2391    1.5790 N   0  0  0  0  0  0  0  0  0  0  0  0
   -2.7599    1.4751    0.5247 C   0  0  2  0  0  0  0  0  0  0  0  0
   -1.5143    0.8067    1.0915 C   0  0  0  0  0  0  0  0  0  0  0  0
   -0.9247    1.2213    2.0872 O   0  0  0  0  0  0  0  0  0  0  0  0
   -2.4106    2.3553   -0.6653 C   0  0  0  0  0  0  0  0  0  0  0  0
   -2.8254    2.4352    2.4150 H   0  0  0  0  0  0  0  0  0  0  0  0
   -3.4836    0.7082    0.2278 H   0  0  0  0  0  0  0  0  0  0  0  0
   -1.6866    3.1298   -0.3871 H   0  0  0  0  0  0  0  0  0  0  0  0
   -1.9704    1.7677   -1.4777 H   0  0  0  0  0  0  0  0  0  0  0  0
   -3.3030    2.8584   -1.0531 H   0  0  0  0  0  0  0  0  0  0  0  0
   -1.1107   -0.2839    0.3303 N   0  0  0  0  0  0  0  0  0  0  0  0
    0.0490   -1.0750    0.6539 C   0  0  2  0  0  0  0  0  0  0  0  0
    0.6143   -1.6203   -0.6544 C   0  0  0  0  0  0  0  0  0  0  0  0
    0.2964   -2.7137   -1.1178 O   0  0  0  0  0  0  0  0  0  0  0  0
   -0.2593   -2.2028    1.6495 C   0  0  2  0  0  0  0  0  0  0  0  0
   -1.2219   -3.1056    1.1073 O   0  0  0  0  0  0  0  0  0  0  0  0
   -0.8087   -1.6733    2.9686 C   0  0  0  0  0  0  0  0  0  0  0  0
   -1.6733   -0.5660   -0.4691 H   0  0  0  0  0  0  0  0  0  0  0  0
    0.7842   -0.3854    1.0862 H   0  0  0  0  0  0  0  0  0  0  0  0
    0.6472   -2.7823    1.8599 H   0  0  0  0  0  0  0  0  0  0  0  0
   -1.3324   -3.8138    1.7599 H   0  0  0  0  0  0  0  0  0  0  0  0
   -1.7192   -1.0841    2.8150 H   0  0  0  0  0  0  0  0  0  0  0  0
   -0.0702   -1.0545    3.4872 H   0  0  0  0  0  0  0  0  0  0  0  0
   -1.0858   -2.5060    3.6244 H   0  0  0  0  0  0  0  0  0  0  0  0
    1.5510   -0.7647   -1.2166 N   0  0  0  0  0  0  0  0  0  0  0  0
    2.2512   -1.0753   -2.4408 C   0  0  2  0  0  0  0  0  0  0  0  0
    1.3118   -0.7902   -3.6052 C   0  0  0  0  0  0  0  0  0  0  0  0
    0.0885   -0.7611   -3.4885 O   0  0  0  0  0  0  0  0  0  0  0  0
    2.7169   -2.5229   -2.4599 C   0  0  0  0  0  0  0  0  0  0  0  0
    1.7520    0.1143   -0.7488 H   0  0  0  0  0  0  0  0  0  0  0  0
    3.1128   -0.4006   -2.4922 H   0  0  0  0  0  0  0  0  0  0  0  0
    1.8674   -3.2137   -2.4091 H   0  0  0  0  0  0  0  0  0  0  0  0
    3.2723   -2.7489   -3.3761 H   0  0  0  0  0  0  0  0  0  0  0  0
    3.3686   -2.7340   -1.6052 H   0  0  0  0  0  0  0  0  0  0  0  0
    1.9982   -0.6148   -4.7986 N   0  0  0  0  0  0  0  0  0  0  0  0
    1.3297   -0.3449   -6.0501 C   0  0  0  0  0  0  0  0  0  0  0  0
    3.0137   -0.6369   -4.7989 H   0  0  0  0  0  0  0  0  0  0  0  0
    1.1376   -1.2921   -6.5754 H   0  0  0  0  0  0  0  0  0  0  0  0
    0.3752    0.1652   -5.8532 H   0  0  0  0  0  0  0  0  0  0  0  0
    1.9671    0.2980   -6.6749 H   0  0  0  0  0  0  0  0  0  0  0  0
  1  3  1  0  0  0  0
  1  7  1  0  0  0  0
  1  2  2  0  0  0  0
 32 33  1  0  0  0  0
 33 41  1  0  0  0  0
 33 34  2  0  0  0  0
  8  9  1  0  0  0  0
  9 17  1  0  0  0  0
  9 10  2  0  0  0  0
 18 19  1  0  0  0  0
 19 31  1  0  0  0  0
 19 20  2  0  0  0  0
 32 35  1  0  0  0  0
  8 11  1  0  0  0  0
 21 23  1  0  0  0  0
 41 42  1  0  0  0  0
 31 32  1  0  0  0  0
  7  8  1  0  0  0  0
 18 21  1  0  0  0  0
 17 18  1  0  0  0  0
 21 22  1  0  0  0  0
  3  4  1  0  0  0  0
  3  5  1  0  0  0  0
  3  6  1  0  0  0  0
 35 38  1  0  0  0  0
 35 39  1  0  0  0  0
 35 40  1  0  0  0  0
 11 14  1  0  0  0  0
 11 15  1  0  0  0  0
 11 16  1  0  0  0  0
 23 28  1  0  0  0  0
 23 29  1  0  0  0  0
 23 30  1  0  0  0  0
 42 44  1  0  0  0  0
 42 45  1  0  0  0  0
 42 46  1  0  0  0  0
 32 37  1  0  0  0  0
  8 13  1  0  0  0  0
 18 25  1  0  0  0  0
 21 26  1  0  0  0  0
 41 43  1  0  0  0  0
  7 12  1  0  0  0  0
 31 36  1  0  0  0  0
 17 24  1  0  0  0  0
 22 27  1  0  0  0  0
M  END
$$$$

  -OEChem-05262214473D

 46 45  0     1  0  0  0  0  0999 V2000
   -4.6700    2.7214    1.5150 C   0  0  0  0  0  0  0  0  0  0  0  0
   -5.4532    2.5715    0.5845 O   0  0  0  0  0  0  0  0  0  0  0  0
   -5.0996    3.4865    2.7226 C   0  0  0  0  0  0  0  0  0  0  0  0
   -4.8796    4.5629    2.6387 H   0  0  0  0  0  0  0  0  0  0  0  0
   -6.1861    3.4241    2.8954 H   0  0  0  0  0  0  0  0  0  0  0  0
   -4.6369    3.1693    3.6708 H   0  0  0  0  0  0  0  0  0  0  0  0
   -3.3731    2.2391    1.5790 N   0  0  0  0  0  0  0  0  0  0  0  0
   -2.7599    1.4751    0.5247 C   0  0  2  0  0  0  0  0  0  0  0  0
   -1.5143    0.8067    1.0915 C   0  0  0  0  0  0  0  0  0  0  0  0
   -0.9247    1.2213    2.0872 O   0  0  0  0  0  0  0  0  0  0  0  0
   -2.4106    2.3553   -0.6653 C   0  0  0  0  0  0  0  0  0  0  0  0
   -2.8254    2.4352    2.4150 H   0  0  0  0  0  0  0  0  0  0  0  0
   -3.4836    0.7082    0.2278 H   0  0  0  0  0  0  0  0  0  0  0  0
   -1.6866    3.1298   -0.3871 H   0  0  0  0  0  0  0  0  0  0  0  0
   -1.9704    1.7677   -1.4777 H   0  0  0  0  0  0  0  0  0  0  0  0
   -3.3030    2.8584   -1.0531 H   0  0  0  0  0  0  0  0  0  0  0  0
   -1.1107   -0.2839    0.3303 N   0  0  0  0  0  0  0  0  0  0  0  0
    0.0490   -1.0750    0.6539 C   0  0  2  0  0  0  0  0  0  0  0  0
    0.6143   -1.6203   -0.6544 C   0  0  0  0  0  0  0  0  0  0  0  0
    0.1160   -2.5697   -1.2558 O   0  0  0  0  0  0  0  0  0  0  0  0
   -0.2593   -2.2028    1.6495 C   0  0  2  0  0  0  0  0  0  0  0  0
   -1.2219   -3.1056    1.1073 O   0  0  0  0  0  0  0  0  0  0  0  0
   -0.8087   -1.6733    2.9686 C   0  0  0  0  0  0  0  0  0  0  0  0
   -1.6733   -0.5660   -0.4691 H   0  0  0  0  0  0  0  0  0  0  0  0
    0.7842   -0.3854    1.0862 H   0  0  0  0  0  0  0  0  0  0  0  0
    0.6472   -2.7823    1.8599 H   0  0  0  0  0  0  0  0  0  0  0  0
   -1.3324   -3.8138    1.7599 H   0  0  0  0  0  0  0  0  0  0  0  0
   -1.7192   -1.0841    2.8150 H   0  0  0  0  0  0  0  0  0  0  0  0
   -0.0702   -1.0545    3.4872 H   0  0  0  0  0  0  0  0  0  0  0  0
   -1.0858   -2.5060    3.6244 H   0  0  0  0  0  0  0  0  0  0  0  0
    1.7676   -0.9542   -1.0441 N   0  0  0  0  0  0  0  0  0  0  0  0
    2.5062   -1.3095   -2.2330 C   0  0  2  0  0  0  0  0  0  0  0  0
    1.7767   -0.7207   -3.4333 C   0  0  0  0  0  0  0  0  0  0  0  0
    0.5835   -0.4255   -3.4145 O   0  0  0  0  0  0  0  0  0  0  0  0
    2.6454   -2.8178   -2.3679 C   0  0  0  0  0  0  0  0  0  0  0  0
    2.1054   -0.1868   -0.4706 H   0  0  0  0  0  0  0  0  0  0  0  0
    3.4943   -0.8456   -2.1419 H   0  0  0  0  0  0  0  0  0  0  0  0
    1.6655   -3.3002   -2.4603 H   0  0  0  0  0  0  0  0  0  0  0  0
    3.2300   -3.0846   -3.2545 H   0  0  0  0  0  0  0  0  0  0  0  0
    3.1437   -3.2432   -1.4901 H   0  0  0  0  0  0  0  0  0  0  0  0
    2.6043   -0.6039   -4.5412 N   0  0  0  0  0  0  0  0  0  0  0  0
    2.1434   -0.0838   -5.8073 C   0  0  0  0  0  0  0  0  0  0  0  0
    3.5852   -0.8553   -4.4609 H   0  0  0  0  0  0  0  0  0  0  0  0
    1.8053   -0.9144   -6.4443 H   0  0  0  0  0  0  0  0  0  0  0  0
    1.3075    0.6105   -5.6360 H   0  0  0  0  0  0  0  0  0  0  0  0
    2.9663    0.4491   -6.3061 H   0  0  0  0  0  0  0  0  0  0  0  0
  1  3  1  0  0  0  0
  1  7  1  0  0  0  0
  1  2  2  0  0  0  0
 32 33  1  0  0  0  0
 33 41  1  0  0  0  0
 33 34  2  0  0  0  0
  8  9  1  0  0  0  0
  9 17  1  0  0  0  0
  9 10  2  0  0  0  0
 18 19  1  0  0  0  0
 19 31  1  0  0  0  0
 19 20  2  0  0  0  0
 32 35  1  0  0  0  0
  8 11  1  0  0  0  0
 21 23  1  0  0  0  0
 41 42  1  0  0  0  0
 31 32  1  0  0  0  0
  7  8  1  0  0  0  0
 18 21  1  0  0  0  0
 17 18  1  0  0  0  0
 21 22  1  0  0  0  0
  3  4  1  0  0  0  0
  3  5  1  0  0  0  0
  3  6  1  0  0  0  0
 35 38  1  0  0  0  0
 35 39  1  0  0  0  0
 35 40  1  0  0  0  0
 11 14  1  0  0  0  0
 11 15  1  0  0  0  0
 11 16  1  0  0  0  0
 23 28  1  0  0  0  0
 23 29  1  0  0  0  0
 23 30  1  0  0  0  0
 42 44  1  0  0  0  0
 42 45  1  0  0  0  0
 42 46  1  0  0  0  0
 32 37  1  0  0  0  0
  8 13  1  0  0  0  0
 18 25  1  0  0  0  0
 21 26  1  0  0  0  0
 41 43  1  0  0  0  0
  7 12  1  0  0  0  0
 31 36  1  0  0  0  0
 17 24  1  0  0  0  0
 22 27  1  0  0  0  0
M  END
$$$$

  -OEChem-05262214473D

 46 45  0     1  0  0  0  0  0999 V2000
   -4.6700    2.7214    1.5150 C   0  0  0  0  0  0  0  0  0  0  0  0
   -5.4532    2.5715    0.5845 O   0  0  0  0  0  0  0  0  0  0  0  0
   -5.0996    3.4865    2.7226 C   0  0  0  0  0  0  0  0  0  0  0  0
   -4.8796    4.5629    2.6387 H   0  0  0  0  0  0  0  0  0  0  0  0
   -6.1861    3.4241    2.8954 H   0  0  0  0  0  0  0  0  0  0  0  0
   -4.6369    3.1693    3.6708 H   0  0  0  0  0  0  0  0  0  0  0  0
   -3.3731    2.2391    1.5790 N   0  0  0  0  0  0  0  0  0  0  0  0
   -2.7599    1.4751    0.5247 C   0  0  2  0  0  0  0  0  0  0  0  0
   -1.5143    0.8067    1.0915 C   0  0  0  0  0  0  0  0  0  0  0  0
   -0.9247    1.2213    2.0872 O   0  0  0  0  0  0  0  0  0  0  0  0
   -2.4106    2.3553   -0.6653 C   0  0  0  0  0  0  0  0  0  0  0  0
   -2.8254    2.4352    2.4150 H   0  0  0  0  0  0  0  0  0  0  0  0
   -3.4836    0.7082    0.2278 H   0  0  0  0  0  0  0  0  0  0  0  0
   -1.6866    3.1298   -0.3871 H   0  0  0  0  0  0  0  0  0  0  0  0
   -1.9704    1.7677   -1.4777 H   0  0  0  0  0  0  0  0  0  0  0  0
   -3.3030    2.8584   -1.0531 H   0  0  0  0  0  0  0  0  0  0  0  0
   -1.1107   -0.2839    0.3303 N   0  0  0  0  0  0  0  0  0  0  0  0
    0.0490   -1.0750    0.6539 C   0  0  2  0  0  0  0  0  0  0  0  0
    0.6143   -1.6203   -0.6544 C   0  0  0  0  0  0  0  0  0  0  0  0
   -0.0136   -2.3773   -1.3920 O   0  0  0  0  0  0  0  0  0  0  0  0
   -0.2593   -2.2028    1.6495 C   0  0  2  0  0  0  0  0  0  0  0  0
   -1.2219   -3.1056    1.1073 O   0  0  0  0  0  0  0  0  0  0  0  0
   -0.8087   -1.6733    2.9686 C   0  0  0  0  0  0  0  0  0  0  0  0
   -1.6733   -0.5660   -0.4691 H   0  0  0  0  0  0  0  0  0  0  0  0
    0.7842   -0.3854    1.0862 H   0  0  0  0  0  0  0  0  0  0  0  0
    0.6472   -2.7823    1.8599 H   0  0  0  0  0  0  0  0  0  0  0  0
   -1.3324   -3.8138    1.7599 H   0  0  0  0  0  0  0  0  0  0  0  0
   -1.7192   -1.0841    2.8150 H   0  0  0  0  0  0  0  0  0  0  0  0
   -0.0702   -1.0545    3.4872 H   0  0  0  0  0  0  0  0  0  0  0  0
   -1.0858   -2.5060    3.6244 H   0  0  0  0  0  0  0  0  0  0  0  0
    1.9188   -1.2018   -0.8755 N   0  0  0  0  0  0  0  0  0  0  0  0
    2.6812   -1.6122   -2.0312 C   0  0  2  0  0  0  0  0  0  0  0  0
    2.2252   -0.7732   -3.2176 C   0  0  0  0  0  0  0  0  0  0  0  0
    1.1293   -0.2182   -3.2650 O   0  0  0  0  0  0  0  0  0  0  0  0
    2.5024   -3.0957   -2.3138 C   0  0  0  0  0  0  0  0  0  0  0  0
    2.3542   -0.5827   -0.1981 H   0  0  0  0  0  0  0  0  0  0  0  0
    3.7318   -1.3936   -1.8109 H   0  0  0  0  0  0  0  0  0  0  0  0
    1.4560   -3.3339   -2.5367 H   0  0  0  0  0  0  0  0  0  0  0  0
    3.1034   -3.4112   -3.1730 H   0  0  0  0  0  0  0  0  0  0  0  0
    2.8029   -3.6963   -1.4485 H   0  0  0  0  0  0  0  0  0  0  0  0
    3.1683   -0.7526   -4.2356 N   0  0  0  0  0  0  0  0  0  0  0  0
    2.9648   -0.0354   -5.4726 C   0  0  0  0  0  0  0  0  0  0  0  0
    4.0574   -1.2255   -4.1026 H   0  0  0  0  0  0  0  0  0  0  0  0
    2.5219   -0.7104   -6.2197 H   0  0  0  0  0  0  0  0  0  0  0  0
    2.2868    0.8128   -5.2972 H   0  0  0  0  0  0  0  0  0  0  0  0
    3.9310    0.3380   -5.8430 H   0  0  0  0  0  0  0  0  0  0  0  0
  1  3  1  0  0  0  0
  1  7  1  0  0  0  0
  1  2  2  0  0  0  0
 32 33  1  0  0  0  0
 33 41  1  0  0  0  0
 33 34  2  0  0  0  0
  8  9  1  0  0  0  0
  9 17  1  0  0  0  0
  9 10  2  0  0  0  0
 18 19  1  0  0  0  0
 19 31  1  0  0  0  0
 19 20  2  0  0  0  0
 32 35  1  0  0  0  0
  8 11  1  0  0  0  0
 21 23  1  0  0  0  0
 41 42  1  0  0  0  0
 31 32  1  0  0  0  0
  7  8  1  0  0  0  0
 18 21  1  0  0  0  0
 17 18  1  0  0  0  0
 21 22  1  0  0  0  0
  3  4  1  0  0  0  0
  3  5  1  0  0  0  0
  3  6  1  0  0  0  0
 35 38  1  0  0  0  0
 35 39  1  0  0  0  0
 35 40  1  0  0  0  0
 11 14  1  0  0  0  0
 11 15  1  0  0  0  0
 11 16  1  0  0  0  0
 23 28  1  0  0  0  0
 23 29  1  0  0  0  0
 23 30  1  0  0  0  0
 42 44  1  0  0  0  0
 42 45  1  0  0  0  0
 42 46  1  0  0  0  0
 32 37  1  0  0  0  0
  8 13  1  0  0  0  0
 18 25  1  0  0  0  0
 21 26  1  0  0  0  0
 41 43  1  0  0  0  0
  7 12  1  0  0  0  0
 31 36  1  0  0  0  0
 17 24  1  0  0  0  0
 22 27  1  0  0  0  0
M  END
$$$$

  -OEChem-05262214473D

 46 45  0     1  0  0  0  0  0999 V2000
   -4.6700    2.7214    1.5150 C   0  0  0  0  0  0  0  0  0  0  0  0
   -5.4532    2.5715    0.5845 O   0  0  0  0  0  0  0  0  0  0  0  0
   -5.0996    3.4865    2.7226 C   0  0  0  0  0  0  0  0  0  0  0  0
   -4.8796    4.5629    2.6387 H   0  0  0  0  0  0  0  0  0  0  0  0
   -6.1861    3.4241    2.8954 H   0  0  0  0  0  0  0  0  0  0  0  0
   -4.6369    3.1693    3.6708 H   0  0  0  0  0  0  0  0  0  0  0  0
   -3.3731    2.2391    1.5790 N   0  0  0  0  0  0  0  0  0  0  0  0
   -2.7599    1.4751    0.5247 C   0  0  2  0  0  0  0  0  0  0  0  0
   -1.5143    0.8067    1.0915 C   0  0  0  0  0  0  0  0  0  0  0  0
   -0.9247    1.2213    2.0872 O   0  0  0  0  0  0  0  0  0  0  0  0
   -2.4106    2.3553   -0.6653 C   0  0  0  0  0  0  0  0  0  0  0  0
   -2.8254    2.4352    2.4150 H   0  0  0  0  0  0  0  0  0  0  0  0
   -3.4836    0.7082    0.2278 H   0  0  0  0  0  0  0  0  0  0  0  0
   -1.6866    3.1298   -0.3871 H   0  0  0  0  0  0  0  0  0  0  0  0
   -1.9704    1.7677   -1.4777 H   0  0  0  0  0  0  0  0  0  0  0  0
   -3.3030    2.8584   -1.0531 H   0  0  0  0  0  0  0  0  0  0  0  0
   -1.1107   -0.2839    0.3303 N   0  0  0  0  0  0  0  0  0  0  0  0
    0.0490   -1.0750    0.6539 C   0  0  2  0  0  0  0  0  0  0  0  0
    0.6143   -1.6203   -0.6544 C   0  0  0  0  0  0  0  0  0  0  0  0
   -0.0835   -2.1496   -1.5171 O   0  0  0  0  0  0  0  0  0  0  0  0
   -0.2593   -2.2028    1.6495 C   0  0  2  0  0  0  0  0  0  0  0  0
   -1.2219   -3.1056    1.1073 O   0  0  0  0  0  0  0  0  0  0  0  0
   -0.8087   -1.6733    2.9686 C   0  0  0  0  0  0  0  0  0  0  0  0
   -1.6733   -0.5660   -0.4691 H   0  0  0  0  0  0  0  0  0  0  0  0
    0.7842   -0.3854    1.0862 H   0  0  0  0  0  0  0  0  0  0  0  0
    0.6472   -2.7823    1.8599 H   0  0  0  0  0  0  0  0  0  0  0  0
   -1.3324   -3.8138    1.7599 H   0  0  0  0  0  0  0  0  0  0  0  0
   -1.7192   -1.0841    2.8150 H   0  0  0  0  0  0  0  0  0  0  0  0
   -0.0702   -1.0545    3.4872 H   0  0  0  0  0  0  0  0  0  0  0  0
   -1.0858   -2.5060    3.6244 H   0  0  0  0  0  0  0  0  0  0  0  0
    1.9942   -1.4907   -0.7225 N   0  0  0  0  0  0  0  0  0  0  0  0
    2.7645   -1.9628   -1.8491 C   0  0  2  0  0  0  0  0  0  0  0  0
    2.6268   -0.9441   -2.9729 C   0  0  0  0  0  0  0  0  0  0  0  0
    1.6887   -0.1534   -3.0503 O   0  0  0  0  0  0  0  0  0  0  0  0
    2.2976   -3.3376   -2.3015 C   0  0  0  0  0  0  0  0  0  0  0  0
    2.4815   -1.0465    0.0502 H   0  0  0  0  0  0  0  0  0  0  0  0
    3.8089   -2.0073   -1.5217 H   0  0  0  0  0  0  0  0  0  0  0  0
    1.2532   -3.3127   -2.6332 H   0  0  0  0  0  0  0  0  0  0  0  0
    2.9012   -3.7064   -3.1374 H   0  0  0  0  0  0  0  0  0  0  0  0
    2.3693   -4.0623   -1.4833 H   0  0  0  0  0  0  0  0  0  0  0  0
    3.6519   -1.0507   -3.9024 N   0  0  0  0  0  0  0  0  0  0  0  0
    3.7381   -0.2031   -5.0686 C   0  0  0  0  0  0  0  0  0  0  0  0
    4.3983   -1.7222   -3.7483 H   0  0  0  0  0  0  0  0  0  0  0  0
    3.2386   -0.6938   -5.9170 H   0  0  0  0  0  0  0  0  0  0  0  0
    3.2462    0.7585   -4.8600 H   0  0  0  0  0  0  0  0  0  0  0  0
    4.7952   -0.0279   -5.3171 H   0  0  0  0  0  0  0  0  0  0  0  0
  1  3  1  0  0  0  0
  1  7  1  0  0  0  0
  1  2  2  0  0  0  0
 32 33  1  0  0  0  0
 33 41  1  0  0  0  0
 33 34  2  0  0  0  0
  8  9  1  0  0  0  0
  9 17  1  0  0  0  0
  9 10  2  0  0  0  0
 18 19  1  0  0  0  0
 19 31  1  0  0  0  0
 19 20  2  0  0  0  0
 32 35  1  0  0  0  0
  8 11  1  0  0  0  0
 21 23  1  0  0  0  0
 41 42  1  0  0  0  0
 31 32  1  0  0  0  0
  7  8  1  0  0  0  0
 18 21  1  0  0  0  0
 17 18  1  0  0  0  0
 21 22  1  0  0  0  0
  3  4  1  0  0  0  0
  3  5  1  0  0  0  0
  3  6  1  0  0  0  0
 35 38  1  0  0  0  0
 35 39  1  0  0  0  0
 35 40  1  0  0  0  0
 11 14  1  0  0  0  0
 11 15  1  0  0  0  0
 11 16  1  0  0  0  0
 23 28  1  0  0  0  0
 23 29  1  0  0  0  0
 23 30  1  0  0  0  0
 42 44  1  0  0  0  0
 42 45  1  0  0  0  0
 42 46  1  0  0  0  0
 32 37  1  0  0  0  0
  8 13  1  0  0  0  0
 18 25  1  0  0  0  0
 21 26  1  0  0  0  0
 41 43  1  0  0  0  0
  7 12  1  0  0  0  0
 31 36  1  0  0  0  0
 17 24  1  0  0  0  0
 22 27  1  0  0  0  0
M  END
$$$$

  -OEChem-05262214473D

 46 45  0     1  0  0  0  0  0999 V2000
   -4.6700    2.7214    1.5150 C   0  0  0  0  0  0  0  0  0  0  0  0
   -5.4532    2.5715    0.5845 O   0  0  0  0  0  0  0  0  0  0  0  0
   -5.0996    3.4865    2.7226 C   0  0  0  0  0  0  0  0  0  0  0  0
   -4.8796    4.5629    2.6387 H   0  0  0  0  0  0  0  0  0  0  0  0
   -6.1861    3.4241    2.8954 H   0  0  0  0  0  0  0  0  0  0  0  0
   -4.6369    3.1693    3.6708 H   0  0  0  0  0  0  0  0  0  0  0  0
   -3.3731    2.2391    1.5790 N   0  0  0  0  0  0  0  0  0  0  0  0
   -2.7599    1.4751    0.5247 C   0  0  2  0  0  0  0  0  0  0  0  0
   -1.5143    0.8067    1.0915 C   0  0  0  0  0  0  0  0  0  0  0  0
   -0.9247    1.2213    2.0872 O   0  0  0  0  0  0  0  0  0  0  0  0
   -2.4106    2.3553   -0.6653 C   0  0  0  0  0  0  0  0  0  0  0  0
   -2.8254    2.4352    2.4150 H   0  0  0  0  0  0  0  0  0  0  0  0
   -3.4836    0.7082    0.2278 H   0  0  0  0  0  0  0  0  0  0  0  0
   -1.6866    3.1298   -0.3871 H   0  0  0  0  0  0  0  0  0  0  0  0
   -1.9704    1.7677   -1.4777 H   0  0  0  0  0  0  0  0  0  0  0  0
   -3.3030    2.8584   -1.0531 H   0  0  0  0  0  0  0  0  0  0  0  0
   -1.1107   -0.2839    0.3303 N   0  0  0  0  0  0  0  0  0  0  0  0
    0.0490   -1.0750    0.6539 C   0  0  2  0  0  0  0  0  0  0  0  0
    0.6143   -1.6203   -0.6544 C   0  0  0  0  0  0  0  0  0  0  0  0
   -0.0889   -1.9022   -1.6226 O   0  0  0  0  0  0  0  0  0  0  0  0
   -0.2593   -2.2028    1.6495 C   0  0  2  0  0  0  0  0  0  0  0  0
   -1.2219   -3.1056    1.1073 O   0  0  0  0  0  0  0  0  0  0  0  0
   -0.8087   -1.6733    2.9686 C   0  0  0  0  0  0  0  0  0  0  0  0
   -1.6733   -0.5660   -0.4691 H   0  0  0  0  0  0  0  0  0  0  0  0
    0.7842   -0.3854    1.0862 H   0  0  0  0  0  0  0  0  0  0  0  0
    0.6472   -2.7823    1.8599 H   0  0  0  0  0  0  0  0  0  0  0  0
   -1.3324   -3.8138    1.7599 H   0  0  0  0  0  0  0  0  0  0  0  0
   -1.7192   -1.0841    2.8150 H   0  0  0  0  0  0  0  0  0  0  0  0
   -0.0702   -1.0545    3.4872 H   0  0  0  0  0  0  0  0  0  0  0  0
   -1.0858   -2.5060    3.6244 H   0  0  0  0  0  0  0  0  0  0  0  0
    1.9889   -1.8012   -0.5954 N   0  0  0  0  0  0  0  0  0  0  0  0
    2.7502   -2.3373   -1.6991 C   0  0  2  0  0  0  0  0  0  0  0  0
    2.9542   -1.2218   -2.7157 C   0  0  0  0  0  0  0  0  0  0  0  0
    2.2236   -0.2356   -2.7850 O   0  0  0  0  0  0  0  0  0  0  0  0
    2.0450   -3.5269   -2.3317 C   0  0  0  0  0  0  0  0  0  0  0  0
    2.4786   -1.5465    0.2574 H   0  0  0  0  0  0  0  0  0  0  0  0
    3.7205   -2.6450   -1.2942 H   0  0  0  0  0  0  0  0  0  0  0  0
    1.0709   -3.2380   -2.7431 H   0  0  0  0  0  0  0  0  0  0  0  0
    2.6370   -3.9500   -3.1500 H   0  0  0  0  0  0  0  0  0  0  0  0
    1.8725   -4.3162   -1.5921 H   0  0  0  0  0  0  0  0  0  0  0  0
    4.0220   -1.4779   -3.5644 N   0  0  0  0  0  0  0  0  0  0  0  0
    4.4104   -0.5753   -4.6230 C   0  0  0  0  0  0  0  0  0  0  0  0
    4.5846   -2.3115   -3.4221 H   0  0  0  0  0  0  0  0  0  0  0  0
    3.9066   -0.8659   -5.5566 H   0  0  0  0  0  0  0  0  0  0  0  0
    4.1205    0.4512   -4.3542 H   0  0  0  0  0  0  0  0  0  0  0  0
    5.5002   -0.6235   -4.7642 H   0  0  0  0  0  0  0  0  0  0  0  0
  1  3  1  0  0  0  0
  1  7  1  0  0  0  0
  1  2  2  0  0  0  0
 32 33  1  0  0  0  0
 33 41  1  0  0  0  0
 33 34  2  0  0  0  0
  8  9  1  0  0  0  0
  9 17  1  0  0  0  0
  9 10  2  0  0  0  0
 18 19  1  0  0  0  0
 19 31  1  0  0  0  0
 19 20  2  0  0  0  0
 32 35  1  0  0  0  0
  8 11  1  0  0  0  0
 21 23  1  0  0  0  0
 41 42  1  0  0  0  0
 31 32  1  0  0  0  0
  7  8  1  0  0  0  0
 18 21  1  0  0  0  0
 17 18  1  0  0  0  0
 21 22  1  0  0  0  0
  3  4  1  0  0  0  0
  3  5  1  0  0  0  0
  3  6  1  0  0  0  0
 35 38  1  0  0  0  0
 35 39  1  0  0  0  0
 35 40  1  0  0  0  0
 11 14  1  0  0  0  0
 11 15  1  0  0  0  0
 11 16  1  0  0  0  0
 23 28  1  0  0  0  0
 23 29  1  0  0  0  0
 23 30  1  0  0  0  0
 42 44  1  0  0  0  0
 42 45  1  0  0  0  0
 42 46  1  0  0  0  0
 32 37  1  0  0  0  0
  8 13  1  0  0  0  0
 18 25  1  0  0  0  0
 21 26  1  0  0  0  0
 41 43  1  0  0  0  0
  7 12  1  0  0  0  0
 31 36  1  0  0  0  0
 17 24  1  0  0  0  0
 22 27  1  0  0  0  0
M  END
$$$$

  -OEChem-05262214473D

 46 45  0     1  0  0  0  0  0999 V2000
   -4.6700    2.7214    1.5150 C   0  0  0  0  0  0  0  0  0  0  0  0
   -5.4532    2.5715    0.5845 O   0  0  0  0  0  0  0  0  0  0  0  0
   -5.0996    3.4865    2.7226 C   0  0  0  0  0  0  0  0  0  0  0  0
   -4.8796    4.5629    2.6387 H   0  0  0  0  0  0  0  0  0  0  0  0
   -6.1861    3.4241    2.8954 H   0  0  0  0  0  0  0  0  0  0  0  0
   -4.6369    3.1693    3.6708 H   0  0  0  0  0  0  0  0  0  0  0  0
   -3.3731    2.2391    1.5790 N   0  0  0  0  0  0  0  0  0  0  0  0
   -2.7599    1.4751    0.5247 C   0  0  2  0  0  0  0  0  0  0  0  0
   -1.5143    0.8067    1.0915 C   0  0  0  0  0  0  0  0  0  0  0  0
   -0.9247    1.2213    2.0872 O   0  0  0  0  0  0  0  0  0  0  0  0
   -2.4106    2.3553   -0.6653 C   0  0  0  0  0  0  0  0  0  0  0  0
   -2.8254    2.4352    2.4150 H   0  0  0  0  0  0  0  0  0  0  0  0
   -3.4836    0.7082    0.2278 H   0  0  0  0  0  0  0  0  0  0  0  0
   -1.6866    3.1298   -0.3871 H   0  0  0  0  0  0  0  0  0  0  0  0
   -1.9704    1.7677   -1.4777 H   0  0  0  0  0  0  0  0  0  0  0  0
   -3.3030    2.8584   -1.0531 H   0  0  0  0  0  0  0  0  0  0  0  0
   -1.1107   -0.2839    0.3303 N   0  0  0  0  0  0  0  0  0  0  0  0
    0.0490   -1.0750    0.6539 C   0  0  2  0  0  0  0  0  0  0  0  0
    0.6143   -1.6203   -0.6544 C   0  0  0  0  0  0  0  0  0  0  0  0
   -0.0295   -1.6518   -1.7012 O   0  0  0  0  0  0  0  0  0  0  0  0
   -0.2593   -2.2028    1.6495 C   0  0  2  0  0  0  0  0  0  0  0  0
   -1.2219   -3.1056    1.1073 O   0  0  0  0  0  0  0  0  0  0  0  0
   -0.8087   -1.6733    2.9686 C   0  0  0  0  0  0  0  0  0  0  0  0
   -1.6733   -0.5660   -0.4691 H   0  0  0  0  0  0  0  0  0  0  0  0
    0.7842   -0.3854    1.0862 H   0  0  0  0  0  0  0  0  0  0  0  0
    0.6472   -2.7823    1.8599 H   0  0  0  0  0  0  0  0  0  0  0  0
   -1.3324   -3.8138    1.7599 H   0  0  0  0  0  0  0  0  0  0  0  0
   -1.7192   -1.0841    2.8150 H   0  0  0  0  0  0  0  0  0  0  0  0
   -0.0702   -1.0545    3.4872 H   0  0  0  0  0  0  0  0  0  0  0  0
   -1.0858   -2.5060    3.6244 H   0  0  0  0  0  0  0  0  0  0  0  0
    1.9031   -2.1121   -0.5029 N   0  0  0  0  0  0  0  0  0  0  0  0
    2.6395   -2.7104   -1.5915 C   0  0  2  0  0  0  0  0  0  0  0  0
    3.1850   -1.5873   -2.4636 C   0  0  0  0  0  0  0  0  0  0  0  0
    2.6974   -0.4591   -2.4871 O   0  0  0  0  0  0  0  0  0  0  0  0
    1.7617   -3.6509   -2.4024 C   0  0  0  0  0  0  0  0  0  0  0  0
    2.3456   -2.0487    0.4092 H   0  0  0  0  0  0  0  0  0  0  0  0
    3.4725   -3.2632   -1.1436 H   0  0  0  0  0  0  0  0  0  0  0  0
    0.9216   -3.1149   -2.8589 H   0  0  0  0  0  0  0  0  0  0  0  0
    2.3289   -4.1255   -3.2100 H   0  0  0  0  0  0  0  0  0  0  0  0
    1.3463   -4.4409   -1.7675 H   0  0  0  0  0  0  0  0  0  0  0  0
    4.2534   -2.0050   -3.2447 N   0  0  0  0  0  0  0  0  0  0  0  0
    4.9360   -1.1268   -4.1660 C   0  0  0  0  0  0  0  0  0  0  0  0
    4.6035   -2.9534   -3.1464 H   0  0  0  0  0  0  0  0  0  0  0  0
    4.4803   -1.2149   -5.1633 H   0  0  0  0  0  0  0  0  0  0  0  0
    4.8500   -0.0881   -3.8142 H   0  0  0  0  0  0  0  0  0  0  0  0
    5.9979   -1.4082   -4.2221 H   0  0  0  0  0  0  0  0  0  0  0  0
  1  3  1  0  0  0  0
  1  7  1  0  0  0  0
  1  2  2  0  0  0  0
 32 33  1  0  0  0  0
 33 41  1  0  0  0  0
 33 34  2  0  0  0  0
  8  9  1  0  0  0  0
  9 17  1  0  0  0  0
  9 10  2  0  0  0  0
 18 19  1  0  0  0  0
 19 31  1  0  0  0  0
 19 20  2  0  0  0  0
 32 35  1  0  0  0  0
  8 11  1  0  0  0  0
 21 23  1  0  0  0  0
 41 42  1  0  0  0  0
 31 32  1  0  0  0  0
  7  8  1  0  0  0  0
 18 21  1  0  0  0  0
 17 18  1  0  0  0  0
 21 22  1  0  0  0  0
  3  4  1  0  0  0  0
  3  5  1  0  0  0  0
  3  6  1  0  0  0  0
 35 38  1  0  0  0  0
 35 39  1  0  0  0  0
 35 40  1  0  0  0  0
 11 14  1  0  0  0  0
 11 15  1  0  0  0  0
 11 16  1  0  0  0  0
 23 28  1  0  0  0  0
 23 29  1  0  0  0  0
 23 30  1  0  0  0  0
 42 44  1  0  0  0  0
 42 45  1  0  0  0  0
 42 46  1  0  0  0  0
 32 37  1  0  0  0  0
  8 13  1  0  0  0  0
 18 25  1  0  0  0  0
 21 26  1  0  0  0  0
 41 43  1  0  0  0  0
  7 12  1  0  0  0  0
 31 36  1  0  0  0  0
 17 24  1  0  0  0  0
 22 27  1  0  0  0  0
M  END
$$$$

  -OEChem-05262214473D

 46 45  0     1  0  0  0  0  0999 V2000
   -4.6700    2.7214    1.5150 C   0  0  0  0  0  0  0  0  0  0  0  0
   -5.4532    2.5715    0.5845 O   0  0  0  0  0  0  0  0  0  0  0  0
   -5.0996    3.4865    2.7226 C   0  0  0  0  0  0  0  0  0  0  0  0
   -4.8796    4.5629    2.6387 H   0  0  0  0  0  0  0  0  0  0  0  0
   -6.1861    3.4241    2.8954 H   0  0  0  0  0  0  0  0  0  0  0  0
   -4.6369    3.1693    3.6708 H   0  0  0  0  0  0  0  0  0  0  0  0
   -3.3731    2.2391    1.5790 N   0  0  0  0  0  0  0  0  0  0  0  0
   -2.7599    1.4751    0.5247 C   0  0  2  0  0  0  0  0  0  0  0  0
   -1.5143    0.8067    1.0915 C   0  0  0  0  0  0  0  0  0  0  0  0
   -0.9247    1.2213    2.0872 O   0  0  0  0  0  0  0  0  0  0  0  0
   -2.4106    2.3553   -0.6653 C   0  0  0  0  0  0  0  0  0  0  0  0
   -2.8254    2.4352    2.4150 H   0  0  0  0  0  0  0  0  0  0  0  0
   -3.4836    0.7082    0.2278 H   0  0  0  0  0  0  0  0  0  0  0  0
   -1.6866    3.1298   -0.3871 H   0  0  0  0  0  0  0  0  0  0  0  0
   -1.9704    1.7677   -1.4777 H   0  0  0  0  0  0  0  0  0  0  0  0
   -3.3030    2.8584   -1.0531 H   0  0  0  0  0  0  0  0  0  0  0  0
   -1.1107   -0.2839    0.3303 N   0  0  0  0  0  0  0  0  0  0  0  0
    0.0490   -1.0750    0.6539 C   0  0  2  0  0  0  0  0  0  0  0  0
    0.8253   -1.3049   -0.6396 C   0  0  0  0  0  0  0  0  0  0  0  0
    0.4417   -0.8953   -1.7333 O   0  0  0  0  0  0  0  0  0  0  0  0
   -0.3084   -2.4009    1.3413 C   0  0  2  0  0  0  0  0  0  0  0  0
   -1.1197   -3.2084    0.4896 O   0  0  0  0  0  0  0  0  0  0  0  0
   -1.0693   -2.1880    2.6444 C   0  0  0  0  0  0  0  0  0  0  0  0
   -1.6733   -0.5660   -0.4691 H   0  0  0  0  0  0  0  0  0  0  0  0
    0.6662   -0.4620    1.3220 H   0  0  0  0  0  0  0  0  0  0  0  0
    0.6010   -2.9722    1.5611 H   0  0  0  0  0  0  0  0  0  0  0  0
   -1.2658   -4.0432    0.9601 H   0  0  0  0  0  0  0  0  0  0  0  0
   -1.9912   -1.6194    2.4811 H   0  0  0  0  0  0  0  0  0  0  0  0
   -0.4555   -1.6623    3.3820 H   0  0  0  0  0  0  0  0  0  0  0  0
   -1.3713   -3.1522    3.0679 H   0  0  0  0  0  0  0  0  0  0  0  0
    1.9697   -2.0628   -0.4353 N   0  0  0  0  0  0  0  0  0  0  0  0
    2.8536   -2.4414   -1.5127 C   0  0  2  0  0  0  0  0  0  0  0  0
    3.7260   -1.2394   -1.8498 C   0  0  0  0  0  0  0  0  0  0  0  0
    3.4070   -0.0828   -1.5818 O   0  0  0  0  0  0  0  0  0  0  0  0
    2.0724   -2.9052   -2.7323 C   0  0  0  0  0  0  0  0  0  0  0  0
    2.1944   -2.3628    0.5088 H   0  0  0  0  0  0  0  0  0  0  0  0
    3.4822   -3.2551   -1.1349 H   0  0  0  0  0  0  0  0  0  0  0  0
    1.4367   -2.1032   -3.1249 H   0  0  0  0  0  0  0  0  0  0  0  0
    2.7442   -3.2189   -3.5381 H   0  0  0  0  0  0  0  0  0  0  0  0
    1.4232   -3.7508   -2.4808 H   0  0  0  0  0  0  0  0  0  0  0  0
    4.8824   -1.6064   -2.5236 N   0  0  0  0  0  0  0  0  0  0  0  0
    5.8667   -0.6454   -2.9636 C   0  0  0  0  0  0  0  0  0  0  0  0
    5.0748   -2.5904   -2.6867 H   0  0  0  0  0  0  0  0  0  0  0  0
    5.6458   -0.3404   -3.9971 H   0  0  0  0  0  0  0  0  0  0  0  0
    5.8370    0.2366   -2.3069 H   0  0  0  0  0  0  0  0  0  0  0  0
    6.8674   -1.1002   -2.9216 H   0  0  0  0  0  0  0  0  0  0  0  0
  1  3  1  0  0  0  0
  1  7  1  0  0  0  0
  1  2  2  0  0  0  0
 32 33  1  0  0  0  0
 33 41  1  0  0  0  0
 33 34  2  0  0  0  0
  8  9  1  0  0  0  0
  9 17  1  0  0  0  0
  9 10  2  0  0  0  0
 18 19  1  0  0  0  0
 19 31  1  0  0  0  0
 19 20  2  0  0  0  0
 32 35  1  0  0  0  0
  8 11  1  0  0  0  0
 21 23  1  0  0  0  0
 41 42  1  0  0  0  0
 31 32  1  0  0  0  0
  7  8  1  0  0  0  0
 18 21  1  0  0  0  0
 17 18  1  0  0  0  0
 21 22  1  0  0  0  0
  3  4  1  0  0  0  0
  3  5  1  0  0  0  0
  3  6  1  0  0  0  0
 35 38  1  0  0  0  0
 35 39  1  0  0  0  0
 35 40  1  0  0  0  0
 11 14  1  0  0  0  0
 11 15  1  0  0  0  0
 11 16  1  0  0  0  0
 23 28  1  0  0  0  0
 23 29  1  0  0  0  0
 23 30  1  0  0  0  0
 42 44  1  0  0  0  0
 42 45  1  0  0  0  0
 42 46  1  0  0  0  0
 32 37  1  0  0  0  0
  8 13  1  0  0  0  0
 18 25  1  0  0  0  0
 21 26  1  0  0  0  0
 41 43  1  0  0  0  0
  7 12  1  0  0  0  0
 31 36  1  0  0  0  0
 17 24  1  0  0  0  0
 22 27  1  0  0  0  0
M  END
$$$$

  -OEChem-05262214473D

 46 45  0     1  0  0  0  0  0999 V2000
   -4.6700    2.7214    1.5150 C   0  0  0  0  0  0  0  0  0  0  0  0
   -5.4532    2.5715    0.5845 O   0  0  0  0  0  0  0  0  0  0  0  0
   -5.0996    3.4865    2.7226 C   0  0  0  0  0  0  0  0  0  0  0  0
   -4.8796    4.5629    2.6387 H   0  0  0  0  0  0  0  0  0  0  0  0
   -6.1861    3.4241    2.8954 H   0  0  0  0  0  0  0  0  0  0  0  0
   -4.6369    3.1693    3.6708 H   0  0  0  0  0  0  0  0  0  0  0  0
   -3.3731    2.2391    1.5790 N   0  0  0  0  0  0  0  0  0  0  0  0
   -2.7599    1.4751    0.5247 C   0  0  2  0  0  0  0  0  0  0  0  0
   -1.5143    0.8067    1.0915 C   0  0  0  0  0  0  0  0  0  0  0  0
   -0.9247    1.2213    2.0872 O   0  0  0  0  0  0  0  0  0  0  0  0
   -2.4106    2.3553   -0.6653 C   0  0  0  0  0  0  0  0  0  0  0  0
   -2.8254    2.4352    2.4150 H   0  0  0  0  0  0  0  0  0  0  0  0
   -3.4836    0.7082    0.2278 H   0  0  0  0  0  0  0  0  0  0  0  0
   -1.6866    3.1298   -0.3871 H   0  0  0  0  0  0  0  0  0  0  0  0
   -1.9704    1.7677   -1.4777 H   0  0  0  0  0  0  0  0  0  0  0  0
   -3.3030    2.8584   -1.0531 H   0  0  0  0  0  0  0  0  0  0  0  0
   -1.1107   -0.2839    0.3303 N   0  0  0  0  0  0  0  0  0  0  0  0
    0.0490   -1.0750    0.6539 C   0  0  2  0  0  0  0  0  0  0  0  0
    0.8253   -1.3049   -0.6396 C   0  0  0  0  0  0  0  0  0  0  0  0
    0.5989   -0.6846   -1.6765 O   0  0  0  0  0  0  0  0  0  0  0  0
   -0.3084   -2.4009    1.3413 C   0  0  2  0  0  0  0  0  0  0  0  0
   -1.1197   -3.2084    0.4896 O   0  0  0  0  0  0  0  0  0  0  0  0
   -1.0693   -2.1880    2.6444 C   0  0  0  0  0  0  0  0  0  0  0  0
   -1.6733   -0.5660   -0.4691 H   0  0  0  0  0  0  0  0  0  0  0  0
    0.6662   -0.4620    1.3220 H   0  0  0  0  0  0  0  0  0  0  0  0
    0.6010   -2.9722    1.5611 H   0  0  0  0  0  0  0  0  0  0  0  0
   -1.2658   -4.0432    0.9601 H   0  0  0  0  0  0  0  0  0  0  0  0
   -1.9912   -1.6194    2.4811 H   0  0  0  0  0  0  0  0  0  0  0  0
   -0.4555   -1.6623    3.3820 H   0  0  0  0  0  0  0  0  0  0  0  0
   -1.3713   -3.1522    3.0679 H   0  0  0  0  0  0  0  0  0  0  0  0
    1.7656   -2.3176   -0.5126 N   0  0  0  0  0  0  0  0  0  0  0  0
    2.6029   -2.7426   -1.6096 C   0  0  2  0  0  0  0  0  0  0  0  0
    3.7319   -1.7314   -1.7588 C   0  0  0  0  0  0  0  0  0  0  0  0
    3.6573   -0.5767   -1.3438 O   0  0  0  0  0  0  0  0  0  0  0  0
    1.8064   -2.8623   -2.8996 C   0  0  0  0  0  0  0  0  0  0  0  0
    1.8689   -2.7777    0.3871 H   0  0  0  0  0  0  0  0  0  0  0  0
    3.0190   -3.7169   -1.3309 H   0  0  0  0  0  0  0  0  0  0  0  0
    1.3817   -1.8959   -3.1948 H   0  0  0  0  0  0  0  0  0  0  0  0
    2.4365   -3.2121   -3.7240 H   0  0  0  0  0  0  0  0  0  0  0  0
    0.9768   -3.5677   -2.7813 H   0  0  0  0  0  0  0  0  0  0  0  0
    4.8158   -2.2572   -2.4479 N   0  0  0  0  0  0  0  0  0  0  0  0
    6.0071   -1.4906   -2.7291 C   0  0  0  0  0  0  0  0  0  0  0  0
    4.7987   -3.2303   -2.7386 H   0  0  0  0  0  0  0  0  0  0  0  0
    5.9134   -1.0152   -3.7166 H   0  0  0  0  0  0  0  0  0  0  0  0
    6.1341   -0.7150   -1.9594 H   0  0  0  0  0  0  0  0  0  0  0  0
    6.8817   -2.1578   -2.7250 H   0  0  0  0  0  0  0  0  0  0  0  0
  1  3  1  0  0  0  0
  1  7  1  0  0  0  0
  1  2  2  0  0  0  0
 32 33  1  0  0  0  0
 33 41  1  0  0  0  0
 33 34  2  0  0  0  0
  8  9  1  0  0  0  0
  9 17  1  0  0  0  0
  9 10  2  0  0  0  0
 18 19  1  0  0  0  0
 19 31  1  0  0  0  0
 19 20  2  0  0  0  0
 32 35  1  0  0  0  0
  8 11  1  0  0  0  0
 21 23  1  0  0  0  0
 41 42  1  0  0  0  0
 31 32  1  0  0  0  0
  7  8  1  0  0  0  0
 18 21  1  0  0  0  0
 17 18  1  0  0  0  0
 21 22  1  0  0  0  0
  3  4  1  0  0  0  0
  3  5  1  0  0  0  0
  3  6  1  0  0  0  0
 35 38  1  0  0  0  0
 35 39  1  0  0  0  0
 35 40  1  0  0  0  0
 11 14  1  0  0  0  0
 11 15  1  0  0  0  0
 11 16  1  0  0  0  0
 23 28  1  0  0  0  0
 23 29  1  0  0  0  0
 23 30  1  0  0  0  0
 42 44  1  0  0  0  0
 42 45  1  0  0  0  0
 42 46  1  0  0  0  0
 32 37  1  0  0  0  0
  8 13  1  0  0  0  0
 18 25  1  0  0  0  0
 21 26  1  0  0  0  0
 41 43  1  0  0  0  0
  7 12  1  0  0  0  0
 31 36  1  0  0  0  0
 17 24  1  0  0  0  0
 22 27  1  0  0  0  0
M  END
$$$$

  -OEChem-05262214473D

 46 45  0     1  0  0  0  0  0999 V2000
   -4.6700    2.7214    1.5150 C   0  0  0  0  0  0  0  0  0  0  0  0
   -5.4532    2.5715    0.5845 O   0  0  0  0  0  0  0  0  0  0  0  0
   -5.0996    3.4865    2.7226 C   0  0  0  0  0  0  0  0  0  0  0  0
   -4.8796    4.5629    2.6387 H   0  0  0  0  0  0  0  0  0  0  0  0
   -6.1861    3.4241    2.8954 H   0  0  0  0  0  0  0  0  0  0  0  0
   -4.6369    3.1693    3.6708 H   0  0  0  0  0  0  0  0  0  0  0  0
   -3.3731    2.2391    1.5790 N   0  0  0  0  0  0  0  0  0  0  0  0
   -2.7599    1.4751    0.5247 C   0  0  2  0  0  0  0  0  0  0  0  0
   -1.5143    0.8067    1.0915 C   0  0  0  0  0  0  0  0  0  0  0  0
   -0.9247    1.2213    2.0872 O   0  0  0  0  0  0  0  0  0  0  0  0
   -2.4106    2.3553   -0.6653 C   0  0  0  0  0  0  0  0  0  0  0  0
   -2.8254    2.4352    2.4150 H   0  0  0  0  0  0  0  0  0  0  0  0
   -3.4836    0.7082    0.2278 H   0  0  0  0  0  0  0  0  0  0  0  0
   -1.6866    3.1298   -0.3871 H   0  0  0  0  0  0  0  0  0  0  0  0
   -1.9704    1.7677   -1.4777 H   0  0  0  0  0  0  0  0  0  0  0  0
   -3.3030    2.8584   -1.0531 H   0  0  0  0  0  0  0  0  0  0  0  0
   -1.1107   -0.2839    0.3303 N   0  0  0  0  0  0  0  0  0  0  0  0
    0.0490   -1.0750    0.6539 C   0  0  2  0  0  0  0  0  0  0  0  0
    0.8253   -1.3049   -0.6396 C   0  0  0  0  0  0  0  0  0  0  0  0
    0.7948   -0.5230   -1.5876 O   0  0  0  0  0  0  0  0  0  0  0  0
   -0.3084   -2.4009    1.3413 C   0  0  2  0  0  0  0  0  0  0  0  0
   -1.1197   -3.2084    0.4896 O   0  0  0  0  0  0  0  0  0  0  0  0
   -1.0693   -2.1880    2.6444 C   0  0  0  0  0  0  0  0  0  0  0  0
   -1.6733   -0.5660   -0.4691 H   0  0  0  0  0  0  0  0  0  0  0  0
    0.6662   -0.4620    1.3220 H   0  0  0  0  0  0  0  0  0  0  0  0
    0.6010   -2.9722    1.5611 H   0  0  0  0  0  0  0  0  0  0  0  0
   -1.2658   -4.0432    0.9601 H   0  0  0  0  0  0  0  0  0  0  0  0
   -1.9912   -1.6194    2.4811 H   0  0  0  0  0  0  0  0  0  0  0  0
   -0.4555   -1.6623    3.3820 H   0  0  0  0  0  0  0  0  0  0  0  0
   -1.3713   -3.1522    3.0679 H   0  0  0  0  0  0  0  0  0  0  0  0
    1.5155   -2.5088   -0.6287 N   0  0  0  0  0  0  0  0  0  0  0  0
    2.2984   -2.9659   -1.7527 C   0  0  2  0  0  0  0  0  0  0  0  0
    3.6261   -2.2200   -1.7354 C   0  0  0  0  0  0  0  0  0  0  0  0
    3.7815   -1.1400   -1.1692 O   0  0  0  0  0  0  0  0  0  0  0  0
    1.5653   -2.7405   -3.0659 C   0  0  0  0  0  0  0  0  0  0  0  0
    1.4681   -3.0911    0.2023 H   0  0  0  0  0  0  0  0  0  0  0  0
    2.4778   -4.0356   -1.5990 H   0  0  0  0  0  0  0  0  0  0  0  0
    1.3767   -1.6744   -3.2372 H   0  0  0  0  0  0  0  0  0  0  0  0
    2.1480   -3.1136   -3.9146 H   0  0  0  0  0  0  0  0  0  0  0  0
    0.5974   -3.2533   -3.0649 H   0  0  0  0  0  0  0  0  0  0  0  0
    4.6057   -2.8811   -2.4631 N   0  0  0  0  0  0  0  0  0  0  0  0
    5.9482   -2.3688   -2.6083 C   0  0  0  0  0  0  0  0  0  0  0  0
    4.3937   -3.7810   -2.8838 H   0  0  0  0  0  0  0  0  0  0  0  0
    6.0129   -1.7626   -3.5240 H   0  0  0  0  0  0  0  0  0  0  0  0
    6.1987   -1.7452   -1.7375 H   0  0  0  0  0  0  0  0  0  0  0  0
    6.6558   -3.2084   -2.6739 H   0  0  0  0  0  0  0  0  0  0  0  0
  1  3  1  0  0  0  0
  1  7  1  0  0  0  0
  1  2  2  0  0  0  0
 32 33  1  0  0  0  0
 33 41  1  0  0  0  0
 33 34  2  0  0  0  0
  8  9  1  0  0  0  0
  9 17  1  0  0  0  0
  9 10  2  0  0  0  0
 18 19  1  0  0  0  0
 19 31  1  0  0  0  0
 19 20  2  0  0  0  0
 32 35  1  0  0  0  0
  8 11  1  0  0  0  0
 21 23  1  0  0  0  0
 41 42  1  0  0  0  0
 31 32  1  0  0  0  0
  7  8  1  0  0  0  0
 18 21  1  0  0  0  0
 17 18  1  0  0  0  0
 21 22  1  0  0  0  0
  3  4  1  0  0  0  0
  3  5  1  0  0  0  0
  3  6  1  0  0  0  0
 35 38  1  0  0  0  0
 35 39  1  0  0  0  0
 35 40  1  0  0  0  0
 11 14  1  0  0  0  0
 11 15  1  0  0  0  0
 11 16  1  0  0  0  0
 23 28  1  0  0  0  0
 23 29  1  0  0  0  0
 23 30  1  0  0  0  0
 42 44  1  0  0  0  0
 42 45  1  0  0  0  0
 42 46  1  0  0  0  0
 32 37  1  0  0  0  0
  8 13  1  0  0  0  0
 18 25  1  0  0  0  0
 21 26  1  0  0  0  0
 41 43  1  0  0  0  0
  7 12  1  0  0  0  0
 31 36  1  0  0  0  0
 17 24  1  0  0  0  0
 22 27  1  0  0  0  0
M  END
$$$$

  -OEChem-05262214473D

 46 45  0     1  0  0  0  0  0999 V2000
   -4.6700    2.7214    1.5150 C   0  0  0  0  0  0  0  0  0  0  0  0
   -5.4532    2.5715    0.5845 O   0  0  0  0  0  0  0  0  0  0  0  0
   -5.0996    3.4865    2.7226 C   0  0  0  0  0  0  0  0  0  0  0  0
   -4.8796    4.5629    2.6387 H   0  0  0  0  0  0  0  0  0  0  0  0
   -6.1861    3.4241    2.8954 H   0  0  0  0  0  0  0  0  0  0  0  0
   -4.6369    3.1693    3.6708 H   0  0  0  0  0  0  0  0  0  0  0  0
   -3.3731    2.2391    1.5790 N   0  0  0  0  0  0  0  0  0  0  0  0
   -2.7599    1.4751    0.5247 C   0  0  2  0  0  0  0  0  0  0  0  0
   -1.5143    0.8067    1.0915 C   0  0  0  0  0  0  0  0  0  0  0  0
   -0.9247    1.2213    2.0872 O   0  0  0  0  0  0  0  0  0  0  0  0
   -2.4106    2.3553   -0.6653 C   0  0  0  0  0  0  0  0  0  0  0  0
   -2.8254    2.4352    2.4150 H   0  0  0  0  0  0  0  0  0  0  0  0
   -3.4836    0.7082    0.2278 H   0  0  0  0  0  0  0  0  0  0  0  0
   -1.6866    3.1298   -0.3871 H   0  0  0  0  0  0  0  0  0  0  0  0
   -1.9704    1.7677   -1.4777 H   0  0  0  0  0  0  0  0  0  0  0  0
   -3.3030    2.8584   -1.0531 H   0  0  0  0  0  0  0  0  0  0  0  0
   -1.1107   -0.2839    0.3303 N   0  0  0  0  0  0  0  0  0  0  0  0
    0.0490   -1.0750    0.6539 C   0  0  2  0  0  0  0  0  0  0  0  0
    0.8253   -1.3049   -0.6396 C   0  0  0  0  0  0  0  0  0  0  0  0
    1.0160   -0.4215   -1.4729 O   0  0  0  0  0  0  0  0  0  0  0  0
   -0.3084   -2.4009    1.3413 C   0  0  2  0  0  0  0  0  0  0  0  0
   -1.1197   -3.2084    0.4896 O   0  0  0  0  0  0  0  0  0  0  0  0
   -1.0693   -2.1880    2.6444 C   0  0  0  0  0  0  0  0  0  0  0  0
   -1.6733   -0.5660   -0.4691 H   0  0  0  0  0  0  0  0  0  0  0  0
    0.6662   -0.4620    1.3220 H   0  0  0  0  0  0  0  0  0  0  0  0
    0.6010   -2.9722    1.5611 H   0  0  0  0  0  0  0  0  0  0  0  0
   -1.2658   -4.0432    0.9601 H   0  0  0  0  0  0  0  0  0  0  0  0
   -1.9912   -1.6194    2.4811 H   0  0  0  0  0  0  0  0  0  0  0  0
   -0.4555   -1.6623    3.3820 H   0  0  0  0  0  0  0  0  0  0  0  0
   -1.3713   -3.1522    3.0679 H   0  0  0  0  0  0  0  0  0  0  0  0
    1.2365   -2.6233   -0.7757 N   0  0  0  0  0  0  0  0  0  0  0  0
    1.9609   -3.0959   -1.9321 C   0  0  2  0  0  0  0  0  0  0  0  0
    3.4159   -2.6717   -1.7813 C   0  0  0  0  0  0  0  0  0  0  0  0
    3.7710   -1.7343   -1.0698 O   0  0  0  0  0  0  0  0  0  0  0  0
    1.3657   -2.5481   -3.2199 C   0  0  0  0  0  0  0  0  0  0  0  0
    1.0195   -3.2815   -0.0331 H   0  0  0  0  0  0  0  0  0  0  0  0
    1.8957   -4.1893   -1.9211 H   0  0  0  0  0  0  0  0  0  0  0  0
    1.4222   -1.4538   -3.2491 H   0  0  0  0  0  0  0  0  0  0  0  0
    1.8983   -2.9300   -4.0971 H   0  0  0  0  0  0  0  0  0  0  0  0
    0.3111   -2.8290   -3.3122 H   0  0  0  0  0  0  0  0  0  0  0  0
    4.2664   -3.4357   -2.5682 N   0  0  0  0  0  0  0  0  0  0  0  0
    5.6939   -3.2200   -2.6097 C   0  0  0  0  0  0  0  0  0  0  0  0
    3.8873   -4.2050   -3.1123 H   0  0  0  0  0  0  0  0  0  0  0  0
    5.9375   -2.5318   -3.4325 H   0  0  0  0  0  0  0  0  0  0  0  0
    6.0266   -2.7836   -1.6563 H   0  0  0  0  0  0  0  0  0  0  0  0
    6.2052   -4.1804   -2.7715 H   0  0  0  0  0  0  0  0  0  0  0  0
  1  3  1  0  0  0  0
  1  7  1  0  0  0  0
  1  2  2  0  0  0  0
 32 33  1  0  0  0  0
 33 41  1  0  0  0  0
 33 34  2  0  0  0  0
  8  9  1  0  0  0  0
  9 17  1  0  0  0  0
  9 10  2  0  0  0  0
 18 19  1  0  0  0  0
 19 31  1  0  0  0  0
 19 20  2  0  0  0  0
 32 35  1  0  0  0  0
  8 11  1  0  0  0  0
 21 23  1  0  0  0  0
 41 42  1  0  0  0  0
 31 32  1  0  0  0  0
  7  8  1  0  0  0  0
 18 21  1  0  0  0  0
 17 18  1  0  0  0  0
 21 22  1  0  0  0  0
  3  4  1  0  0  0  0
  3  5  1  0  0  0  0
  3  6  1  0  0  0  0
 35 38  1  0  0  0  0
 35 39  1  0  0  0  0
 35 40  1  0  0  0  0
 11 14  1  0  0  0  0
 11 15  1  0  0  0  0
 11 16  1  0  0  0  0
 23 28  1  0  0  0  0
 23 29  1  0  0  0  0
 23 30  1  0  0  0  0
 42 44  1  0  0  0  0
 42 45  1  0  0  0  0
 42 46  1  0  0  0  0
 32 37  1  0  0  0  0
  8 13  1  0  0  0  0
 18 25  1  0  0  0  0
 21 26  1  0  0  0  0
 41 43  1  0  0  0  0
  7 12  1  0  0  0  0
 31 36  1  0  0  0  0
 17 24  1  0  0  0  0
 22 27  1  0  0  0  0
M  END
$$$$

  -OEChem-05262214473D

 46 45  0     1  0  0  0  0  0999 V2000
   -4.6700    2.7214    1.5150 C   0  0  0  0  0  0  0  0  0  0  0  0
   -5.4532    2.5715    0.5845 O   0  0  0  0  0  0  0  0  0  0  0  0
   -5.0996    3.4865    2.7226 C   0  0  0  0  0  0  0  0  0  0  0  0
   -4.8796    4.5629    2.6387 H   0  0  0  0  0  0  0  0  0  0  0  0
   -6.1861    3.4241    2.8954 H   0  0  0  0  0  0  0  0  0  0  0  0
   -4.6369    3.1693    3.6708 H   0  0  0  0  0  0  0  0  0  0  0  0
   -3.3731    2.2391    1.5790 N   0  0  0  0  0  0  0  0  0  0  0  0
   -2.7599    1.4751    0.5247 C   0  0  2  0  0  0  0  0  0  0  0  0
   -1.5143    0.8067    1.0915 C   0  0  0  0  0  0  0  0  0  0  0  0
   -0.9247    1.2213    2.0872 O   0  0  0  0  0  0  0  0  0  0  0  0
   -2.4106    2.3553   -0.6653 C   0  0  0  0  0  0  0  0  0  0  0  0
   -2.8254    2.4352    2.4150 H   0  0  0  0  0  0  0  0  0  0  0  0
   -3.4836    0.7082    0.2278 H   0  0  0  0  0  0  0  0  0  0  0  0
   -1.6866    3.1298   -0.3871 H   0  0  0  0  0  0  0  0  0  0  0  0
   -1.9704    1.7677   -1.4777 H   0  0  0  0  0  0  0  0  0  0  0  0
   -3.3030    2.8584   -1.0531 H   0  0  0  0  0  0  0  0  0  0  0  0
   -1.1107   -0.2839    0.3303 N   0  0  0  0  0  0  0  0  0  0  0  0
    0.0490   -1.0750    0.6539 C   0  0  2  0  0  0  0  0  0  0  0  0
    0.8253   -1.3049   -0.6396 C   0  0  0  0  0  0  0  0  0  0  0  0
    1.2474   -0.3872   -1.3401 O   0  0  0  0  0  0  0  0  0  0  0  0
   -0.3084   -2.4009    1.3413 C   0  0  2  0  0  0  0  0  0  0  0  0
   -1.1197   -3.2084    0.4896 O   0  0  0  0  0  0  0  0  0  0  0  0
   -1.0693   -2.1880    2.6444 C   0  0  0  0  0  0  0  0  0  0  0  0
   -1.6733   -0.5660   -0.4691 H   0  0  0  0  0  0  0  0  0  0  0  0
    0.6662   -0.4620    1.3220 H   0  0  0  0  0  0  0  0  0  0  0  0
    0.6010   -2.9722    1.5611 H   0  0  0  0  0  0  0  0  0  0  0  0
   -1.2658   -4.0432    0.9601 H   0  0  0  0  0  0  0  0  0  0  0  0
   -1.9912   -1.6194    2.4811 H   0  0  0  0  0  0  0  0  0  0  0  0
   -0.4555   -1.6623    3.3820 H   0  0  0  0  0  0  0  0  0  0  0  0
   -1.3713   -3.1522    3.0679 H   0  0  0  0  0  0  0  0  0  0  0  0
    0.9477   -2.6533   -0.9438 N   0  0  0  0  0  0  0  0  0  0  0  0
    1.6134   -3.1238   -2.1357 C   0  0  2  0  0  0  0  0  0  0  0  0
    3.1155   -3.0560   -1.8933 C   0  0  0  0  0  0  0  0  0  0  0  0
    3.6266   -2.3192   -1.0525 O   0  0  0  0  0  0  0  0  0  0  0  0
    1.2211   -2.2981   -3.3511 C   0  0  0  0  0  0  0  0  0  0  0  0
    0.5536   -3.3360   -0.3031 H   0  0  0  0  0  0  0  0  0  0  0  0
    1.3122   -4.1678   -2.2751 H   0  0  0  0  0  0  0  0  0  0  0  0
    1.5149   -1.2491   -3.2298 H   0  0  0  0  0  0  0  0  0  0  0  0
    1.7046   -2.6739   -4.2589 H   0  0  0  0  0  0  0  0  0  0  0  0
    0.1372   -2.3238   -3.5064 H   0  0  0  0  0  0  0  0  0  0  0  0
    3.8212   -3.8831   -2.7559 N   0  0  0  0  0  0  0  0  0  0  0  0
    5.2616   -3.9862   -2.7329 C   0  0  0  0  0  0  0  0  0  0  0  0
    3.3141   -4.4734   -3.4087 H   0  0  0  0  0  0  0  0  0  0  0  0
    5.6924   -3.2702   -3.4483 H   0  0  0  0  0  0  0  0  0  0  0  0
    5.6292   -3.7596   -1.7212 H   0  0  0  0  0  0  0  0  0  0  0  0
    5.5605   -5.0075   -3.0115 H   0  0  0  0  0  0  0  0  0  0  0  0
  1  3  1  0  0  0  0
  1  7  1  0  0  0  0
  1  2  2  0  0  0  0
 32 33  1  0  0  0  0
 33 41  1  0  0  0  0
 33 34  2  0  0  0  0
  8  9  1  0  0  0  0
  9 17  1  0  0  0  0
  9 10  2  0  0  0  0
 18 19  1  0  0  0  0
 19 31  1  0  0  0  0
 19 20  2  0  0  0  0
 32 35  1  0  0  0  0
  8 11  1  0  0  0  0
 21 23  1  0  0  0  0
 41 42  1  0  0  0  0
 31 32  1  0  0  0  0
  7  8  1  0  0  0  0
 18 21  1  0  0  0  0
 17 18  1  0  0  0  0
 21 22  1  0  0  0  0
  3  4  1  0  0  0  0
  3  5  1  0  0  0  0
  3  6  1  0  0  0  0
 35 38  1  0  0  0  0
 35 39  1  0  0  0  0
 35 40  1  0  0  0  0
 11 14  1  0  0  0  0
 11 15  1  0  0  0  0
 11 16  1  0  0  0  0
 23 28  1  0  0  0  0
 23 29  1  0  0  0  0
 23 30  1  0  0  0  0
 42 44  1  0  0  0  0
 42 45  1  0  0  0  0
 42 46  1  0  0  0  0
 32 37  1  0  0  0  0
  8 13  1  0  0  0  0
 18 25  1  0  0  0  0
 21 26  1  0  0  0  0
 41 43  1  0  0  0  0
  7 12  1  0  0  0  0
 31 36  1  0  0  0  0
 17 24  1  0  0  0  0
 22 27  1  0  0  0  0
M  END
$$$$

  -OEChem-05262214473D

 46 45  0     1  0  0  0  0  0999 V2000
   -4.6700    2.7214    1.5150 C   0  0  0  0  0  0  0  0  0  0  0  0
   -5.4532    2.5715    0.5845 O   0  0  0  0  0  0  0  0  0  0  0  0
   -5.0996    3.4865    2.7226 C   0  0  0  0  0  0  0  0  0  0  0  0
   -4.8796    4.5629    2.6387 H   0  0  0  0  0  0  0  0  0  0  0  0
   -6.1861    3.4241    2.8954 H   0  0  0  0  0  0  0  0  0  0  0  0
   -4.6369    3.1693    3.6708 H   0  0  0  0  0  0  0  0  0  0  0  0
   -3.3731    2.2391    1.5790 N   0  0  0  0  0  0  0  0  0  0  0  0
   -2.7599    1.4751    0.5247 C   0  0  2  0  0  0  0  0  0  0  0  0
   -1.5143    0.8067    1.0915 C   0  0  0  0  0  0  0  0  0  0  0  0
   -0.9247    1.2213    2.0872 O   0  0  0  0  0  0  0  0  0  0  0  0
   -2.4106    2.3553   -0.6653 C   0  0  0  0  0  0  0  0  0  0  0  0
   -2.8254    2.4352    2.4150 H   0  0  0  0  0  0  0  0  0  0  0  0
   -3.4836    0.7082    0.2278 H   0  0  0  0  0  0  0  0  0  0  0  0
   -1.6866    3.1298   -0.3871 H   0  0  0  0  0  0  0  0  0  0  0  0
   -1.9704    1.7677   -1.4777 H   0  0  0  0  0  0  0  0  0  0  0  0
   -3.3030    2.8584   -1.0531 H   0  0  0  0  0  0  0  0  0  0  0  0
   -1.1107   -0.2839    0.3303 N   0  0  0  0  0  0  0  0  0  0  0  0
    0.0490   -1.0750    0.6539 C   0  0  2  0  0  0  0  0  0  0  0  0
    0.8253   -1.3049   -0.6396 C   0  0  0  0  0  0  0  0  0  0  0  0
    1.4733   -0.4222   -1.1983 O   0  0  0  0  0  0  0  0  0  0  0  0
   -0.3084   -2.4009    1.3413 C   0  0  2  0  0  0  0  0  0  0  0  0
   -1.1197   -3.2084    0.4896 O   0  0  0  0  0  0  0  0  0  0  0  0
   -1.0693   -2.1880    2.6444 C   0  0  0  0  0  0  0  0  0  0  0  0
   -1.6733   -0.5660   -0.4691 H   0  0  0  0  0  0  0  0  0  0  0  0
    0.6662   -0.4620    1.3220 H   0  0  0  0  0  0  0  0  0  0  0  0
    0.6010   -2.9722    1.5611 H   0  0  0  0  0  0  0  0  0  0  0  0
   -1.2658   -4.0432    0.9601 H   0  0  0  0  0  0  0  0  0  0  0  0
   -1.9912   -1.6194    2.4811 H   0  0  0  0  0  0  0  0  0  0  0  0
   -0.4555   -1.6623    3.3820 H   0  0  0  0  0  0  0  0  0  0  0  0
   -1.3713   -3.1522    3.0679 H   0  0  0  0  0  0  0  0  0  0  0  0
    0.6686   -2.5969   -1.1213 N   0  0  0  0  0  0  0  0  0  0  0  0
    1.2796   -3.0477   -2.3496 C   0  0  2  0  0  0  0  0  0  0  0  0
    2.7454   -3.3464   -2.0638 C   0  0  0  0  0  0  0  0  0  0  0  0
    3.3582   -2.8547   -1.1184 O   0  0  0  0  0  0  0  0  0  0  0  0
    1.1414   -2.0077   -3.4505 C   0  0  0  0  0  0  0  0  0  0  0  0
    0.1021   -3.2509   -0.5891 H   0  0  0  0  0  0  0  0  0  0  0  0
    0.7671   -3.9723   -2.6370 H   0  0  0  0  0  0  0  0  0  0  0  0
    1.6487   -1.0743   -3.1806 H   0  0  0  0  0  0  0  0  0  0  0  0
    1.5800   -2.3627   -4.3890 H   0  0  0  0  0  0  0  0  0  0  0  0
    0.0876   -1.7722   -3.6342 H   0  0  0  0  0  0  0  0  0  0  0  0
    3.3003   -4.1929   -3.0134 N   0  0  0  0  0  0  0  0  0  0  0  0
    4.6807   -4.6152   -2.9697 C   0  0  0  0  0  0  0  0  0  0  0  0
    2.7131   -4.5678   -3.7526 H   0  0  0  0  0  0  0  0  0  0  0  0
    5.2943   -3.9277   -3.5704 H   0  0  0  0  0  0  0  0  0  0  0  0
    5.0339   -4.6066   -1.9280 H   0  0  0  0  0  0  0  0  0  0  0  0
    4.7656   -5.6334   -3.3773 H   0  0  0  0  0  0  0  0  0  0  0  0
  1  3  1  0  0  0  0
  1  7  1  0  0  0  0
  1  2  2  0  0  0  0
 32 33  1  0  0  0  0
 33 41  1  0  0  0  0
 33 34  2  0  0  0  0
  8  9  1  0  0  0  0
  9 17  1  0  0  0  0
  9 10  2  0  0  0  0
 18 19  1  0  0  0  0
 19 31  1  0  0  0  0
 19 20  2  0  0  0  0
 32 35  1  0  0  0  0
  8 11  1  0  0  0  0
 21 23  1  0  0  0  0
 41 42  1  0  0  0  0
 31 32  1  0  0  0  0
  7  8  1  0  0  0  0
 18 21  1  0  0  0  0
 17 18  1  0  0  0  0
 21 22  1  0  0  0  0
  3  4  1  0  0  0  0
  3  5  1  0  0  0  0
  3  6  1  0  0  0  0
 35 38  1  0  0  0  0
 35 39  1  0  0  0  0
 35 40  1  0  0  0  0
 11 14  1  0  0  0  0
 11 15  1  0  0  0  0
 11 16  1  0  0  0  0
 23 28  1  0  0  0  0
 23 29  1  0  0  0  0
 23 30  1  0  0  0  0
 42 44  1  0  0  0  0
 42 45  1  0  0  0  0
 42 46  1  0  0  0  0
 32 37  1  0  0  0  0
  8 13  1  0  0  0  0
 18 25  1  0  0  0  0
 21 26  1  0  0  0  0
 41 43  1  0  0  0  0
  7 12  1  0  0  0  0
 31 36  1  0  0  0  0
 17 24  1  0  0  0  0
 22 27  1  0  0  0  0
M  END
$$$$

  -OEChem-05262214473D

 46 45  0     1  0  0  0  0  0999 V2000
   -4.6700    2.7214    1.5150 C   0  0  0  0  0  0  0  0  0  0  0  0
   -5.4532    2.5715    0.5845 O   0  0  0  0  0  0  0  0  0  0  0  0
   -5.0996    3.4865    2.7226 C   0  0  0  0  0  0  0  0  0  0  0  0
   -4.8796    4.5629    2.6387 H   0  0  0  0  0  0  0  0  0  0  0  0
   -6.1861    3.4241    2.8954 H   0  0  0  0  0  0  0  0  0  0  0  0
   -4.6369    3.1693    3.6708 H   0  0  0  0  0  0  0  0  0  0  0  0
   -3.3731    2.2391    1.5790 N   0  0  0  0  0  0  0  0  0  0  0  0
   -2.7599    1.4751    0.5247 C   0  0  2  0  0  0  0  0  0  0  0  0
   -1.5143    0.8067    1.0915 C   0  0  0  0  0  0  0  0  0  0  0  0
   -0.9247    1.2213    2.0872 O   0  0  0  0  0  0  0  0  0  0  0  0
   -2.4106    2.3553   -0.6653 C   0  0  0  0  0  0  0  0  0  0  0  0
   -2.8254    2.4352    2.4150 H   0  0  0  0  0  0  0  0  0  0  0  0
   -3.4836    0.7082    0.2278 H   0  0  0  0  0  0  0  0  0  0  0  0
   -1.6866    3.1298   -0.3871 H   0  0  0  0  0  0  0  0  0  0  0  0
   -1.9704    1.7677   -1.4777 H   0  0  0  0  0  0  0  0  0  0  0  0
   -3.3030    2.8584   -1.0531 H   0  0  0  0  0  0  0  0  0  0  0  0
   -1.1107   -0.2839    0.3303 N   0  0  0  0  0  0  0  0  0  0  0  0
    0.0490   -1.0750    0.6539 C   0  0  2  0  0  0  0  0  0  0  0  0
    0.8253   -1.3049   -0.6396 C   0  0  0  0  0  0  0  0  0  0  0  0
    1.6783   -0.5243   -1.0571 O   0  0  0  0  0  0  0  0  0  0  0  0
   -0.3084   -2.4009    1.3413 C   0  0  2  0  0  0  0  0  0  0  0  0
   -1.1197   -3.2084    0.4896 O   0  0  0  0  0  0  0  0  0  0  0  0
   -1.0693   -2.1880    2.6444 C   0  0  0  0  0  0  0  0  0  0  0  0
   -1.6733   -0.5660   -0.4691 H   0  0  0  0  0  0  0  0  0  0  0  0
    0.6662   -0.4620    1.3220 H   0  0  0  0  0  0  0  0  0  0  0  0
    0.6010   -2.9722    1.5611 H   0  0  0  0  0  0  0  0  0  0  0  0
   -1.2658   -4.0432    0.9601 H   0  0  0  0  0  0  0  0  0  0  0  0
   -1.9912   -1.6194    2.4811 H   0  0  0  0  0  0  0  0  0  0  0  0
   -0.4555   -1.6623    3.3820 H   0  0  0  0  0  0  0  0  0  0  0  0
   -1.3713   -3.1522    3.0679 H   0  0  0  0  0  0  0  0  0  0  0  0
    0.4184   -2.4577   -1.2962 N   0  0  0  0  0  0  0  0  0  0  0  0
    0.9821   -2.8728   -2.5592 C   0  0  2  0  0  0  0  0  0  0  0  0
    2.3308   -3.5234   -2.2812 C   0  0  0  0  0  0  0  0  0  0  0  0
    2.9840   -3.3044   -1.2631 O   0  0  0  0  0  0  0  0  0  0  0  0
    1.1320   -1.6966   -3.5115 C   0  0  0  0  0  0  0  0  0  0  0  0
   -0.3042   -3.0320   -0.8719 H   0  0  0  0  0  0  0  0  0  0  0  0
    0.2976   -3.6162   -2.9820 H   0  0  0  0  0  0  0  0  0  0  0  0
    1.8143   -0.9412   -3.1048 H   0  0  0  0  0  0  0  0  0  0  0  0
    1.5329   -2.0176   -4.4786 H   0  0  0  0  0  0  0  0  0  0  0  0
    0.1657   -1.2116   -3.6869 H   0  0  0  0  0  0  0  0  0  0  0  0
    2.7392   -4.3439   -3.3233 N   0  0  0  0  0  0  0  0  0  0  0  0
    3.9909   -5.0642   -3.3039 C   0  0  0  0  0  0  0  0  0  0  0  0
    2.1252   -4.4819   -4.1207 H   0  0  0  0  0  0  0  0  0  0  0  0
    4.7702   -4.4593   -3.7905 H   0  0  0  0  0  0  0  0  0  0  0  0
    4.2810   -5.2669   -2.2624 H   0  0  0  0  0  0  0  0  0  0  0  0
    3.8748   -6.0155   -3.8440 H   0  0  0  0  0  0  0  0  0  0  0  0
  1  3  1  0  0  0  0
  1  7  1  0  0  0  0
  1  2  2  0  0  0  0
 32 33  1  0  0  0  0
 33 41  1  0  0  0  0
 33 34  2  0  0  0  0
  8  9  1  0  0  0  0
  9 17  1  0  0  0  0
  9 10  2  0  0  0  0
 18 19  1  0  0  0  0
 19 31  1  0  0  0  0
 19 20  2  0  0  0  0
 32 35  1  0  0  0  0
  8 11  1  0  0  0  0
 21 23  1  0  0  0  0
 41 42  1  0  0  0  0
 31 32  1  0  0  0  0
  7  8  1  0  0  0  0
 18 21  1  0  0  0  0
 17 18  1  0  0  0  0
 21 22  1  0  0  0  0
  3  4  1  0  0  0  0
  3  5  1  0  0  0  0
  3  6  1  0  0  0  0
 35 38  1  0  0  0  0
 35 39  1  0  0  0  0
 35 40  1  0  0  0  0
 11 14  1  0  0  0  0
 11 15  1  0  0  0  0
 11 16  1  0  0  0  0
 23 28  1  0  0  0  0
 23 29  1  0  0  0  0
 23 30  1  0  0  0  0
 42 44  1  0  0  0  0
 42 45  1  0  0  0  0
 42 46  1  0  0  0  0
 32 37  1  0  0  0  0
  8 13  1  0  0  0  0
 18 25  1  0  0  0  0
 21 26  1  0  0  0  0
 41 43  1  0  0  0  0
  7 12  1  0  0  0  0
 31 36  1  0  0  0  0
 17 24  1  0  0  0  0
 22 27  1  0  0  0  0
M  END
$$$$

  -OEChem-05262214473D

 46 45  0     1  0  0  0  0  0999 V2000
   -4.6700    2.7214    1.5150 C   0  0  0  0  0  0  0  0  0  0  0  0
   -5.4532    2.5715    0.5845 O   0  0  0  0  0  0  0  0  0  0  0  0
   -5.0996    3.4865    2.7226 C   0  0  0  0  0  0  0  0  0  0  0  0
   -4.8796    4.5629    2.6387 H   0  0  0  0  0  0  0  0  0  0  0  0
   -6.1861    3.4241    2.8954 H   0  0  0  0  0  0  0  0  0  0  0  0
   -4.6369    3.1693    3.6708 H   0  0  0  0  0  0  0  0  0  0  0  0
   -3.3731    2.2391    1.5790 N   0  0  0  0  0  0  0  0  0  0  0  0
   -2.7599    1.4751    0.5247 C   0  0  2  0  0  0  0  0  0  0  0  0
   -1.5143    0.8067    1.0915 C   0  0  0  0  0  0  0  0  0  0  0  0
   -0.9247    1.2213    2.0872 O   0  0  0  0  0  0  0  0  0  0  0  0
   -2.4106    2.3553   -0.6653 C   0  0  0  0  0  0  0  0  0  0  0  0
   -2.8254    2.4352    2.4150 H   0  0  0  0  0  0  0  0  0  0  0  0
   -3.4836    0.7082    0.2278 H   0  0  0  0  0  0  0  0  0  0  0  0
   -1.6866    3.1298   -0.3871 H   0  0  0  0  0  0  0  0  0  0  0  0
   -1.9704    1.7677   -1.4777 H   0  0  0  0  0  0  0  0  0  0  0  0
   -3.3030    2.8584   -1.0531 H   0  0  0  0  0  0  0  0  0  0  0  0
   -1.1107   -0.2839    0.3303 N   0  0  0  0  0  0  0  0  0  0  0  0
    0.0490   -1.0750    0.6539 C   0  0  2  0  0  0  0  0  0  0  0  0
    0.8253   -1.3049   -0.6396 C   0  0  0  0  0  0  0  0  0  0  0  0
    1.8484   -0.6865   -0.9262 O   0  0  0  0  0  0  0  0  0  0  0  0
   -0.3084   -2.4009    1.3413 C   0  0  2  0  0  0  0  0  0  0  0  0
   -1.1197   -3.2084    0.4896 O   0  0  0  0  0  0  0  0  0  0  0  0
   -1.0693   -2.1880    2.6444 C   0  0  0  0  0  0  0  0  0  0  0  0
   -1.6733   -0.5660   -0.4691 H   0  0  0  0  0  0  0  0  0  0  0  0
    0.6662   -0.4620    1.3220 H   0  0  0  0  0  0  0  0  0  0  0  0
    0.6010   -2.9722    1.5611 H   0  0  0  0  0  0  0  0  0  0  0  0
   -1.2658   -4.0432    0.9601 H   0  0  0  0  0  0  0  0  0  0  0  0
   -1.9912   -1.6194    2.4811 H   0  0  0  0  0  0  0  0  0  0  0  0
   -0.4555   -1.6623    3.3820 H   0  0  0  0  0  0  0  0  0  0  0  0
   -1.3713   -3.1522    3.0679 H   0  0  0  0  0  0  0  0  0  0  0  0
    0.2140   -2.2454   -1.4566 N   0  0  0  0  0  0  0  0  0  0  0  0
    0.7414   -2.6110   -2.7503 C   0  0  2  0  0  0  0  0  0  0  0  0
    1.9000   -3.5747   -2.5306 C   0  0  0  0  0  0  0  0  0  0  0  0
    2.5295   -3.6377   -1.4766 O   0  0  0  0  0  0  0  0  0  0  0  0
    1.1936   -1.3860   -3.5297 C   0  0  0  0  0  0  0  0  0  0  0  0
   -0.6376   -2.6941   -1.1320 H   0  0  0  0  0  0  0  0  0  0  0  0
   -0.0643   -3.1239   -3.2868 H   0  0  0  0  0  0  0  0  0  0  0  0
    2.0006   -0.8590   -3.0077 H   0  0  0  0  0  0  0  0  0  0  0  0
    1.5667   -1.6622   -4.5215 H   0  0  0  0  0  0  0  0  0  0  0  0
    0.3662   -0.6803   -3.6610 H   0  0  0  0  0  0  0  0  0  0  0  0
    2.1762   -4.3259   -3.6644 N   0  0  0  0  0  0  0  0  0  0  0  0
    3.2391   -5.3026   -3.7128 C   0  0  0  0  0  0  0  0  0  0  0  0
    1.5906   -4.2215   -4.4878 H   0  0  0  0  0  0  0  0  0  0  0  0
    4.1560   -4.8288   -4.0934 H   0  0  0  0  0  0  0  0  0  0  0  0
    3.4220   -5.6955   -2.7018 H   0  0  0  0  0  0  0  0  0  0  0  0
    2.9487   -6.1276   -4.3799 H   0  0  0  0  0  0  0  0  0  0  0  0
  1  3  1  0  0  0  0
  1  7  1  0  0  0  0
  1  2  2  0  0  0  0
 32 33  1  0  0  0  0
 33 41  1  0  0  0  0
 33 34  2  0  0  0  0
  8  9  1  0  0  0  0
  9 17  1  0  0  0  0
  9 10  2  0  0  0  0
 18 19  1  0  0  0  0
 19 31  1  0  0  0  0
 19 20  2  0  0  0  0
 32 35  1  0  0  0  0
  8 11  1  0  0  0  0
 21 23  1  0  0  0  0
 41 42  1  0  0  0  0
 31 32  1  0  0  0  0
  7  8  1  0  0  0  0
 18 21  1  0  0  0  0
 17 18  1  0  0  0  0
 21 22  1  0  0  0  0
  3  4  1  0  0  0  0
  3  5  1  0  0  0  0
  3  6  1  0  0  0  0
 35 38  1  0  0  0  0
 35 39  1  0  0  0  0
 35 40  1  0  0  0  0
 11 14  1  0  0  0  0
 11 15  1  0  0  0  0
 11 16  1  0  0  0  0
 23 28  1  0  0  0  0
 23 29  1  0  0  0  0
 23 30  1  0  0  0  0
 42 44  1  0  0  0  0
 42 45  1  0  0  0  0
 42 46  1  0  0  0  0
 32 37  1  0  0  0  0
  8 13  1  0  0  0  0
 18 25  1  0  0  0  0
 21 26  1  0  0  0  0
 41 43  1  0  0  0  0
  7 12  1  0  0  0  0
 31 36  1  0  0  0  0
 17 24  1  0  0  0  0
 22 27  1  0  0  0  0
M  END
$$$$

  -OEChem-05262214473D

 46 45  0     1  0  0  0  0  0999 V2000
   -4.6700    2.7214    1.5150 C   0  0  0  0  0  0  0  0  0  0  0  0
   -5.4532    2.5715    0.5845 O   0  0  0  0  0  0  0  0  0  0  0  0
   -5.0996    3.4865    2.7226 C   0  0  0  0  0  0  0  0  0  0  0  0
   -4.8796    4.5629    2.6387 H   0  0  0  0  0  0  0  0  0  0  0  0
   -6.1861    3.4241    2.8954 H   0  0  0  0  0  0  0  0  0  0  0  0
   -4.6369    3.1693    3.6708 H   0  0  0  0  0  0  0  0  0  0  0  0
   -3.3731    2.2391    1.5790 N   0  0  0  0  0  0  0  0  0  0  0  0
   -2.7599    1.4751    0.5247 C   0  0  2  0  0  0  0  0  0  0  0  0
   -1.5143    0.8067    1.0915 C   0  0  0  0  0  0  0  0  0  0  0  0
   -0.9247    1.2213    2.0872 O   0  0  0  0  0  0  0  0  0  0  0  0
   -2.4106    2.3553   -0.6653 C   0  0  0  0  0  0  0  0  0  0  0  0
   -2.8254    2.4352    2.4150 H   0  0  0  0  0  0  0  0  0  0  0  0
   -3.4836    0.7082    0.2278 H   0  0  0  0  0  0  0  0  0  0  0  0
   -1.6866    3.1298   -0.3871 H   0  0  0  0  0  0  0  0  0  0  0  0
   -1.9704    1.7677   -1.4777 H   0  0  0  0  0  0  0  0  0  0  0  0
   -3.3030    2.8584   -1.0531 H   0  0  0  0  0  0  0  0  0  0  0  0
   -1.1107   -0.2839    0.3303 N   0  0  0  0  0  0  0  0  0  0  0  0
    0.0490   -1.0750    0.6539 C   0  0  2  0  0  0  0  0  0  0  0  0
    0.8253   -1.3049   -0.6396 C   0  0  0  0  0  0  0  0  0  0  0  0
    1.9720   -0.8977   -0.8145 O   0  0  0  0  0  0  0  0  0  0  0  0
   -0.3084   -2.4009    1.3413 C   0  0  2  0  0  0  0  0  0  0  0  0
   -1.1197   -3.2084    0.4896 O   0  0  0  0  0  0  0  0  0  0  0  0
   -1.0693   -2.1880    2.6444 C   0  0  0  0  0  0  0  0  0  0  0  0
   -1.6733   -0.5660   -0.4691 H   0  0  0  0  0  0  0  0  0  0  0  0
    0.6662   -0.4620    1.3220 H   0  0  0  0  0  0  0  0  0  0  0  0
    0.6010   -2.9722    1.5611 H   0  0  0  0  0  0  0  0  0  0  0  0
   -1.2658   -4.0432    0.9601 H   0  0  0  0  0  0  0  0  0  0  0  0
   -1.9912   -1.6194    2.4811 H   0  0  0  0  0  0  0  0  0  0  0  0
   -0.4555   -1.6623    3.3820 H   0  0  0  0  0  0  0  0  0  0  0  0
   -1.3713   -3.1522    3.0679 H   0  0  0  0  0  0  0  0  0  0  0  0
    0.0694   -1.9744   -1.5915 N   0  0  0  0  0  0  0  0  0  0  0  0
    0.5737   -2.2801   -2.9097 C   0  0  2  0  0  0  0  0  0  0  0  0
    1.4824   -3.4969   -2.7951 C   0  0  0  0  0  0  0  0  0  0  0  0
    2.0257   -3.8318   -1.7445 O   0  0  0  0  0  0  0  0  0  0  0  0
    1.3219   -1.0971   -3.5041 C   0  0  0  0  0  0  0  0  0  0  0  0
   -0.8753   -2.2604   -1.3518 H   0  0  0  0  0  0  0  0  0  0  0  0
   -0.2940   -2.5288   -3.5304 H   0  0  0  0  0  0  0  0  0  0  0  0
    2.1947   -0.8333   -2.8957 H   0  0  0  0  0  0  0  0  0  0  0  0
    1.6789   -1.3207   -4.5148 H   0  0  0  0  0  0  0  0  0  0  0  0
    0.6755   -0.2145   -3.5582 H   0  0  0  0  0  0  0  0  0  0  0  0
    1.6496   -4.1401   -4.0135 N   0  0  0  0  0  0  0  0  0  0  0  0
    2.4765   -5.3140   -4.1684 C   0  0  0  0  0  0  0  0  0  0  0  0
    1.1457   -3.8043   -4.8290 H   0  0  0  0  0  0  0  0  0  0  0  0
    3.4934   -5.0112   -4.4587 H   0  0  0  0  0  0  0  0  0  0  0  0
    2.5154   -5.8632   -3.2161 H   0  0  0  0  0  0  0  0  0  0  0  0
    2.0505   -5.9622   -4.9484 H   0  0  0  0  0  0  0  0  0  0  0  0
  1  3  1  0  0  0  0
  1  7  1  0  0  0  0
  1  2  2  0  0  0  0
 32 33  1  0  0  0  0
 33 41  1  0  0  0  0
 33 34  2  0  0  0  0
  8  9  1  0  0  0  0
  9 17  1  0  0  0  0
  9 10  2  0  0  0  0
 18 19  1  0  0  0  0
 19 31  1  0  0  0  0
 19 20  2  0  0  0  0
 32 35  1  0  0  0  0
  8 11  1  0  0  0  0
 21 23  1  0  0  0  0
 41 42  1  0  0  0  0
 31 32  1  0  0  0  0
  7  8  1  0  0  0  0
 18 21  1  0  0  0  0
 17 18  1  0  0  0  0
 21 22  1  0  0  0  0
  3  4  1  0  0  0  0
  3  5  1  0  0  0  0
  3  6  1  0  0  0  0
 35 38  1  0  0  0  0
 35 39  1  0  0  0  0
 35 40  1  0  0  0  0
 11 14  1  0  0  0  0
 11 15  1  0  0  0  0
 11 16  1  0  0  0  0
 23 28  1  0  0  0  0
 23 29  1  0  0  0  0
 23 30  1  0  0  0  0
 42 44  1  0  0  0  0
 42 45  1  0  0  0  0
 42 46  1  0  0  0  0
 32 37  1  0  0  0  0
  8 13  1  0  0  0  0
 18 25  1  0  0  0  0
 21 26  1  0  0  0  0
 41 43  1  0  0  0  0
  7 12  1  0  0  0  0
 31 36  1  0  0  0  0
 17 24  1  0  0  0  0
 22 27  1  0  0  0  0
M  END
$$$$

  -OEChem-05262214473D

 46 45  0     1  0  0  0  0  0999 V2000
   -4.6700    2.7214    1.5150 C   0  0  0  0  0  0  0  0  0  0  0  0
   -5.4532    2.5715    0.5845 O   0  0  0  0  0  0  0  0  0  0  0  0
   -5.0996    3.4865    2.7226 C   0  0  0  0  0  0  0  0  0  0  0  0
   -4.8796    4.5629    2.6387 H   0  0  0  0  0  0  0  0  0  0  0  0
   -6.1861    3.4241    2.8954 H   0  0  0  0  0  0  0  0  0  0  0  0
   -4.6369    3.1693    3.6708 H   0  0  0  0  0  0  0  0  0  0  0  0
   -3.3731    2.2391    1.5790 N   0  0  0  0  0  0  0  0  0  0  0  0
   -2.7599    1.4751    0.5247 C   0  0  2  0  0  0  0  0  0  0  0  0
   -1.5143    0.8067    1.0915 C   0  0  0  0  0  0  0  0  0  0  0  0
   -0.9247    1.2213    2.0872 O   0  0  0  0  0  0  0  0  0  0  0  0
   -2.4106    2.3553   -0.6653 C   0  0  0  0  0  0  0  0  0  0  0  0
   -2.8254    2.4352    2.4150 H   0  0  0  0  0  0  0  0  0  0  0  0
   -3.4836    0.7082    0.2278 H   0  0  0  0  0  0  0  0  0  0  0  0
   -1.6866    3.1298   -0.3871 H   0  0  0  0  0  0  0  0  0  0  0  0
   -1.9704    1.7677   -1.4777 H   0  0  0  0  0  0  0  0  0  0  0  0
   -3.3030    2.8584   -1.0531 H   0  0  0  0  0  0  0  0  0  0  0  0
   -1.1107   -0.2839    0.3303 N   0  0  0  0  0  0  0  0  0  0  0  0
    0.0490   -1.0750    0.6539 C   0  0  2  0  0  0  0  0  0  0  0  0
    0.8253   -1.3049   -0.6396 C   0  0  0  0  0  0  0  0  0  0  0  0
    2.0407   -1.1436   -0.7296 O   0  0  0  0  0  0  0  0  0  0  0  0
   -0.3084   -2.4009    1.3413 C   0  0  2  0  0  0  0  0  0  0  0  0
   -1.1197   -3.2084    0.4896 O   0  0  0  0  0  0  0  0  0  0  0  0
   -1.0693   -2.1880    2.6444 C   0  0  0  0  0  0  0  0  0  0  0  0
   -1.6733   -0.5660   -0.4691 H   0  0  0  0  0  0  0  0  0  0  0  0
    0.6662   -0.4620    1.3220 H   0  0  0  0  0  0  0  0  0  0  0  0
    0.6010   -2.9722    1.5611 H   0  0  0  0  0  0  0  0  0  0  0  0
   -1.2658   -4.0432    0.9601 H   0  0  0  0  0  0  0  0  0  0  0  0
   -1.9912   -1.6194    2.4811 H   0  0  0  0  0  0  0  0  0  0  0  0
   -0.4555   -1.6623    3.3820 H   0  0  0  0  0  0  0  0  0  0  0  0
   -1.3713   -3.1522    3.0679 H   0  0  0  0  0  0  0  0  0  0  0  0
   -0.0055   -1.6631   -1.6918 N   0  0  0  0  0  0  0  0  0  0  0  0
    0.4905   -1.9028   -3.0267 C   0  0  2  0  0  0  0  0  0  0  0  0
    1.1063   -3.2954   -3.0566 C   0  0  0  0  0  0  0  0  0  0  0  0
    1.5070   -3.8734   -2.0484 O   0  0  0  0  0  0  0  0  0  0  0  0
    1.5082   -0.8495   -3.4363 C   0  0  0  0  0  0  0  0  0  0  0  0
   -1.0012   -1.7604   -1.5163 H   0  0  0  0  0  0  0  0  0  0  0  0
   -0.3758   -1.8715   -3.6964 H   0  0  0  0  0  0  0  0  0  0  0  0
    2.3835   -0.8657   -2.7767 H   0  0  0  0  0  0  0  0  0  0  0  0
    1.8620   -1.0163   -4.4591 H   0  0  0  0  0  0  0  0  0  0  0  0
    1.0723    0.1541   -3.3856 H   0  0  0  0  0  0  0  0  0  0  0  0
    1.1953   -3.7991   -4.3467 N   0  0  0  0  0  0  0  0  0  0  0  0
    1.7552   -5.0978   -4.6397 C   0  0  0  0  0  0  0  0  0  0  0  0
    0.8207   -3.2588   -5.1210 H   0  0  0  0  0  0  0  0  0  0  0  0
    2.8277   -4.9938   -4.8613 H   0  0  0  0  0  0  0  0  0  0  0  0
    1.6230   -5.7586   -3.7703 H   0  0  0  0  0  0  0  0  0  0  0  0
    1.2413   -5.5305   -5.5107 H   0  0  0  0  0  0  0  0  0  0  0  0
  1  3  1  0  0  0  0
  1  7  1  0  0  0  0
  1  2  2  0  0  0  0
 32 33  1  0  0  0  0
 33 41  1  0  0  0  0
 33 34  2  0  0  0  0
  8  9  1  0  0  0  0
  9 17  1  0  0  0  0
  9 10  2  0  0  0  0
 18 19  1  0  0  0  0
 19 31  1  0  0  0  0
 19 20  2  0  0  0  0
 32 35  1  0  0  0  0
  8 11  1  0  0  0  0
 21 23  1  0  0  0  0
 41 42  1  0  0  0  0
 31 32  1  0  0  0  0
  7  8  1  0  0  0  0
 18 21  1  0  0  0  0
 17 18  1  0  0  0  0
 21 22  1  0  0  0  0
  3  4  1  0  0  0  0
  3  5  1  0  0  0  0
  3  6  1  0  0  0  0
 35 38  1  0  0  0  0
 35 39  1  0  0  0  0
 35 40  1  0  0  0  0
 11 14  1  0  0  0  0
 11 15  1  0  0  0  0
 11 16  1  0  0  0  0
 23 28  1  0  0  0  0
 23 29  1  0  0  0  0
 23 30  1  0  0  0  0
 42 44  1  0  0  0  0
 42 45  1  0  0  0  0
 42 46  1  0  0  0  0
 32 37  1  0  0  0  0
  8 13  1  0  0  0  0
 18 25  1  0  0  0  0
 21 26  1  0  0  0  0
 41 43  1  0  0  0  0
  7 12  1  0  0  0  0
 31 36  1  0  0  0  0
 17 24  1  0  0  0  0
 22 27  1  0  0  0  0
M  END
$$$$

  -OEChem-05262214473D

 46 45  0     1  0  0  0  0  0999 V2000
   -4.6700    2.7214    1.5150 C   0  0  0  0  0  0  0  0  0  0  0  0
   -5.4532    2.5715    0.5845 O   0  0  0  0  0  0  0  0  0  0  0  0
   -5.0996    3.4865    2.7226 C   0  0  0  0  0  0  0  0  0  0  0  0
   -4.8796    4.5629    2.6387 H   0  0  0  0  0  0  0  0  0  0  0  0
   -6.1861    3.4241    2.8954 H   0  0  0  0  0  0  0  0  0  0  0  0
   -4.6369    3.1693    3.6708 H   0  0  0  0  0  0  0  0  0  0  0  0
   -3.3731    2.2391    1.5790 N   0  0  0  0  0  0  0  0  0  0  0  0
   -2.7599    1.4751    0.5247 C   0  0  2  0  0  0  0  0  0  0  0  0
   -1.5143    0.8067    1.0915 C   0  0  0  0  0  0  0  0  0  0  0  0
   -0.9247    1.2213    2.0872 O   0  0  0  0  0  0  0  0  0  0  0  0
   -2.4106    2.3553   -0.6653 C   0  0  0  0  0  0  0  0  0  0  0  0
   -2.8254    2.4352    2.4150 H   0  0  0  0  0  0  0  0  0  0  0  0
   -3.4836    0.7082    0.2278 H   0  0  0  0  0  0  0  0  0  0  0  0
   -1.6866    3.1298   -0.3871 H   0  0  0  0  0  0  0  0  0  0  0  0
   -1.9704    1.7677   -1.4777 H   0  0  0  0  0  0  0  0  0  0  0  0
   -3.3030    2.8584   -1.0531 H   0  0  0  0  0  0  0  0  0  0  0  0
   -1.1107   -0.2839    0.3303 N   0  0  0  0  0  0  0  0  0  0  0  0
    0.0490   -1.0750    0.6539 C   0  0  2  0  0  0  0  0  0  0  0  0
    0.8253   -1.3049   -0.6396 C   0  0  0  0  0  0  0  0  0  0  0  0
    2.0498   -1.4073   -0.6772 O   0  0  0  0  0  0  0  0  0  0  0  0
   -0.3084   -2.4009    1.3413 C   0  0  2  0  0  0  0  0  0  0  0  0
   -1.1197   -3.2084    0.4896 O   0  0  0  0  0  0  0  0  0  0  0  0
   -1.0693   -2.1880    2.6444 C   0  0  0  0  0  0  0  0  0  0  0  0
   -1.6733   -0.5660   -0.4691 H   0  0  0  0  0  0  0  0  0  0  0  0
    0.6662   -0.4620    1.3220 H   0  0  0  0  0  0  0  0  0  0  0  0
    0.6010   -2.9722    1.5611 H   0  0  0  0  0  0  0  0  0  0  0  0
   -1.2658   -4.0432    0.9601 H   0  0  0  0  0  0  0  0  0  0  0  0
   -1.9912   -1.6194    2.4811 H   0  0  0  0  0  0  0  0  0  0  0  0
   -0.4555   -1.6623    3.3820 H   0  0  0  0  0  0  0  0  0  0  0  0
   -1.3713   -3.1522    3.0679 H   0  0  0  0  0  0  0  0  0  0  0  0
   -0.0056   -1.3327   -1.7506 N   0  0  0  0  0  0  0  0  0  0  0  0
    0.4975   -1.5046   -3.0932 C   0  0  2  0  0  0  0  0  0  0  0  0
    0.7975   -2.9838   -3.2973 C   0  0  0  0  0  0  0  0  0  0  0  0
    1.0086   -3.7599   -2.3677 O   0  0  0  0  0  0  0  0  0  0  0  0
    1.7398   -0.6602   -3.3309 C   0  0  0  0  0  0  0  0  0  0  0  0
   -1.0068   -1.2281   -1.6142 H   0  0  0  0  0  0  0  0  0  0  0  0
   -0.3042   -1.1968   -3.7733 H   0  0  0  0  0  0  0  0  0  0  0  0
    2.5541   -0.9542   -2.6586 H   0  0  0  0  0  0  0  0  0  0  0  0
    2.1035   -0.7697   -4.3580 H   0  0  0  0  0  0  0  0  0  0  0  0
    1.5298    0.4003   -3.1548 H   0  0  0  0  0  0  0  0  0  0  0  0
    0.8444   -3.3262   -4.6414 N   0  0  0  0  0  0  0  0  0  0  0  0
    1.1243   -4.6686   -5.0947 C   0  0  0  0  0  0  0  0  0  0  0  0
    0.6379   -2.6222   -5.3439 H   0  0  0  0  0  0  0  0  0  0  0  0
    2.2041   -4.7780   -5.2739 H   0  0  0  0  0  0  0  0  0  0  0  0
    0.8055   -5.3888   -4.3267 H   0  0  0  0  0  0  0  0  0  0  0  0
    0.5763   -4.8619   -6.0287 H   0  0  0  0  0  0  0  0  0  0  0  0
  1  3  1  0  0  0  0
  1  7  1  0  0  0  0
  1  2  2  0  0  0  0
 32 33  1  0  0  0  0
 33 41  1  0  0  0  0
 33 34  2  0  0  0  0
  8  9  1  0  0  0  0
  9 17  1  0  0  0  0
  9 10  2  0  0  0  0
 18 19  1  0  0  0  0
 19 31  1  0  0  0  0
 19 20  2  0  0  0  0
 32 35  1  0  0  0  0
  8 11  1  0  0  0  0
 21 23  1  0  0  0  0
 41 42  1  0  0  0  0
 31 32  1  0  0  0  0
  7  8  1  0  0  0  0
 18 21  1  0  0  0  0
 17 18  1  0  0  0  0
 21 22  1  0  0  0  0
  3  4  1  0  0  0  0
  3  5  1  0  0  0  0
  3  6  1  0  0  0  0
 35 38  1  0  0  0  0
 35 39  1  0  0  0  0
 35 40  1  0  0  0  0
 11 14  1  0  0  0  0
 11 15  1  0  0  0  0
 11 16  1  0  0  0  0
 23 28  1  0  0  0  0
 23 29  1  0  0  0  0
 23 30  1  0  0  0  0
 42 44  1  0  0  0  0
 42 45  1  0  0  0  0
 42 46  1  0  0  0  0
 32 37  1  0  0  0  0
  8 13  1  0  0  0  0
 18 25  1  0  0  0  0
 21 26  1  0  0  0  0
 41 43  1  0  0  0  0
  7 12  1  0  0  0  0
 31 36  1  0  0  0  0
 17 24  1  0  0  0  0
 22 27  1  0  0  0  0
M  END
$$$$

  -OEChem-05262214473D

 46 45  0     1  0  0  0  0  0999 V2000
   -4.6700    2.7214    1.5150 C   0  0  0  0  0  0  0  0  0  0  0  0
   -5.4532    2.5715    0.5845 O   0  0  0  0  0  0  0  0  0  0  0  0
   -5.0996    3.4865    2.7226 C   0  0  0  0  0  0  0  0  0  0  0  0
   -4.8796    4.5629    2.6387 H   0  0  0  0  0  0  0  0  0  0  0  0
   -6.1861    3.4241    2.8954 H   0  0  0  0  0  0  0  0  0  0  0  0
   -4.6369    3.1693    3.6708 H   0  0  0  0  0  0  0  0  0  0  0  0
   -3.3731    2.2391    1.5790 N   0  0  0  0  0  0  0  0  0  0  0  0
   -2.7599    1.4751    0.5247 C   0  0  2  0  0  0  0  0  0  0  0  0
   -1.5143    0.8067    1.0915 C   0  0  0  0  0  0  0  0  0  0  0  0
   -0.9247    1.2213    2.0872 O   0  0  0  0  0  0  0  0  0  0  0  0
   -2.4106    2.3553   -0.6653 C   0  0  0  0  0  0  0  0  0  0  0  0
   -2.8254    2.4352    2.4150 H   0  0  0  0  0  0  0  0  0  0  0  0
   -3.4836    0.7082    0.2278 H   0  0  0  0  0  0  0  0  0  0  0  0
   -1.6866    3.1298   -0.3871 H   0  0  0  0  0  0  0  0  0  0  0  0
   -1.9704    1.7677   -1.4777 H   0  0  0  0  0  0  0  0  0  0  0  0
   -3.3030    2.8584   -1.0531 H   0  0  0  0  0  0  0  0  0  0  0  0
   -1.1107   -0.2839    0.3303 N   0  0  0  0  0  0  0  0  0  0  0  0
    0.0490   -1.0750    0.6539 C   0  0  2  0  0  0  0  0  0  0  0  0
    0.8253   -1.3049   -0.6396 C   0  0  0  0  0  0  0  0  0  0  0  0
    1.9987   -1.6709   -0.6610 O   0  0  0  0  0  0  0  0  0  0  0  0
   -0.3084   -2.4009    1.3413 C   0  0  2  0  0  0  0  0  0  0  0  0
   -1.1197   -3.2084    0.4896 O   0  0  0  0  0  0  0  0  0  0  0  0
   -1.0693   -2.1880    2.6444 C   0  0  0  0  0  0  0  0  0  0  0  0
   -1.6733   -0.5660   -0.4691 H   0  0  0  0  0  0  0  0  0  0  0  0
    0.6662   -0.4620    1.3220 H   0  0  0  0  0  0  0  0  0  0  0  0
    0.6010   -2.9722    1.5611 H   0  0  0  0  0  0  0  0  0  0  0  0
   -1.2658   -4.0432    0.9601 H   0  0  0  0  0  0  0  0  0  0  0  0
   -1.9912   -1.6194    2.4811 H   0  0  0  0  0  0  0  0  0  0  0  0
   -0.4555   -1.6623    3.3820 H   0  0  0  0  0  0  0  0  0  0  0  0
   -1.3713   -3.1522    3.0679 H   0  0  0  0  0  0  0  0  0  0  0  0
    0.0690   -1.0059   -1.7639 N   0  0  0  0  0  0  0  0  0  0  0  0
    0.5943   -1.1128   -3.1048 C   0  0  2  0  0  0  0  0  0  0  0  0
    0.5770   -2.5833   -3.5008 C   0  0  0  0  0  0  0  0  0  0  0  0
    0.5646   -3.4988   -2.6806 O   0  0  0  0  0  0  0  0  0  0  0  0
    2.0010   -0.5421   -3.1952 C   0  0  0  0  0  0  0  0  0  0  0  0
   -0.8915   -0.6999   -1.6389 H   0  0  0  0  0  0  0  0  0  0  0  0
   -0.0840   -0.5506   -3.7560 H   0  0  0  0  0  0  0  0  0  0  0  0
    2.6948   -1.0926   -2.5495 H   0  0  0  0  0  0  0  0  0  0  0  0
    2.3868   -0.5979   -4.2184 H   0  0  0  0  0  0  0  0  0  0  0  0
    2.0167    0.5073   -2.8816 H   0  0  0  0  0  0  0  0  0  0  0  0
    0.6206   -2.7536   -4.8775 N   0  0  0  0  0  0  0  0  0  0  0  0
    0.6268   -4.0558   -5.5022 C   0  0  0  0  0  0  0  0  0  0  0  0
    0.6096   -1.9378   -5.4825 H   0  0  0  0  0  0  0  0  0  0  0  0
    1.6652   -4.3784   -5.6683 H   0  0  0  0  0  0  0  0  0  0  0  0
    0.1187   -4.7789   -4.8473 H   0  0  0  0  0  0  0  0  0  0  0  0
    0.1009   -4.0021   -6.4668 H   0  0  0  0  0  0  0  0  0  0  0  0
  1  3  1  0  0  0  0
  1  7  1  0  0  0  0
  1  2  2  0  0  0  0
 32 33  1  0  0  0  0
 33 41  1  0  0  0  0
 33 34  2  0  0  0  0
  8  9  1  0  0  0  0
  9 17  1  0  0  0  0
  9 10  2  0  0  0  0
 18 19  1  0  0  0  0
 19 31  1  0  0  0  0
 19 20  2  0  0  0  0
 32 35  1  0  0  0  0
  8 11  1  0  0  0  0
 21 23  1  0  0  0  0
 41 42  1  0  0  0  0
 31 32  1  0  0  0  0
  7  8  1  0  0  0  0
 18 21  1  0  0  0  0
 17 18  1  0  0  0  0
 21 22  1  0  0  0  0
  3  4  1  0  0  0  0
  3  5  1  0  0  0  0
  3  6  1  0  0  0  0
 35 38  1  0  0  0  0
 35 39  1  0  0  0  0
 35 40  1  0  0  0  0
 11 14  1  0  0  0  0
 11 15  1  0  0  0  0
 11 16  1  0  0  0  0
 23 28  1  0  0  0  0
 23 29  1  0  0  0  0
 23 30  1  0  0  0  0
 42 44  1  0  0  0  0
 42 45  1  0  0  0  0
 42 46  1  0  0  0  0
 32 37  1  0  0  0  0
  8 13  1  0  0  0  0
 18 25  1  0  0  0  0
 21 26  1  0  0  0  0
 41 43  1  0  0  0  0
  7 12  1  0  0  0  0
 31 36  1  0  0  0  0
 17 24  1  0  0  0  0
 22 27  1  0  0  0  0
M  END
$$$$

  -OEChem-05262214473D

 46 45  0     1  0  0  0  0  0999 V2000
   -4.6700    2.7214    1.5150 C   0  0  0  0  0  0  0  0  0  0  0  0
   -5.4532    2.5715    0.5845 O   0  0  0  0  0  0  0  0  0  0  0  0
   -5.0996    3.4865    2.7226 C   0  0  0  0  0  0  0  0  0  0  0  0
   -4.8796    4.5629    2.6387 H   0  0  0  0  0  0  0  0  0  0  0  0
   -6.1861    3.4241    2.8954 H   0  0  0  0  0  0  0  0  0  0  0  0
   -4.6369    3.1693    3.6708 H   0  0  0  0  0  0  0  0  0  0  0  0
   -3.3731    2.2391    1.5790 N   0  0  0  0  0  0  0  0  0  0  0  0
   -2.7599    1.4751    0.5247 C   0  0  2  0  0  0  0  0  0  0  0  0
   -1.5143    0.8067    1.0915 C   0  0  0  0  0  0  0  0  0  0  0  0
   -0.9247    1.2213    2.0872 O   0  0  0  0  0  0  0  0  0  0  0  0
   -2.4106    2.3553   -0.6653 C   0  0  0  0  0  0  0  0  0  0  0  0
   -2.8254    2.4352    2.4150 H   0  0  0  0  0  0  0  0  0  0  0  0
   -3.4836    0.7082    0.2278 H   0  0  0  0  0  0  0  0  0  0  0  0
   -1.6866    3.1298   -0.3871 H   0  0  0  0  0  0  0  0  0  0  0  0
   -1.9704    1.7677   -1.4777 H   0  0  0  0  0  0  0  0  0  0  0  0
   -3.3030    2.8584   -1.0531 H   0  0  0  0  0  0  0  0  0  0  0  0
   -1.1107   -0.2839    0.3303 N   0  0  0  0  0  0  0  0  0  0  0  0
    0.0490   -1.0750    0.6539 C   0  0  2  0  0  0  0  0  0  0  0  0
    0.8253   -1.3049   -0.6396 C   0  0  0  0  0  0  0  0  0  0  0  0
    1.8909   -1.9165   -0.6821 O   0  0  0  0  0  0  0  0  0  0  0  0
   -0.3084   -2.4009    1.3413 C   0  0  2  0  0  0  0  0  0  0  0  0
   -1.1197   -3.2084    0.4896 O   0  0  0  0  0  0  0  0  0  0  0  0
   -1.0693   -2.1880    2.6444 C   0  0  0  0  0  0  0  0  0  0  0  0
   -1.6733   -0.5660   -0.4691 H   0  0  0  0  0  0  0  0  0  0  0  0
    0.6662   -0.4620    1.3220 H   0  0  0  0  0  0  0  0  0  0  0  0
    0.6010   -2.9722    1.5611 H   0  0  0  0  0  0  0  0  0  0  0  0
   -1.2658   -4.0432    0.9601 H   0  0  0  0  0  0  0  0  0  0  0  0
   -1.9912   -1.6194    2.4811 H   0  0  0  0  0  0  0  0  0  0  0  0
   -0.4555   -1.6623    3.3820 H   0  0  0  0  0  0  0  0  0  0  0  0
   -1.3713   -3.1522    3.0679 H   0  0  0  0  0  0  0  0  0  0  0  0
    0.2133   -0.7048   -1.7309 N   0  0  0  0  0  0  0  0  0  0  0  0
    0.7741   -0.7541   -3.0607 C   0  0  2  0  0  0  0  0  0  0  0  0
    0.4598   -2.1213   -3.6533 C   0  0  0  0  0  0  0  0  0  0  0  0
    0.2052   -3.1080   -2.9657 O   0  0  0  0  0  0  0  0  0  0  0  0
    2.2739   -0.5031   -3.0383 C   0  0  0  0  0  0  0  0  0  0  0  0
   -0.6633   -0.2116   -1.5888 H   0  0  0  0  0  0  0  0  0  0  0  0
    0.2698    0.0229   -3.6456 H   0  0  0  0  0  0  0  0  0  0  0  0
    2.7962   -1.2715   -2.4568 H   0  0  0  0  0  0  0  0  0  0  0  0
    2.6928   -0.5124   -4.0500 H   0  0  0  0  0  0  0  0  0  0  0  0
    2.4998    0.4679   -2.5846 H   0  0  0  0  0  0  0  0  0  0  0  0
    0.5393   -2.1204   -5.0389 N   0  0  0  0  0  0  0  0  0  0  0  0
    0.2966   -3.3010   -5.8346 C   0  0  0  0  0  0  0  0  0  0  0  0
    0.7379   -1.2522   -5.5274 H   0  0  0  0  0  0  0  0  0  0  0  0
    1.2478   -3.8223   -6.0177 H   0  0  0  0  0  0  0  0  0  0  0  0
   -0.3906   -3.9707   -5.2967 H   0  0  0  0  0  0  0  0  0  0  0  0
   -0.1526   -3.0095   -6.7954 H   0  0  0  0  0  0  0  0  0  0  0  0
  1  3  1  0  0  0  0
  1  7  1  0  0  0  0
  1  2  2  0  0  0  0
 32 33  1  0  0  0  0
 33 41  1  0  0  0  0
 33 34  2  0  0  0  0
  8  9  1  0  0  0  0
  9 17  1  0  0  0  0
  9 10  2  0  0  0  0
 18 19  1  0  0  0  0
 19 31  1  0  0  0  0
 19 20  2  0  0  0  0
 32 35  1  0  0  0  0
  8 11  1  0  0  0  0
 21 23  1  0  0  0  0
 41 42  1  0  0  0  0
 31 32  1  0  0  0  0
  7  8  1  0  0  0  0
 18 21  1  0  0  0  0
 17 18  1  0  0  0  0
 21 22  1  0  0  0  0
  3  4  1  0  0  0  0
  3  5  1  0  0  0  0
  3  6  1  0  0  0  0
 35 38  1  0  0  0  0
 35 39  1  0  0  0  0
 35 40  1  0  0  0  0
 11 14  1  0  0  0  0
 11 15  1  0  0  0  0
 11 16  1  0  0  0  0
 23 28  1  0  0  0  0
 23 29  1  0  0  0  0
 23 30  1  0  0  0  0
 42 44  1  0  0  0  0
 42 45  1  0  0  0  0
 42 46  1  0  0  0  0
 32 37  1  0  0  0  0
  8 13  1  0  0  0  0
 18 25  1  0  0  0  0
 21 26  1  0  0  0  0
 41 43  1  0  0  0  0
  7 12  1  0  0  0  0
 31 36  1  0  0  0  0
 17 24  1  0  0  0  0
 22 27  1  0  0  0  0
M  END
$$$$

  -OEChem-05262214473D

 46 45  0     1  0  0  0  0  0999 V2000
   -4.6700    2.7214    1.5150 C   0  0  0  0  0  0  0  0  0  0  0  0
   -5.4532    2.5715    0.5845 O   0  0  0  0  0  0  0  0  0  0  0  0
   -5.0996    3.4865    2.7226 C   0  0  0  0  0  0  0  0  0  0  0  0
   -4.8796    4.5629    2.6387 H   0  0  0  0  0  0  0  0  0  0  0  0
   -6.1861    3.4241    2.8954 H   0  0  0  0  0  0  0  0  0  0  0  0
   -4.6369    3.1693    3.6708 H   0  0  0  0  0  0  0  0  0  0  0  0
   -3.3731    2.2391    1.5790 N   0  0  0  0  0  0  0  0  0  0  0  0
   -2.7599    1.4751    0.5247 C   0  0  2  0  0  0  0  0  0  0  0  0
   -1.5143    0.8067    1.0915 C   0  0  0  0  0  0  0  0  0  0  0  0
   -0.9247    1.2213    2.0872 O   0  0  0  0  0  0  0  0  0  0  0  0
   -2.4106    2.3553   -0.6653 C   0  0  0  0  0  0  0  0  0  0  0  0
   -2.8254    2.4352    2.4150 H   0  0  0  0  0  0  0  0  0  0  0  0
   -3.4836    0.7082    0.2278 H   0  0  0  0  0  0  0  0  0  0  0  0
   -1.6866    3.1298   -0.3871 H   0  0  0  0  0  0  0  0  0  0  0  0
   -1.9704    1.7677   -1.4777 H   0  0  0  0  0  0  0  0  0  0  0  0
   -3.3030    2.8584   -1.0531 H   0  0  0  0  0  0  0  0  0  0  0  0
   -1.1107   -0.2839    0.3303 N   0  0  0  0  0  0  0  0  0  0  0  0
    0.0490   -1.0750    0.6539 C   0  0  2  0  0  0  0  0  0  0  0  0
    0.8253   -1.3049   -0.6396 C   0  0  0  0  0  0  0  0  0  0  0  0
    1.7337   -2.1273   -0.7390 O   0  0  0  0  0  0  0  0  0  0  0  0
   -0.3084   -2.4009    1.3413 C   0  0  2  0  0  0  0  0  0  0  0  0
   -1.1197   -3.2084    0.4896 O   0  0  0  0  0  0  0  0  0  0  0  0
   -1.0693   -2.1880    2.6444 C   0  0  0  0  0  0  0  0  0  0  0  0
   -1.6733   -0.5660   -0.4691 H   0  0  0  0  0  0  0  0  0  0  0  0
    0.6662   -0.4620    1.3220 H   0  0  0  0  0  0  0  0  0  0  0  0
    0.6010   -2.9722    1.5611 H   0  0  0  0  0  0  0  0  0  0  0  0
   -1.2658   -4.0432    0.9601 H   0  0  0  0  0  0  0  0  0  0  0  0
   -1.9912   -1.6194    2.4811 H   0  0  0  0  0  0  0  0  0  0  0  0
   -0.4555   -1.6623    3.3820 H   0  0  0  0  0  0  0  0  0  0  0  0
   -1.3713   -3.1522    3.0679 H   0  0  0  0  0  0  0  0  0  0  0  0
    0.4174   -0.4500   -1.6536 N   0  0  0  0  0  0  0  0  0  0  0  0
    1.0248   -0.4528   -2.9638 C   0  0  2  0  0  0  0  0  0  0  0  0
    0.4538   -1.6293   -3.7443 C   0  0  0  0  0  0  0  0  0  0  0  0
   -0.0451   -2.6141   -3.2037 O   0  0  0  0  0  0  0  0  0  0  0  0
    2.5399   -0.5460   -2.8711 C   0  0  0  0  0  0  0  0  0  0  0  0
   -0.3378    0.2033   -1.4671 H   0  0  0  0  0  0  0  0  0  0  0  0
    0.7331    0.4847   -3.4496 H   0  0  0  0  0  0  0  0  0  0  0  0
    2.8512   -1.4788   -2.3870 H   0  0  0  0  0  0  0  0  0  0  0  0
    3.0005   -0.5192   -3.8641 H   0  0  0  0  0  0  0  0  0  0  0  0
    2.9463    0.2848   -2.2841 H   0  0  0  0  0  0  0  0  0  0  0  0
    0.6059   -1.4696   -5.1146 N   0  0  0  0  0  0  0  0  0  0  0  0
    0.1561   -2.4558   -6.0691 C   0  0  0  0  0  0  0  0  0  0  0  0
    1.0140   -0.6123   -5.4755 H   0  0  0  0  0  0  0  0  0  0  0  0
    0.9802   -3.1475   -6.2983 H   0  0  0  0  0  0  0  0  0  0  0  0
   -0.6878   -3.0190   -5.6441 H   0  0  0  0  0  0  0  0  0  0  0  0
   -0.1669   -1.9519   -6.9920 H   0  0  0  0  0  0  0  0  0  0  0  0
  1  3  1  0  0  0  0
  1  7  1  0  0  0  0
  1  2  2  0  0  0  0
 32 33  1  0  0  0  0
 33 41  1  0  0  0  0
 33 34  2  0  0  0  0
  8  9  1  0  0  0  0
  9 17  1  0  0  0  0
  9 10  2  0  0  0  0
 18 19  1  0  0  0  0
 19 31  1  0  0  0  0
 19 20  2  0  0  0  0
 32 35  1  0  0  0  0
  8 11  1  0  0  0  0
 21 23  1  0  0  0  0
 41 42  1  0  0  0  0
 31 32  1  0  0  0  0
  7  8  1  0  0  0  0
 18 21  1  0  0  0  0
 17 18  1  0  0  0  0
 21 22  1  0  0  0  0
  3  4  1  0  0  0  0
  3  5  1  0  0  0  0
  3  6  1  0  0  0  0
 35 38  1  0  0  0  0
 35 39  1  0  0  0  0
 35 40  1  0  0  0  0
 11 14  1  0  0  0  0
 11 15  1  0  0  0  0
 11 16  1  0  0  0  0
 23 28  1  0  0  0  0
 23 29  1  0  0  0  0
 23 30  1  0  0  0  0
 42 44  1  0  0  0  0
 42 45  1  0  0  0  0
 42 46  1  0  0  0  0
 32 37  1  0  0  0  0
  8 13  1  0  0  0  0
 18 25  1  0  0  0  0
 21 26  1  0  0  0  0
 41 43  1  0  0  0  0
  7 12  1  0  0  0  0
 31 36  1  0  0  0  0
 17 24  1  0  0  0  0
 22 27  1  0  0  0  0
M  END
$$$$

  -OEChem-05262214473D

 46 45  0     1  0  0  0  0  0999 V2000
   -4.6700    2.7214    1.5150 C   0  0  0  0  0  0  0  0  0  0  0  0
   -5.4532    2.5715    0.5845 O   0  0  0  0  0  0  0  0  0  0  0  0
   -5.0996    3.4865    2.7226 C   0  0  0  0  0  0  0  0  0  0  0  0
   -4.8796    4.5629    2.6387 H   0  0  0  0  0  0  0  0  0  0  0  0
   -6.1861    3.4241    2.8954 H   0  0  0  0  0  0  0  0  0  0  0  0
   -4.6369    3.1693    3.6708 H   0  0  0  0  0  0  0  0  0  0  0  0
   -3.3731    2.2391    1.5790 N   0  0  0  0  0  0  0  0  0  0  0  0
   -2.7599    1.4751    0.5247 C   0  0  2  0  0  0  0  0  0  0  0  0
   -1.5143    0.8067    1.0915 C   0  0  0  0  0  0  0  0  0  0  0  0
   -0.9247    1.2213    2.0872 O   0  0  0  0  0  0  0  0  0  0  0  0
   -2.4106    2.3553   -0.6653 C   0  0  0  0  0  0  0  0  0  0  0  0
   -2.8254    2.4352    2.4150 H   0  0  0  0  0  0  0  0  0  0  0  0
   -3.4836    0.7082    0.2278 H   0  0  0  0  0  0  0  0  0  0  0  0
   -1.6866    3.1298   -0.3871 H   0  0  0  0  0  0  0  0  0  0  0  0
   -1.9704    1.7677   -1.4777 H   0  0  0  0  0  0  0  0  0  0  0  0
   -3.3030    2.8584   -1.0531 H   0  0  0  0  0  0  0  0  0  0  0  0
   -1.1107   -0.2839    0.3303 N   0  0  0  0  0  0  0  0  0  0  0  0
    0.0490   -1.0750    0.6539 C   0  0  2  0  0  0  0  0  0  0  0  0
    0.8253   -1.3049   -0.6396 C   0  0  0  0  0  0  0  0  0  0  0  0
    1.5378   -2.2889   -0.8278 O   0  0  0  0  0  0  0  0  0  0  0  0
   -0.3084   -2.4009    1.3413 C   0  0  2  0  0  0  0  0  0  0  0  0
   -1.1197   -3.2084    0.4896 O   0  0  0  0  0  0  0  0  0  0  0  0
   -1.0693   -2.1880    2.6444 C   0  0  0  0  0  0  0  0  0  0  0  0
   -1.6733   -0.5660   -0.4691 H   0  0  0  0  0  0  0  0  0  0  0  0
    0.6662   -0.4620    1.3220 H   0  0  0  0  0  0  0  0  0  0  0  0
    0.6010   -2.9722    1.5611 H   0  0  0  0  0  0  0  0  0  0  0  0
   -1.2658   -4.0432    0.9601 H   0  0  0  0  0  0  0  0  0  0  0  0
   -1.9912   -1.6194    2.4811 H   0  0  0  0  0  0  0  0  0  0  0  0
   -0.4555   -1.6623    3.3820 H   0  0  0  0  0  0  0  0  0  0  0  0
   -1.3713   -3.1522    3.0679 H   0  0  0  0  0  0  0  0  0  0  0  0
    0.6675   -0.2588   -1.5375 N   0  0  0  0  0  0  0  0  0  0  0  0
    1.3293   -0.2295   -2.8207 C   0  0  2  0  0  0  0  0  0  0  0  0
    0.5596   -1.1407   -3.7677 C   0  0  0  0  0  0  0  0  0  0  0  0
   -0.1692   -2.0509   -3.3784 O   0  0  0  0  0  0  0  0  0  0  0  0
    2.7809   -0.6678   -2.7047 C   0  0  0  0  0  0  0  0  0  0  0  0
    0.0630    0.5166   -1.2823 H   0  0  0  0  0  0  0  0  0  0  0  0
    1.2742    0.8033   -3.1815 H   0  0  0  0  0  0  0  0  0  0  0  0
    2.8562   -1.7003   -2.3446 H   0  0  0  0  0  0  0  0  0  0  0  0
    3.2891   -0.6177   -3.6734 H   0  0  0  0  0  0  0  0  0  0  0  0
    3.3256   -0.0296   -2.0006 H   0  0  0  0  0  0  0  0  0  0  0  0
    0.8160   -0.8457   -5.0994 N   0  0  0  0  0  0  0  0  0  0  0  0
    0.2151   -1.5776   -6.1898 C   0  0  0  0  0  0  0  0  0  0  0  0
    1.4190   -0.0616   -5.3303 H   0  0  0  0  0  0  0  0  0  0  0  0
    0.8806   -2.4001   -6.4909 H   0  0  0  0  0  0  0  0  0  0  0  0
   -0.7524   -1.9889   -5.8661 H   0  0  0  0  0  0  0  0  0  0  0  0
    0.0589   -0.9014   -7.0432 H   0  0  0  0  0  0  0  0  0  0  0  0
  1  3  1  0  0  0  0
  1  7  1  0  0  0  0
  1  2  2  0  0  0  0
 32 33  1  0  0  0  0
 33 41  1  0  0  0  0
 33 34  2  0  0  0  0
  8  9  1  0  0  0  0
  9 17  1  0  0  0  0
  9 10  2  0  0  0  0
 18 19  1  0  0  0  0
 19 31  1  0  0  0  0
 19 20  2  0  0  0  0
 32 35  1  0  0  0  0
  8 11  1  0  0  0  0
 21 23  1  0  0  0  0
 41 42  1  0  0  0  0
 31 32  1  0  0  0  0
  7  8  1  0  0  0  0
 18 21  1  0  0  0  0
 17 18  1  0  0  0  0
 21 22  1  0  0  0  0
  3  4  1  0  0  0  0
  3  5  1  0  0  0  0
  3  6  1  0  0  0  0
 35 38  1  0  0  0  0
 35 39  1  0  0  0  0
 35 40  1  0  0  0  0
 11 14  1  0  0  0  0
 11 15  1  0  0  0  0
 11 16  1  0  0  0  0
 23 28  1  0  0  0  0
 23 29  1  0  0  0  0
 23 30  1  0  0  0  0
 42 44  1  0  0  0  0
 42 45  1  0  0  0  0
 42 46  1  0  0  0  0
 32 37  1  0  0  0  0
  8 13  1  0  0  0  0
 18 25  1  0  0  0  0
 21 26  1  0  0  0  0
 41 43  1  0  0  0  0
  7 12  1  0  0  0  0
 31 36  1  0  0  0  0
 17 24  1  0  0  0  0
 22 27  1  0  0  0  0
M  END
$$$$

  -OEChem-05262214473D

 46 45  0     1  0  0  0  0  0999 V2000
   -4.6700    2.7214    1.5150 C   0  0  0  0  0  0  0  0  0  0  0  0
   -5.4532    2.5715    0.5845 O   0  0  0  0  0  0  0  0  0  0  0  0
   -5.0996    3.4865    2.7226 C   0  0  0  0  0  0  0  0  0  0  0  0
   -4.8796    4.5629    2.6387 H   0  0  0  0  0  0  0  0  0  0  0  0
   -6.1861    3.4241    2.8954 H   0  0  0  0  0  0  0  0  0  0  0  0
   -4.6369    3.1693    3.6708 H   0  0  0  0  0  0  0  0  0  0  0  0
   -3.3731    2.2391    1.5790 N   0  0  0  0  0  0  0  0  0  0  0  0
   -2.7599    1.4751    0.5247 C   0  0  2  0  0  0  0  0  0  0  0  0
   -1.5143    0.8067    1.0915 C   0  0  0  0  0  0  0  0  0  0  0  0
   -0.9247    1.2213    2.0872 O   0  0  0  0  0  0  0  0  0  0  0  0
   -2.4106    2.3553   -0.6653 C   0  0  0  0  0  0  0  0  0  0  0  0
   -2.8254    2.4352    2.4150 H   0  0  0  0  0  0  0  0  0  0  0  0
   -3.4836    0.7082    0.2278 H   0  0  0  0  0  0  0  0  0  0  0  0
   -1.6866    3.1298   -0.3871 H   0  0  0  0  0  0  0  0  0  0  0  0
   -1.9704    1.7677   -1.4777 H   0  0  0  0  0  0  0  0  0  0  0  0
   -3.3030    2.8584   -1.0531 H   0  0  0  0  0  0  0  0  0  0  0  0
   -1.1107   -0.2839    0.3303 N   0  0  0  0  0  0  0  0  0  0  0  0
    0.0490   -1.0750    0.6539 C   0  0  2  0  0  0  0  0  0  0  0  0
    0.8253   -1.3049   -0.6396 C   0  0  0  0  0  0  0  0  0  0  0  0
    1.3166   -2.3903   -0.9425 O   0  0  0  0  0  0  0  0  0  0  0  0
   -0.3084   -2.4009    1.3413 C   0  0  2  0  0  0  0  0  0  0  0  0
   -1.1197   -3.2084    0.4896 O   0  0  0  0  0  0  0  0  0  0  0  0
   -1.0693   -2.1880    2.6444 C   0  0  0  0  0  0  0  0  0  0  0  0
   -1.6733   -0.5660   -0.4691 H   0  0  0  0  0  0  0  0  0  0  0  0
    0.6662   -0.4620    1.3220 H   0  0  0  0  0  0  0  0  0  0  0  0
    0.6010   -2.9722    1.5611 H   0  0  0  0  0  0  0  0  0  0  0  0
   -1.2658   -4.0432    0.9601 H   0  0  0  0  0  0  0  0  0  0  0  0
   -1.9912   -1.6194    2.4811 H   0  0  0  0  0  0  0  0  0  0  0  0
   -0.4555   -1.6623    3.3820 H   0  0  0  0  0  0  0  0  0  0  0  0
   -1.3713   -3.1522    3.0679 H   0  0  0  0  0  0  0  0  0  0  0  0
    0.9465   -0.1443   -1.3905 N   0  0  0  0  0  0  0  0  0  0  0  0
    1.6668   -0.0995   -2.6413 C   0  0  2  0  0  0  0  0  0  0  0  0
    0.7698   -0.6890   -3.7218 C   0  0  0  0  0  0  0  0  0  0  0  0
   -0.1588   -1.4565   -3.4777 O   0  0  0  0  0  0  0  0  0  0  0  0
    2.9805   -0.8602   -2.5507 C   0  0  0  0  0  0  0  0  0  0  0  0
    0.5116    0.7070   -1.0469 H   0  0  0  0  0  0  0  0  0  0  0  0
    1.8564    0.9571   -2.8594 H   0  0  0  0  0  0  0  0  0  0  0  0
    2.8107   -1.9209   -2.3327 H   0  0  0  0  0  0  0  0  0  0  0  0
    3.5387   -0.8013   -3.4910 H   0  0  0  0  0  0  0  0  0  0  0  0
    3.6120   -0.4539   -1.7533 H   0  0  0  0  0  0  0  0  0  0  0  0
    1.1553   -0.2911   -4.9943 N   0  0  0  0  0  0  0  0  0  0  0  0
    0.4694   -0.7264   -6.1885 C   0  0  0  0  0  0  0  0  0  0  0  0
    1.9254    0.3624   -5.1017 H   0  0  0  0  0  0  0  0  0  0  0  0
    0.9560   -1.6309   -6.5824 H   0  0  0  0  0  0  0  0  0  0  0  0
   -0.5802   -0.9504   -5.9473 H   0  0  0  0  0  0  0  0  0  0  0  0
    0.5096    0.0706   -6.9455 H   0  0  0  0  0  0  0  0  0  0  0  0
  1  3  1  0  0  0  0
  1  7  1  0  0  0  0
  1  2  2  0  0  0  0
 32 33  1  0  0  0  0
 33 41  1  0  0  0  0
 33 34  2  0  0  0  0
  8  9  1  0  0  0  0
  9 17  1  0  0  0  0
  9 10  2  0  0  0  0
 18 19  1  0  0  0  0
 19 31  1  0  0  0  0
 19 20  2  0  0  0  0
 32 35  1  0  0  0  0
  8 11  1  0  0  0  0
 21 23  1  0  0  0  0
 41 42  1  0  0  0  0
 31 32  1  0  0  0  0
  7  8  1  0  0  0  0
 18 21  1  0  0  0  0
 17 18  1  0  0  0  0
 21 22  1  0  0  0  0
  3  4  1  0  0  0  0
  3  5  1  0  0  0  0
  3  6  1  0  0  0  0
 35 38  1  0  0  0  0
 35 39  1  0  0  0  0
 35 40  1  0  0  0  0
 11 14  1  0  0  0  0
 11 15  1  0  0  0  0
 11 16  1  0  0  0  0
 23 28  1  0  0  0  0
 23 29  1  0  0  0  0
 23 30  1  0  0  0  0
 42 44  1  0  0  0  0
 42 45  1  0  0  0  0
 42 46  1  0  0  0  0
 32 37  1  0  0  0  0
  8 13  1  0  0  0  0
 18 25  1  0  0  0  0
 21 26  1  0  0  0  0
 41 43  1  0  0  0  0
  7 12  1  0  0  0  0
 31 36  1  0  0  0  0
 17 24  1  0  0  0  0
 22 27  1  0  0  0  0
M  END
$$$$

  -OEChem-05262214473D

 46 45  0     1  0  0  0  0  0999 V2000
   -4.6700    2.7214    1.5150 C   0  0  0  0  0  0  0  0  0  0  0  0
   -5.4532    2.5715    0.5845 O   0  0  0  0  0  0  0  0  0  0  0  0
   -5.0996    3.4865    2.7226 C   0  0  0  0  0  0  0  0  0  0  0  0
   -4.8796    4.5629    2.6387 H   0  0  0  0  0  0  0  0  0  0  0  0
   -6.1861    3.4241    2.8954 H   0  0  0  0  0  0  0  0  0  0  0  0
   -4.6369    3.1693    3.6708 H   0  0  0  0  0  0  0  0  0  0  0  0
   -3.3731    2.2391    1.5790 N   0  0  0  0  0  0  0  0  0  0  0  0
   -2.7599    1.4751    0.5247 C   0  0  2  0  0  0  0  0  0  0  0  0
   -1.5143    0.8067    1.0915 C   0  0  0  0  0  0  0  0  0  0  0  0
   -0.9247    1.2213    2.0872 O   0  0  0  0  0  0  0  0  0  0  0  0
   -2.4106    2.3553   -0.6653 C   0  0  0  0  0  0  0  0  0  0  0  0
   -2.8254    2.4352    2.4150 H   0  0  0  0  0  0  0  0  0  0  0  0
   -3.4836    0.7082    0.2278 H   0  0  0  0  0  0  0  0  0  0  0  0
   -1.6866    3.1298   -0.3871 H   0  0  0  0  0  0  0  0  0  0  0  0
   -1.9704    1.7677   -1.4777 H   0  0  0  0  0  0  0  0  0  0  0  0
   -3.3030    2.8584   -1.0531 H   0  0  0  0  0  0  0  0  0  0  0  0
   -1.1107   -0.2839    0.3303 N   0  0  0  0  0  0  0  0  0  0  0  0
    0.0490   -1.0750    0.6539 C   0  0  2  0  0  0  0  0  0  0  0  0
    0.8253   -1.3049   -0.6396 C   0  0  0  0  0  0  0  0  0  0  0  0
    1.0852   -2.4247   -1.0753 O   0  0  0  0  0  0  0  0  0  0  0  0
   -0.3084   -2.4009    1.3413 C   0  0  2  0  0  0  0  0  0  0  0  0
   -1.1197   -3.2084    0.4896 O   0  0  0  0  0  0  0  0  0  0  0  0
   -1.0693   -2.1880    2.6444 C   0  0  0  0  0  0  0  0  0  0  0  0
   -1.6733   -0.5660   -0.4691 H   0  0  0  0  0  0  0  0  0  0  0  0
    0.6662   -0.4620    1.3220 H   0  0  0  0  0  0  0  0  0  0  0  0
    0.6010   -2.9722    1.5611 H   0  0  0  0  0  0  0  0  0  0  0  0
   -1.2658   -4.0432    0.9601 H   0  0  0  0  0  0  0  0  0  0  0  0
   -1.9912   -1.6194    2.4811 H   0  0  0  0  0  0  0  0  0  0  0  0
   -0.4555   -1.6623    3.3820 H   0  0  0  0  0  0  0  0  0  0  0  0
   -1.3713   -3.1522    3.0679 H   0  0  0  0  0  0  0  0  0  0  0  0
    1.2353   -0.1142   -1.2224 N   0  0  0  0  0  0  0  0  0  0  0  0
    2.0143   -0.0716   -2.4377 C   0  0  2  0  0  0  0  0  0  0  0  0
    1.0703   -0.3047   -3.6098 C   0  0  0  0  0  0  0  0  0  0  0  0
   -0.0144   -0.8717   -3.4951 O   0  0  0  0  0  0  0  0  0  0  0  0
    3.1251   -1.1101   -2.4195 C   0  0  0  0  0  0  0  0  0  0  0  0
    0.9775    0.7615   -0.7770 H   0  0  0  0  0  0  0  0  0  0  0  0
    2.4399    0.9355   -2.5054 H   0  0  0  0  0  0  0  0  0  0  0  0
    2.7180   -2.1256   -2.3520 H   0  0  0  0  0  0  0  0  0  0  0  0
    3.7324   -1.0574   -3.3292 H   0  0  0  0  0  0  0  0  0  0  0  0
    3.7859   -0.9591   -1.5591 H   0  0  0  0  0  0  0  0  0  0  0  0
    1.6005    0.1563   -4.8066 N   0  0  0  0  0  0  0  0  0  0  0  0
    0.9017    0.0398   -6.0652 C   0  0  0  0  0  0  0  0  0  0  0  0
    2.4986    0.6308   -4.8054 H   0  0  0  0  0  0  0  0  0  0  0  0
    1.2011   -0.8925   -6.5665 H   0  0  0  0  0  0  0  0  0  0  0  0
   -0.1829    0.0255   -5.8823 H   0  0  0  0  0  0  0  0  0  0  0  0
    1.1543    0.8978   -6.7056 H   0  0  0  0  0  0  0  0  0  0  0  0
  1  3  1  0  0  0  0
  1  7  1  0  0  0  0
  1  2  2  0  0  0  0
 32 33  1  0  0  0  0
 33 41  1  0  0  0  0
 33 34  2  0  0  0  0
  8  9  1  0  0  0  0
  9 17  1  0  0  0  0
  9 10  2  0  0  0  0
 18 19  1  0  0  0  0
 19 31  1  0  0  0  0
 19 20  2  0  0  0  0
 32 35  1  0  0  0  0
  8 11  1  0  0  0  0
 21 23  1  0  0  0  0
 41 42  1  0  0  0  0
 31 32  1  0  0  0  0
  7  8  1  0  0  0  0
 18 21  1  0  0  0  0
 17 18  1  0  0  0  0
 21 22  1  0  0  0  0
  3  4  1  0  0  0  0
  3  5  1  0  0  0  0
  3  6  1  0  0  0  0
 35 38  1  0  0  0  0
 35 39  1  0  0  0  0
 35 40  1  0  0  0  0
 11 14  1  0  0  0  0
 11 15  1  0  0  0  0
 11 16  1  0  0  0  0
 23 28  1  0  0  0  0
 23 29  1  0  0  0  0
 23 30  1  0  0  0  0
 42 44  1  0  0  0  0
 42 45  1  0  0  0  0
 42 46  1  0  0  0  0
 32 37  1  0  0  0  0
  8 13  1  0  0  0  0
 18 25  1  0  0  0  0
 21 26  1  0  0  0  0
 41 43  1  0  0  0  0
  7 12  1  0  0  0  0
 31 36  1  0  0  0  0
 17 24  1  0  0  0  0
 22 27  1  0  0  0  0
M  END
$$$$

  -OEChem-05262214473D

 46 45  0     1  0  0  0  0  0999 V2000
   -4.6700    2.7214    1.5150 C   0  0  0  0  0  0  0  0  0  0  0  0
   -5.4532    2.5715    0.5845 O   0  0  0  0  0  0  0  0  0  0  0  0
   -5.0996    3.4865    2.7226 C   0  0  0  0  0  0  0  0  0  0  0  0
   -4.8796    4.5629    2.6387 H   0  0  0  0  0  0  0  0  0  0  0  0
   -6.1861    3.4241    2.8954 H   0  0  0  0  0  0  0  0  0  0  0  0
   -4.6369    3.1693    3.6708 H   0  0  0  0  0  0  0  0  0  0  0  0
   -3.3731    2.2391    1.5790 N   0  0  0  0  0  0  0  0  0  0  0  0
   -2.7599    1.4751    0.5247 C   0  0  2  0  0  0  0  0  0  0  0  0
   -1.5143    0.8067    1.0915 C   0  0  0  0  0  0  0  0  0  0  0  0
   -0.9247    1.2213    2.0872 O   0  0  0  0  0  0  0  0  0  0  0  0
   -2.4106    2.3553   -0.6653 C   0  0  0  0  0  0  0  0  0  0  0  0
   -2.8254    2.4352    2.4150 H   0  0  0  0  0  0  0  0  0  0  0  0
   -3.4836    0.7082    0.2278 H   0  0  0  0  0  0  0  0  0  0  0  0
   -1.6866    3.1298   -0.3871 H   0  0  0  0  0  0  0  0  0  0  0  0
   -1.9704    1.7677   -1.4777 H   0  0  0  0  0  0  0  0  0  0  0  0
   -3.3030    2.8584   -1.0531 H   0  0  0  0  0  0  0  0  0  0  0  0
   -1.1107   -0.2839    0.3303 N   0  0  0  0  0  0  0  0  0  0  0  0
    0.0490   -1.0750    0.6539 C   0  0  2  0  0  0  0  0  0  0  0  0
    0.8253   -1.3049   -0.6396 C   0  0  0  0  0  0  0  0  0  0  0  0
    0.8593   -2.3896   -1.2171 O   0  0  0  0  0  0  0  0  0  0  0  0
   -0.3084   -2.4009    1.3413 C   0  0  2  0  0  0  0  0  0  0  0  0
   -1.1197   -3.2084    0.4896 O   0  0  0  0  0  0  0  0  0  0  0  0
   -1.0693   -2.1880    2.6444 C   0  0  0  0  0  0  0  0  0  0  0  0
   -1.6733   -0.5660   -0.4691 H   0  0  0  0  0  0  0  0  0  0  0  0
    0.6662   -0.4620    1.3220 H   0  0  0  0  0  0  0  0  0  0  0  0
    0.6010   -2.9722    1.5611 H   0  0  0  0  0  0  0  0  0  0  0  0
   -1.2658   -4.0432    0.9601 H   0  0  0  0  0  0  0  0  0  0  0  0
   -1.9912   -1.6194    2.4811 H   0  0  0  0  0  0  0  0  0  0  0  0
   -0.4555   -1.6623    3.3820 H   0  0  0  0  0  0  0  0  0  0  0  0
   -1.3713   -3.1522    3.0679 H   0  0  0  0  0  0  0  0  0  0  0  0
    1.5144   -0.1707   -1.0449 N   0  0  0  0  0  0  0  0  0  0  0  0
    2.3482   -0.1477   -2.2238 C   0  0  2  0  0  0  0  0  0  0  0  0
    1.4404   -0.0143   -3.4393 C   0  0  0  0  0  0  0  0  0  0  0  0
    0.2540   -0.3361   -3.4291 O   0  0  0  0  0  0  0  0  0  0  0  0
    3.2048   -1.4006   -2.3201 C   0  0  0  0  0  0  0  0  0  0  0  0
    1.4290    0.6764   -0.4909 H   0  0  0  0  0  0  0  0  0  0  0  0
    2.9849    0.7400   -2.1435 H   0  0  0  0  0  0  0  0  0  0  0  0
    2.5842   -2.3004   -2.4012 H   0  0  0  0  0  0  0  0  0  0  0  0
    3.8571   -1.3686   -3.1991 H   0  0  0  0  0  0  0  0  0  0  0  0
    3.8355   -1.5107   -1.4313 H   0  0  0  0  0  0  0  0  0  0  0  0
    2.1214    0.4661   -4.5491 N   0  0  0  0  0  0  0  0  0  0  0  0
    1.4826    0.6688   -5.8284 C   0  0  0  0  0  0  0  0  0  0  0  0
    3.0996    0.7253   -4.4615 H   0  0  0  0  0  0  0  0  0  0  0  0
    1.5993   -0.2350   -6.4444 H   0  0  0  0  0  0  0  0  0  0  0  0
    0.4125    0.8725   -5.6756 H   0  0  0  0  0  0  0  0  0  0  0  0
    1.9492    1.5237   -6.3398 H   0  0  0  0  0  0  0  0  0  0  0  0
  1  3  1  0  0  0  0
  1  7  1  0  0  0  0
  1  2  2  0  0  0  0
 32 33  1  0  0  0  0
 33 41  1  0  0  0  0
 33 34  2  0  0  0  0
  8  9  1  0  0  0  0
  9 17  1  0  0  0  0
  9 10  2  0  0  0  0
 18 19  1  0  0  0  0
 19 31  1  0  0  0  0
 19 20  2  0  0  0  0
 32 35  1  0  0  0  0
  8 11  1  0  0  0  0
 21 23  1  0  0  0  0
 41 42  1  0  0  0  0
 31 32  1  0  0  0  0
  7  8  1  0  0  0  0
 18 21  1  0  0  0  0
 17 18  1  0  0  0  0
 21 22  1  0  0  0  0
  3  4  1  0  0  0  0
  3  5  1  0  0  0  0
  3  6  1  0  0  0  0
 35 38  1  0  0  0  0
 35 39  1  0  0  0  0
 35 40  1  0  0  0  0
 11 14  1  0  0  0  0
 11 15  1  0  0  0  0
 11 16  1  0  0  0  0
 23 28  1  0  0  0  0
 23 29  1  0  0  0  0
 23 30  1  0  0  0  0
 42 44  1  0  0  0  0
 42 45  1  0  0  0  0
 42 46  1  0  0  0  0
 32 37  1  0  0  0  0
  8 13  1  0  0  0  0
 18 25  1  0  0  0  0
 21 26  1  0  0  0  0
 41 43  1  0  0  0  0
  7 12  1  0  0  0  0
 31 36  1  0  0  0  0
 17 24  1  0  0  0  0
 22 27  1  0  0  0  0
M  END
$$$$

  -OEChem-05262214473D

 46 45  0     1  0  0  0  0  0999 V2000
   -4.6700    2.7214    1.5150 C   0  0  0  0  0  0  0  0  0  0  0  0
   -5.4532    2.5715    0.5845 O   0  0  0  0  0  0  0  0  0  0  0  0
   -5.0996    3.4865    2.7226 C   0  0  0  0  0  0  0  0  0  0  0  0
   -4.8796    4.5629    2.6387 H   0  0  0  0  0  0  0  0  0  0  0  0
   -6.1861    3.4241    2.8954 H   0  0  0  0  0  0  0  0  0  0  0  0
   -4.6369    3.1693    3.6708 H   0  0  0  0  0  0  0  0  0  0  0  0
   -3.3731    2.2391    1.5790 N   0  0  0  0  0  0  0  0  0  0  0  0
   -2.7599    1.4751    0.5247 C   0  0  2  0  0  0  0  0  0  0  0  0
   -1.5143    0.8067    1.0915 C   0  0  0  0  0  0  0  0  0  0  0  0
   -0.9247    1.2213    2.0872 O   0  0  0  0  0  0  0  0  0  0  0  0
   -2.4106    2.3553   -0.6653 C   0  0  0  0  0  0  0  0  0  0  0  0
   -2.8254    2.4352    2.4150 H   0  0  0  0  0  0  0  0  0  0  0  0
   -3.4836    0.7082    0.2278 H   0  0  0  0  0  0  0  0  0  0  0  0
   -1.6866    3.1298   -0.3871 H   0  0  0  0  0  0  0  0  0  0  0  0
   -1.9704    1.7677   -1.4777 H   0  0  0  0  0  0  0  0  0  0  0  0
   -3.3030    2.8584   -1.0531 H   0  0  0  0  0  0  0  0  0  0  0  0
   -1.1107   -0.2839    0.3303 N   0  0  0  0  0  0  0  0  0  0  0  0
    0.0490   -1.0750    0.6539 C   0  0  2  0  0  0  0  0  0  0  0  0
    0.8253   -1.3049   -0.6396 C   0  0  0  0  0  0  0  0  0  0  0  0
    0.6543   -2.2875   -1.3583 O   0  0  0  0  0  0  0  0  0  0  0  0
   -0.3084   -2.4009    1.3413 C   0  0  2  0  0  0  0  0  0  0  0  0
   -1.1197   -3.2084    0.4896 O   0  0  0  0  0  0  0  0  0  0  0  0
   -1.0693   -2.1880    2.6444 C   0  0  0  0  0  0  0  0  0  0  0  0
   -1.6733   -0.5660   -0.4691 H   0  0  0  0  0  0  0  0  0  0  0  0
    0.6662   -0.4620    1.3220 H   0  0  0  0  0  0  0  0  0  0  0  0
    0.6010   -2.9722    1.5611 H   0  0  0  0  0  0  0  0  0  0  0  0
   -1.2658   -4.0432    0.9601 H   0  0  0  0  0  0  0  0  0  0  0  0
   -1.9912   -1.6194    2.4811 H   0  0  0  0  0  0  0  0  0  0  0  0
   -0.4555   -1.6623    3.3820 H   0  0  0  0  0  0  0  0  0  0  0  0
   -1.3713   -3.1522    3.0679 H   0  0  0  0  0  0  0  0  0  0  0  0
    1.7646   -0.3098   -0.8700 N   0  0  0  0  0  0  0  0  0  0  0  0
    2.6456   -0.3226   -2.0141 C   0  0  2  0  0  0  0  0  0  0  0  0
    1.8549    0.1627   -3.2220 C   0  0  0  0  0  0  0  0  0  0  0  0
    0.6282    0.1136   -3.2845 O   0  0  0  0  0  0  0  0  0  0  0  0
    3.2142   -1.7117   -2.2591 C   0  0  0  0  0  0  0  0  0  0  0  0
    1.8353    0.4575   -0.2081 H   0  0  0  0  0  0  0  0  0  0  0  0
    3.4544    0.3840   -1.7985 H   0  0  0  0  0  0  0  0  0  0  0  0
    2.4186   -2.4335   -2.4769 H   0  0  0  0  0  0  0  0  0  0  0  0
    3.9041   -1.7137   -3.1095 H   0  0  0  0  0  0  0  0  0  0  0  0
    3.7573   -2.0713   -1.3785 H   0  0  0  0  0  0  0  0  0  0  0  0
    2.6825    0.6171   -4.2392 N   0  0  0  0  0  0  0  0  0  0  0  0
    2.1724    1.1178   -5.4942 C   0  0  0  0  0  0  0  0  0  0  0  0
    3.6875    0.6393   -4.0934 H   0  0  0  0  0  0  0  0  0  0  0  0
    2.1233    0.2966   -6.2244 H   0  0  0  0  0  0  0  0  0  0  0  0
    1.1653    1.5329   -5.3411 H   0  0  0  0  0  0  0  0  0  0  0  0
    2.8400    1.9057   -5.8730 H   0  0  0  0  0  0  0  0  0  0  0  0
  1  3  1  0  0  0  0
  1  7  1  0  0  0  0
  1  2  2  0  0  0  0
 32 33  1  0  0  0  0
 33 41  1  0  0  0  0
 33 34  2  0  0  0  0
  8  9  1  0  0  0  0
  9 17  1  0  0  0  0
  9 10  2  0  0  0  0
 18 19  1  0  0  0  0
 19 31  1  0  0  0  0
 19 20  2  0  0  0  0
 32 35  1  0  0  0  0
  8 11  1  0  0  0  0
 21 23  1  0  0  0  0
 41 42  1  0  0  0  0
 31 32  1  0  0  0  0
  7  8  1  0  0  0  0
 18 21  1  0  0  0  0
 17 18  1  0  0  0  0
 21 22  1  0  0  0  0
  3  4  1  0  0  0  0
  3  5  1  0  0  0  0
  3  6  1  0  0  0  0
 35 38  1  0  0  0  0
 35 39  1  0  0  0  0
 35 40  1  0  0  0  0
 11 14  1  0  0  0  0
 11 15  1  0  0  0  0
 11 16  1  0  0  0  0
 23 28  1  0  0  0  0
 23 29  1  0  0  0  0
 23 30  1  0  0  0  0
 42 44  1  0  0  0  0
 42 45  1  0  0  0  0
 42 46  1  0  0  0  0
 32 37  1  0  0  0  0
  8 13  1  0  0  0  0
 18 25  1  0  0  0  0
 21 26  1  0  0  0  0
 41 43  1  0  0  0  0
  7 12  1  0  0  0  0
 31 36  1  0  0  0  0
 17 24  1  0  0  0  0
 22 27  1  0  0  0  0
M  END
$$$$

  -OEChem-05262214473D

 46 45  0     1  0  0  0  0  0999 V2000
   -4.6700    2.7214    1.5150 C   0  0  0  0  0  0  0  0  0  0  0  0
   -5.4532    2.5715    0.5845 O   0  0  0  0  0  0  0  0  0  0  0  0
   -5.0996    3.4865    2.7226 C   0  0  0  0  0  0  0  0  0  0  0  0
   -4.8796    4.5629    2.6387 H   0  0  0  0  0  0  0  0  0  0  0  0
   -6.1861    3.4241    2.8954 H   0  0  0  0  0  0  0  0  0  0  0  0
   -4.6369    3.1693    3.6708 H   0  0  0  0  0  0  0  0  0  0  0  0
   -3.3731    2.2391    1.5790 N   0  0  0  0  0  0  0  0  0  0  0  0
   -2.7599    1.4751    0.5247 C   0  0  2  0  0  0  0  0  0  0  0  0
   -1.5143    0.8067    1.0915 C   0  0  0  0  0  0  0  0  0  0  0  0
   -0.9247    1.2213    2.0872 O   0  0  0  0  0  0  0  0  0  0  0  0
   -2.4106    2.3553   -0.6653 C   0  0  0  0  0  0  0  0  0  0  0  0
   -2.8254    2.4352    2.4150 H   0  0  0  0  0  0  0  0  0  0  0  0
   -3.4836    0.7082    0.2278 H   0  0  0  0  0  0  0  0  0  0  0  0
   -1.6866    3.1298   -0.3871 H   0  0  0  0  0  0  0  0  0  0  0  0
   -1.9704    1.7677   -1.4777 H   0  0  0  0  0  0  0  0  0  0  0  0
   -3.3030    2.8584   -1.0531 H   0  0  0  0  0  0  0  0  0  0  0  0
   -1.1107   -0.2839    0.3303 N   0  0  0  0  0  0  0  0  0  0  0  0
    0.0490   -1.0750    0.6539 C   0  0  2  0  0  0  0  0  0  0  0  0
    0.8253   -1.3049   -0.6396 C   0  0  0  0  0  0  0  0  0  0  0  0
    0.4842   -2.1253   -1.4892 O   0  0  0  0  0  0  0  0  0  0  0  0
   -0.3084   -2.4009    1.3413 C   0  0  2  0  0  0  0  0  0  0  0  0
   -1.1197   -3.2084    0.4896 O   0  0  0  0  0  0  0  0  0  0  0  0
   -1.0693   -2.1880    2.6444 C   0  0  0  0  0  0  0  0  0  0  0  0
   -1.6733   -0.5660   -0.4691 H   0  0  0  0  0  0  0  0  0  0  0  0
    0.6662   -0.4620    1.3220 H   0  0  0  0  0  0  0  0  0  0  0  0
    0.6010   -2.9722    1.5611 H   0  0  0  0  0  0  0  0  0  0  0  0
   -1.2658   -4.0432    0.9601 H   0  0  0  0  0  0  0  0  0  0  0  0
   -1.9912   -1.6194    2.4811 H   0  0  0  0  0  0  0  0  0  0  0  0
   -0.4555   -1.6623    3.3820 H   0  0  0  0  0  0  0  0  0  0  0  0
   -1.3713   -3.1522    3.0679 H   0  0  0  0  0  0  0  0  0  0  0  0
    1.9690   -0.5222   -0.7096 N   0  0  0  0  0  0  0  0  0  0  0  0
    2.8864   -0.5845   -1.8231 C   0  0  2  0  0  0  0  0  0  0  0  0
    2.2857    0.2140   -2.9725 C   0  0  0  0  0  0  0  0  0  0  0  0
    1.0827    0.4468   -3.0710 O   0  0  0  0  0  0  0  0  0  0  0  0
    3.1527   -2.0223   -2.2409 C   0  0  0  0  0  0  0  0  0  0  0  0
    2.1687    0.1196    0.0520 H   0  0  0  0  0  0  0  0  0  0  0  0
    3.8164   -0.1084   -1.4937 H   0  0  0  0  0  0  0  0  0  0  0  0
    2.2324   -2.5157   -2.5741 H   0  0  0  0  0  0  0  0  0  0  0  0
    3.8704   -2.0691   -3.0666 H   0  0  0  0  0  0  0  0  0  0  0  0
    3.5568   -2.6026   -1.4044 H   0  0  0  0  0  0  0  0  0  0  0  0
    3.2455    0.5991   -3.8981 N   0  0  0  0  0  0  0  0  0  0  0  0
    2.9242    1.3562   -5.0854 C   0  0  0  0  0  0  0  0  0  0  0  0
    4.2221    0.3789   -3.7262 H   0  0  0  0  0  0  0  0  0  0  0  0
    2.7375    0.6662   -5.9215 H   0  0  0  0  0  0  0  0  0  0  0  0
    2.0243    1.9615   -4.9018 H   0  0  0  0  0  0  0  0  0  0  0  0
    3.7661    2.0179   -5.3372 H   0  0  0  0  0  0  0  0  0  0  0  0
  1  3  1  0  0  0  0
  1  7  1  0  0  0  0
  1  2  2  0  0  0  0
 32 33  1  0  0  0  0
 33 41  1  0  0  0  0
 33 34  2  0  0  0  0
  8  9  1  0  0  0  0
  9 17  1  0  0  0  0
  9 10  2  0  0  0  0
 18 19  1  0  0  0  0
 19 31  1  0  0  0  0
 19 20  2  0  0  0  0
 32 35  1  0  0  0  0
  8 11  1  0  0  0  0
 21 23  1  0  0  0  0
 41 42  1  0  0  0  0
 31 32  1  0  0  0  0
  7  8  1  0  0  0  0
 18 21  1  0  0  0  0
 17 18  1  0  0  0  0
 21 22  1  0  0  0  0
  3  4  1  0  0  0  0
  3  5  1  0  0  0  0
  3  6  1  0  0  0  0
 35 38  1  0  0  0  0
 35 39  1  0  0  0  0
 35 40  1  0  0  0  0
 11 14  1  0  0  0  0
 11 15  1  0  0  0  0
 11 16  1  0  0  0  0
 23 28  1  0  0  0  0
 23 29  1  0  0  0  0
 23 30  1  0  0  0  0
 42 44  1  0  0  0  0
 42 45  1  0  0  0  0
 42 46  1  0  0  0  0
 32 37  1  0  0  0  0
  8 13  1  0  0  0  0
 18 25  1  0  0  0  0
 21 26  1  0  0  0  0
 41 43  1  0  0  0  0
  7 12  1  0  0  0  0
 31 36  1  0  0  0  0
 17 24  1  0  0  0  0
 22 27  1  0  0  0  0
M  END
$$$$

  -OEChem-05262214473D

 46 45  0     1  0  0  0  0  0999 V2000
   -4.6700    2.7214    1.5150 C   0  0  0  0  0  0  0  0  0  0  0  0
   -5.4532    2.5715    0.5845 O   0  0  0  0  0  0  0  0  0  0  0  0
   -5.0996    3.4865    2.7226 C   0  0  0  0  0  0  0  0  0  0  0  0
   -4.8796    4.5629    2.6387 H   0  0  0  0  0  0  0  0  0  0  0  0
   -6.1861    3.4241    2.8954 H   0  0  0  0  0  0  0  0  0  0  0  0
   -4.6369    3.1693    3.6708 H   0  0  0  0  0  0  0  0  0  0  0  0
   -3.3731    2.2391    1.5790 N   0  0  0  0  0  0  0  0  0  0  0  0
   -2.7599    1.4751    0.5247 C   0  0  2  0  0  0  0  0  0  0  0  0
   -1.5143    0.8067    1.0915 C   0  0  0  0  0  0  0  0  0  0  0  0
   -0.9247    1.2213    2.0872 O   0  0  0  0  0  0  0  0  0  0  0  0
   -2.4106    2.3553   -0.6653 C   0  0  0  0  0  0  0  0  0  0  0  0
   -2.8254    2.4352    2.4150 H   0  0  0  0  0  0  0  0  0  0  0  0
   -3.4836    0.7082    0.2278 H   0  0  0  0  0  0  0  0  0  0  0  0
   -1.6866    3.1298   -0.3871 H   0  0  0  0  0  0  0  0  0  0  0  0
   -1.9704    1.7677   -1.4777 H   0  0  0  0  0  0  0  0  0  0  0  0
   -3.3030    2.8584   -1.0531 H   0  0  0  0  0  0  0  0  0  0  0  0
   -1.1107   -0.2839    0.3303 N   0  0  0  0  0  0  0  0  0  0  0  0
    0.0490   -1.0750    0.6539 C   0  0  2  0  0  0  0  0  0  0  0  0
    0.8253   -1.3049   -0.6396 C   0  0  0  0  0  0  0  0  0  0  0  0
    0.3606   -1.9141   -1.6009 O   0  0  0  0  0  0  0  0  0  0  0  0
   -0.3084   -2.4009    1.3413 C   0  0  2  0  0  0  0  0  0  0  0  0
   -1.1197   -3.2084    0.4896 O   0  0  0  0  0  0  0  0  0  0  0  0
   -1.0693   -2.1880    2.6444 C   0  0  0  0  0  0  0  0  0  0  0  0
   -1.6733   -0.5660   -0.4691 H   0  0  0  0  0  0  0  0  0  0  0  0
    0.6662   -0.4620    1.3220 H   0  0  0  0  0  0  0  0  0  0  0  0
    0.6010   -2.9722    1.5611 H   0  0  0  0  0  0  0  0  0  0  0  0
   -1.2658   -4.0432    0.9601 H   0  0  0  0  0  0  0  0  0  0  0  0
   -1.9912   -1.6194    2.4811 H   0  0  0  0  0  0  0  0  0  0  0  0
   -0.4555   -1.6623    3.3820 H   0  0  0  0  0  0  0  0  0  0  0  0
   -1.3713   -3.1522    3.0679 H   0  0  0  0  0  0  0  0  0  0  0  0
    2.1136   -0.7932   -0.5747 N   0  0  0  0  0  0  0  0  0  0  0  0
    3.0540   -0.9153   -1.6637 C   0  0  2  0  0  0  0  0  0  0  0  0
    2.7034    0.1362   -2.7081 C   0  0  0  0  0  0  0  0  0  0  0  0
    1.5865    0.6409   -2.8031 O   0  0  0  0  0  0  0  0  0  0  0  0
    3.0244   -2.3112   -2.2665 C   0  0  0  0  0  0  0  0  0  0  0  0
    2.4064   -0.3141    0.2718 H   0  0  0  0  0  0  0  0  0  0  0  0
    4.0461   -0.7035   -1.2501 H   0  0  0  0  0  0  0  0  0  0  0  0
    2.0382   -2.5414   -2.6860 H   0  0  0  0  0  0  0  0  0  0  0  0
    3.7581   -2.4106   -3.0732 H   0  0  0  0  0  0  0  0  0  0  0  0
    3.2476   -3.0684   -1.5072 H   0  0  0  0  0  0  0  0  0  0  0  0
    3.7721    0.4133   -3.5490 N   0  0  0  0  0  0  0  0  0  0  0  0
    3.6868    1.3676   -4.6297 C   0  0  0  0  0  0  0  0  0  0  0  0
    4.6671   -0.0383   -3.3850 H   0  0  0  0  0  0  0  0  0  0  0  0
    3.4001    0.8485   -5.5562 H   0  0  0  0  0  0  0  0  0  0  0  0
    2.9309    2.1292   -4.3874 H   0  0  0  0  0  0  0  0  0  0  0  0
    4.6643    1.8524   -4.7687 H   0  0  0  0  0  0  0  0  0  0  0  0
  1  3  1  0  0  0  0
  1  7  1  0  0  0  0
  1  2  2  0  0  0  0
 32 33  1  0  0  0  0
 33 41  1  0  0  0  0
 33 34  2  0  0  0  0
  8  9  1  0  0  0  0
  9 17  1  0  0  0  0
  9 10  2  0  0  0  0
 18 19  1  0  0  0  0
 19 31  1  0  0  0  0
 19 20  2  0  0  0  0
 32 35  1  0  0  0  0
  8 11  1  0  0  0  0
 21 23  1  0  0  0  0
 41 42  1  0  0  0  0
 31 32  1  0  0  0  0
  7  8  1  0  0  0  0
 18 21  1  0  0  0  0
 17 18  1  0  0  0  0
 21 22  1  0  0  0  0
  3  4  1  0  0  0  0
  3  5  1  0  0  0  0
  3  6  1  0  0  0  0
 35 38  1  0  0  0  0
 35 39  1  0  0  0  0
 35 40  1  0  0  0  0
 11 14  1  0  0  0  0
 11 15  1  0  0  0  0
 11 16  1  0  0  0  0
 23 28  1  0  0  0  0
 23 29  1  0  0  0  0
 23 30  1  0  0  0  0
 42 44  1  0  0  0  0
 42 45  1  0  0  0  0
 42 46  1  0  0  0  0
 32 37  1  0  0  0  0
  8 13  1  0  0  0  0
 18 25  1  0  0  0  0
 21 26  1  0  0  0  0
 41 43  1  0  0  0  0
  7 12  1  0  0  0  0
 31 36  1  0  0  0  0
 17 24  1  0  0  0  0
 22 27  1  0  0  0  0
M  END
$$$$

  -OEChem-05262214473D

 46 45  0     1  0  0  0  0  0999 V2000
   -4.6700    2.7214    1.5150 C   0  0  0  0  0  0  0  0  0  0  0  0
   -5.4532    2.5715    0.5845 O   0  0  0  0  0  0  0  0  0  0  0  0
   -5.0996    3.4865    2.7226 C   0  0  0  0  0  0  0  0  0  0  0  0
   -4.8796    4.5629    2.6387 H   0  0  0  0  0  0  0  0  0  0  0  0
   -6.1861    3.4241    2.8954 H   0  0  0  0  0  0  0  0  0  0  0  0
   -4.6369    3.1693    3.6708 H   0  0  0  0  0  0  0  0  0  0  0  0
   -3.3731    2.2391    1.5790 N   0  0  0  0  0  0  0  0  0  0  0  0
   -2.7599    1.4751    0.5247 C   0  0  2  0  0  0  0  0  0  0  0  0
   -1.5143    0.8067    1.0915 C   0  0  0  0  0  0  0  0  0  0  0  0
   -0.9247    1.2213    2.0872 O   0  0  0  0  0  0  0  0  0  0  0  0
   -2.4106    2.3553   -0.6653 C   0  0  0  0  0  0  0  0  0  0  0  0
   -2.8254    2.4352    2.4150 H   0  0  0  0  0  0  0  0  0  0  0  0
   -3.4836    0.7082    0.2278 H   0  0  0  0  0  0  0  0  0  0  0  0
   -1.6866    3.1298   -0.3871 H   0  0  0  0  0  0  0  0  0  0  0  0
   -1.9704    1.7677   -1.4777 H   0  0  0  0  0  0  0  0  0  0  0  0
   -3.3030    2.8584   -1.0531 H   0  0  0  0  0  0  0  0  0  0  0  0
   -1.1107   -0.2839    0.3303 N   0  0  0  0  0  0  0  0  0  0  0  0
    0.0490   -1.0750    0.6539 C   0  0  2  0  0  0  0  0  0  0  0  0
    0.8253   -1.3049   -0.6396 C   0  0  0  0  0  0  0  0  0  0  0  0
    0.2919   -1.6683   -1.6859 O   0  0  0  0  0  0  0  0  0  0  0  0
   -0.3084   -2.4009    1.3413 C   0  0  2  0  0  0  0  0  0  0  0  0
   -1.1197   -3.2084    0.4896 O   0  0  0  0  0  0  0  0  0  0  0  0
   -1.0693   -2.1880    2.6444 C   0  0  0  0  0  0  0  0  0  0  0  0
   -1.6733   -0.5660   -0.4691 H   0  0  0  0  0  0  0  0  0  0  0  0
    0.6662   -0.4620    1.3220 H   0  0  0  0  0  0  0  0  0  0  0  0
    0.6010   -2.9722    1.5611 H   0  0  0  0  0  0  0  0  0  0  0  0
   -1.2658   -4.0432    0.9601 H   0  0  0  0  0  0  0  0  0  0  0  0
   -1.9912   -1.6194    2.4811 H   0  0  0  0  0  0  0  0  0  0  0  0
   -0.4555   -1.6623    3.3820 H   0  0  0  0  0  0  0  0  0  0  0  0
   -1.3713   -3.1522    3.0679 H   0  0  0  0  0  0  0  0  0  0  0  0
    2.1885   -1.1045   -0.4744 N   0  0  0  0  0  0  0  0  0  0  0  0
    3.1372   -1.2927   -1.5467 C   0  0  2  0  0  0  0  0  0  0  0  0
    3.0794   -0.0653   -2.4465 C   0  0  0  0  0  0  0  0  0  0  0  0
    2.1052    0.6826   -2.4992 O   0  0  0  0  0  0  0  0  0  0  0  0
    2.8381   -2.5587   -2.3343 C   0  0  0  0  0  0  0  0  0  0  0  0
    2.5323   -0.8141    0.4363 H   0  0  0  0  0  0  0  0  0  0  0  0
    4.1279   -1.3608   -1.0841 H   0  0  0  0  0  0  0  0  0  0  0  0
    1.8494   -2.5089   -2.8051 H   0  0  0  0  0  0  0  0  0  0  0  0
    3.5750   -2.7150   -3.1290 H   0  0  0  0  0  0  0  0  0  0  0  0
    2.8507   -3.4370   -1.6799 H   0  0  0  0  0  0  0  0  0  0  0  0
    4.2264    0.0723   -3.2158 N   0  0  0  0  0  0  0  0  0  0  0  0
    4.4081    1.1514   -4.1584 C   0  0  0  0  0  0  0  0  0  0  0  0
    4.9920   -0.5838   -3.0930 H   0  0  0  0  0  0  0  0  0  0  0  0
    4.0659    0.8311   -5.1536 H   0  0  0  0  0  0  0  0  0  0  0  0
    3.8234    2.0245   -3.8332 H   0  0  0  0  0  0  0  0  0  0  0  0
    5.4735    1.4207   -4.2063 H   0  0  0  0  0  0  0  0  0  0  0  0
  1  3  1  0  0  0  0
  1  7  1  0  0  0  0
  1  2  2  0  0  0  0
 32 33  1  0  0  0  0
 33 41  1  0  0  0  0
 33 34  2  0  0  0  0
  8  9  1  0  0  0  0
  9 17  1  0  0  0  0
  9 10  2  0  0  0  0
 18 19  1  0  0  0  0
 19 31  1  0  0  0  0
 19 20  2  0  0  0  0
 32 35  1  0  0  0  0
  8 11  1  0  0  0  0
 21 23  1  0  0  0  0
 41 42  1  0  0  0  0
 31 32  1  0  0  0  0
  7  8  1  0  0  0  0
 18 21  1  0  0  0  0
 17 18  1  0  0  0  0
 21 22  1  0  0  0  0
  3  4  1  0  0  0  0
  3  5  1  0  0  0  0
  3  6  1  0  0  0  0
 35 38  1  0  0  0  0
 35 39  1  0  0  0  0
 35 40  1  0  0  0  0
 11 14  1  0  0  0  0
 11 15  1  0  0  0  0
 11 16  1  0  0  0  0
 23 28  1  0  0  0  0
 23 29  1  0  0  0  0
 23 30  1  0  0  0  0
 42 44  1  0  0  0  0
 42 45  1  0  0  0  0
 42 46  1  0  0  0  0
 32 37  1  0  0  0  0
  8 13  1  0  0  0  0
 18 25  1  0  0  0  0
 21 26  1  0  0  0  0
 41 43  1  0  0  0  0
  7 12  1  0  0  0  0
 31 36  1  0  0  0  0
 17 24  1  0  0  0  0
 22 27  1  0  0  0  0
M  END
$$$$

  -OEChem-05262214473D

 46 45  0     1  0  0  0  0  0999 V2000
   -4.6700    2.7214    1.5150 C   0  0  0  0  0  0  0  0  0  0  0  0
   -5.4532    2.5715    0.5845 O   0  0  0  0  0  0  0  0  0  0  0  0
   -5.0996    3.4865    2.7226 C   0  0  0  0  0  0  0  0  0  0  0  0
   -4.8796    4.5629    2.6387 H   0  0  0  0  0  0  0  0  0  0  0  0
   -6.1861    3.4241    2.8954 H   0  0  0  0  0  0  0  0  0  0  0  0
   -4.6369    3.1693    3.6708 H   0  0  0  0  0  0  0  0  0  0  0  0
   -3.3731    2.2391    1.5790 N   0  0  0  0  0  0  0  0  0  0  0  0
   -2.7599    1.4751    0.5247 C   0  0  2  0  0  0  0  0  0  0  0  0
   -1.5143    0.8067    1.0915 C   0  0  0  0  0  0  0  0  0  0  0  0
   -0.9247    1.2213    2.0872 O   0  0  0  0  0  0  0  0  0  0  0  0
   -2.4106    2.3553   -0.6653 C   0  0  0  0  0  0  0  0  0  0  0  0
   -2.8254    2.4352    2.4150 H   0  0  0  0  0  0  0  0  0  0  0  0
   -3.4836    0.7082    0.2278 H   0  0  0  0  0  0  0  0  0  0  0  0
   -1.6866    3.1298   -0.3871 H   0  0  0  0  0  0  0  0  0  0  0  0
   -1.9704    1.7677   -1.4777 H   0  0  0  0  0  0  0  0  0  0  0  0
   -3.3030    2.8584   -1.0531 H   0  0  0  0  0  0  0  0  0  0  0  0
   -1.1107   -0.2839    0.3303 N   0  0  0  0  0  0  0  0  0  0  0  0
    0.0490   -1.0750    0.6539 C   0  0  2  0  0  0  0  0  0  0  0  0
    0.8253   -1.3049   -0.6396 C   0  0  0  0  0  0  0  0  0  0  0  0
    0.2828   -1.4045   -1.7382 O   0  0  0  0  0  0  0  0  0  0  0  0
   -0.3084   -2.4009    1.3413 C   0  0  2  0  0  0  0  0  0  0  0  0
   -1.1197   -3.2084    0.4896 O   0  0  0  0  0  0  0  0  0  0  0  0
   -1.0693   -2.1880    2.6444 C   0  0  0  0  0  0  0  0  0  0  0  0
   -1.6733   -0.5660   -0.4691 H   0  0  0  0  0  0  0  0  0  0  0  0
    0.6662   -0.4620    1.3220 H   0  0  0  0  0  0  0  0  0  0  0  0
    0.6010   -2.9722    1.5611 H   0  0  0  0  0  0  0  0  0  0  0  0
   -1.2658   -4.0432    0.9601 H   0  0  0  0  0  0  0  0  0  0  0  0
   -1.9912   -1.6194    2.4811 H   0  0  0  0  0  0  0  0  0  0  0  0
   -0.4555   -1.6623    3.3820 H   0  0  0  0  0  0  0  0  0  0  0  0
   -1.3713   -3.1522    3.0679 H   0  0  0  0  0  0  0  0  0  0  0  0
    2.1886   -1.4348   -0.4156 N   0  0  0  0  0  0  0  0  0  0  0  0
    3.1302   -1.6908   -1.4801 C   0  0  2  0  0  0  0  0  0  0  0  0
    3.3882   -0.3769   -2.2058 C   0  0  0  0  0  0  0  0  0  0  0  0
    2.6036    0.5690   -2.1799 O   0  0  0  0  0  0  0  0  0  0  0  0
    2.6064   -2.7480   -2.4397 C   0  0  0  0  0  0  0  0  0  0  0  0
    2.5379   -1.3464    0.5342 H   0  0  0  0  0  0  0  0  0  0  0  0
    4.0562   -2.0355   -1.0072 H   0  0  0  0  0  0  0  0  0  0  0  0
    1.6788   -2.4205   -2.9232 H   0  0  0  0  0  0  0  0  0  0  0  0
    3.3336   -2.9616   -3.2301 H   0  0  0  0  0  0  0  0  0  0  0  0
    2.3932   -3.6832   -1.9107 H   0  0  0  0  0  0  0  0  0  0  0  0
    4.5773   -0.4006   -2.9211 N   0  0  0  0  0  0  0  0  0  0  0  0
    5.0390    0.7222   -3.7035 C   0  0  0  0  0  0  0  0  0  0  0  0
    5.1749   -1.2204   -2.8701 H   0  0  0  0  0  0  0  0  0  0  0  0
    4.6894    0.6153   -4.7410 H   0  0  0  0  0  0  0  0  0  0  0  0
    4.6409    1.6547   -3.2768 H   0  0  0  0  0  0  0  0  0  0  0  0
    6.1385    0.7522   -3.6884 H   0  0  0  0  0  0  0  0  0  0  0  0
  1  3  1  0  0  0  0
  1  7  1  0  0  0  0
  1  2  2  0  0  0  0
 32 33  1  0  0  0  0
 33 41  1  0  0  0  0
 33 34  2  0  0  0  0
  8  9  1  0  0  0  0
  9 17  1  0  0  0  0
  9 10  2  0  0  0  0
 18 19  1  0  0  0  0
 19 31  1  0  0  0  0
 19 20  2  0  0  0  0
 32 35  1  0  0  0  0
  8 11  1  0  0  0  0
 21 23  1  0  0  0  0
 41 42  1  0  0  0  0
 31 32  1  0  0  0  0
  7  8  1  0  0  0  0
 18 21  1  0  0  0  0
 17 18  1  0  0  0  0
 21 22  1  0  0  0  0
  3  4  1  0  0  0  0
  3  5  1  0  0  0  0
  3  6  1  0  0  0  0
 35 38  1  0  0  0  0
 35 39  1  0  0  0  0
 35 40  1  0  0  0  0
 11 14  1  0  0  0  0
 11 15  1  0  0  0  0
 11 16  1  0  0  0  0
 23 28  1  0  0  0  0
 23 29  1  0  0  0  0
 23 30  1  0  0  0  0
 42 44  1  0  0  0  0
 42 45  1  0  0  0  0
 42 46  1  0  0  0  0
 32 37  1  0  0  0  0
  8 13  1  0  0  0  0
 18 25  1  0  0  0  0
 21 26  1  0  0  0  0
 41 43  1  0  0  0  0
  7 12  1  0  0  0  0
 31 36  1  0  0  0  0
 17 24  1  0  0  0  0
 22 27  1  0  0  0  0
M  END
$$$$

  -OEChem-05262214473D

 46 45  0     1  0  0  0  0  0999 V2000
   -4.6700    2.7214    1.5150 C   0  0  0  0  0  0  0  0  0  0  0  0
   -5.4532    2.5715    0.5845 O   0  0  0  0  0  0  0  0  0  0  0  0
   -5.0996    3.4865    2.7226 C   0  0  0  0  0  0  0  0  0  0  0  0
   -4.8796    4.5629    2.6387 H   0  0  0  0  0  0  0  0  0  0  0  0
   -6.1861    3.4241    2.8954 H   0  0  0  0  0  0  0  0  0  0  0  0
   -4.6369    3.1693    3.6708 H   0  0  0  0  0  0  0  0  0  0  0  0
   -3.3731    2.2391    1.5790 N   0  0  0  0  0  0  0  0  0  0  0  0
   -2.7599    1.4751    0.5247 C   0  0  2  0  0  0  0  0  0  0  0  0
   -1.5143    0.8067    1.0915 C   0  0  0  0  0  0  0  0  0  0  0  0
   -0.9247    1.2213    2.0872 O   0  0  0  0  0  0  0  0  0  0  0  0
   -2.4106    2.3553   -0.6653 C   0  0  0  0  0  0  0  0  0  0  0  0
   -2.8254    2.4352    2.4150 H   0  0  0  0  0  0  0  0  0  0  0  0
   -3.4836    0.7082    0.2278 H   0  0  0  0  0  0  0  0  0  0  0  0
   -1.6866    3.1298   -0.3871 H   0  0  0  0  0  0  0  0  0  0  0  0
   -1.9704    1.7677   -1.4777 H   0  0  0  0  0  0  0  0  0  0  0  0
   -3.3030    2.8584   -1.0531 H   0  0  0  0  0  0  0  0  0  0  0  0
   -1.1107   -0.2839    0.3303 N   0  0  0  0  0  0  0  0  0  0  0  0
    0.0490   -1.0750    0.6539 C   0  0  2  0  0  0  0  0  0  0  0  0
    0.8253   -1.3049   -0.6396 C   0  0  0  0  0  0  0  0  0  0  0  0
    0.3339   -1.1409   -1.7544 O   0  0  0  0  0  0  0  0  0  0  0  0
   -0.3084   -2.4009    1.3413 C   0  0  2  0  0  0  0  0  0  0  0  0
   -1.1197   -3.2084    0.4896 O   0  0  0  0  0  0  0  0  0  0  0  0
   -1.0693   -2.1880    2.6444 C   0  0  0  0  0  0  0  0  0  0  0  0
   -1.6733   -0.5660   -0.4691 H   0  0  0  0  0  0  0  0  0  0  0  0
    0.6662   -0.4620    1.3220 H   0  0  0  0  0  0  0  0  0  0  0  0
    0.6010   -2.9722    1.5611 H   0  0  0  0  0  0  0  0  0  0  0  0
   -1.2658   -4.0432    0.9601 H   0  0  0  0  0  0  0  0  0  0  0  0
   -1.9912   -1.6194    2.4811 H   0  0  0  0  0  0  0  0  0  0  0  0
   -0.4555   -1.6623    3.3820 H   0  0  0  0  0  0  0  0  0  0  0  0
   -1.3713   -3.1522    3.0679 H   0  0  0  0  0  0  0  0  0  0  0  0
    2.1140   -1.7617   -0.4023 N   0  0  0  0  0  0  0  0  0  0  0  0
    3.0334   -2.0826   -1.4685 C   0  0  2  0  0  0  0  0  0  0  0  0
    3.6087   -0.7774   -2.0023 C   0  0  0  0  0  0  0  0  0  0  0  0
    3.0476    0.3079   -1.8670 O   0  0  0  0  0  0  0  0  0  0  0  0
    2.3453   -2.8662   -2.5754 C   0  0  0  0  0  0  0  0  0  0  0  0
    2.4226   -1.8746    0.5589 H   0  0  0  0  0  0  0  0  0  0  0  0
    3.8360   -2.6816   -1.0245 H   0  0  0  0  0  0  0  0  0  0  0  0
    1.5381   -2.2821   -3.0323 H   0  0  0  0  0  0  0  0  0  0  0  0
    3.0502   -3.1334   -3.3696 H   0  0  0  0  0  0  0  0  0  0  0  0
    1.9064   -3.7902   -2.1839 H   0  0  0  0  0  0  0  0  0  0  0  0
    4.8011   -0.9732   -2.6850 N   0  0  0  0  0  0  0  0  0  0  0  0
    5.5365    0.1094   -3.2959 C   0  0  0  0  0  0  0  0  0  0  0  0
    5.2031   -1.9048   -2.7315 H   0  0  0  0  0  0  0  0  0  0  0  0
    5.2283    0.2157   -4.3465 H   0  0  0  0  0  0  0  0  0  0  0  0
    5.3277    1.0449   -2.7562 H   0  0  0  0  0  0  0  0  0  0  0  0
    6.6139   -0.1076   -3.2502 H   0  0  0  0  0  0  0  0  0  0  0  0
  1  3  1  0  0  0  0
  1  7  1  0  0  0  0
  1  2  2  0  0  0  0
 32 33  1  0  0  0  0
 33 41  1  0  0  0  0
 33 34  2  0  0  0  0
  8  9  1  0  0  0  0
  9 17  1  0  0  0  0
  9 10  2  0  0  0  0
 18 19  1  0  0  0  0
 19 31  1  0  0  0  0
 19 20  2  0  0  0  0
 32 35  1  0  0  0  0
  8 11  1  0  0  0  0
 21 23  1  0  0  0  0
 41 42  1  0  0  0  0
 31 32  1  0  0  0  0
  7  8  1  0  0  0  0
 18 21  1  0  0  0  0
 17 18  1  0  0  0  0
 21 22  1  0  0  0  0
  3  4  1  0  0  0  0
  3  5  1  0  0  0  0
  3  6  1  0  0  0  0
 35 38  1  0  0  0  0
 35 39  1  0  0  0  0
 35 40  1  0  0  0  0
 11 14  1  0  0  0  0
 11 15  1  0  0  0  0
 11 16  1  0  0  0  0
 23 28  1  0  0  0  0
 23 29  1  0  0  0  0
 23 30  1  0  0  0  0
 42 44  1  0  0  0  0
 42 45  1  0  0  0  0
 42 46  1  0  0  0  0
 32 37  1  0  0  0  0
  8 13  1  0  0  0  0
 18 25  1  0  0  0  0
 21 26  1  0  0  0  0
 41 43  1  0  0  0  0
  7 12  1  0  0  0  0
 31 36  1  0  0  0  0
 17 24  1  0  0  0  0
 22 27  1  0  0  0  0
M  END
$$$$

  -OEChem-05262214473D

 46 45  0     1  0  0  0  0  0999 V2000
   -4.6700    2.7214    1.5150 C   0  0  0  0  0  0  0  0  0  0  0  0
   -5.4532    2.5715    0.5845 O   0  0  0  0  0  0  0  0  0  0  0  0
   -5.0996    3.4865    2.7226 C   0  0  0  0  0  0  0  0  0  0  0  0
   -4.8796    4.5629    2.6387 H   0  0  0  0  0  0  0  0  0  0  0  0
   -6.1861    3.4241    2.8954 H   0  0  0  0  0  0  0  0  0  0  0  0
   -4.6369    3.1693    3.6708 H   0  0  0  0  0  0  0  0  0  0  0  0
   -3.3731    2.2391    1.5790 N   0  0  0  0  0  0  0  0  0  0  0  0
   -2.7599    1.4751    0.5247 C   0  0  2  0  0  0  0  0  0  0  0  0
   -1.5143    0.8067    1.0915 C   0  0  0  0  0  0  0  0  0  0  0  0
   -0.9247    1.2213    2.0872 O   0  0  0  0  0  0  0  0  0  0  0  0
   -2.4106    2.3553   -0.6653 C   0  0  0  0  0  0  0  0  0  0  0  0
   -2.8254    2.4352    2.4150 H   0  0  0  0  0  0  0  0  0  0  0  0
   -3.4836    0.7082    0.2278 H   0  0  0  0  0  0  0  0  0  0  0  0
   -1.6866    3.1298   -0.3871 H   0  0  0  0  0  0  0  0  0  0  0  0
   -1.9704    1.7677   -1.4777 H   0  0  0  0  0  0  0  0  0  0  0  0
   -3.3030    2.8584   -1.0531 H   0  0  0  0  0  0  0  0  0  0  0  0
   -1.1107   -0.2839    0.3303 N   0  0  0  0  0  0  0  0  0  0  0  0
    0.0490   -1.0750    0.6539 C   0  0  2  0  0  0  0  0  0  0  0  0
    1.0087   -0.9911   -0.5295 C   0  0  0  0  0  0  0  0  0  0  0  0
    0.7484   -0.3753   -1.5612 O   0  0  0  0  0  0  0  0  0  0  0  0
   -0.3005   -2.5308    0.9954 C   0  0  2  0  0  0  0  0  0  0  0  0
   -0.9272   -3.1730   -0.1139 O   0  0  0  0  0  0  0  0  0  0  0  0
   -1.2451   -2.6327    2.1869 C   0  0  0  0  0  0  0  0  0  0  0  0
   -1.6733   -0.5660   -0.4691 H   0  0  0  0  0  0  0  0  0  0  0  0
    0.5231   -0.5920    1.5170 H   0  0  0  0  0  0  0  0  0  0  0  0
    0.6099   -3.0961    1.2263 H   0  0  0  0  0  0  0  0  0  0  0  0
   -1.0744   -4.0942    0.1493 H   0  0  0  0  0  0  0  0  0  0  0  0
   -2.1753   -2.0827    2.0083 H   0  0  0  0  0  0  0  0  0  0  0  0
   -0.7774   -2.2500    3.0990 H   0  0  0  0  0  0  0  0  0  0  0  0
   -1.5305   -3.6771    2.3552 H   0  0  0  0  0  0  0  0  0  0  0  0
    2.1671   -1.7250   -0.3169 N   0  0  0  0  0  0  0  0  0  0  0  0
    3.2145   -1.8276   -1.3057 C   0  0  2  0  0  0  0  0  0  0  0  0
    4.0343   -0.5449   -1.2571 C   0  0  0  0  0  0  0  0  0  0  0  0
    3.5981    0.5134   -0.8090 O   0  0  0  0  0  0  0  0  0  0  0  0
    2.6425   -2.0547   -2.6963 C   0  0  0  0  0  0  0  0  0  0  0  0
    2.2827   -2.2089    0.5687 H   0  0  0  0  0  0  0  0  0  0  0  0
    3.8438   -2.6752   -1.0130 H   0  0  0  0  0  0  0  0  0  0  0  0
    2.0091   -1.2157   -3.0068 H   0  0  0  0  0  0  0  0  0  0  0  0
    3.4387   -2.1608   -3.4404 H   0  0  0  0  0  0  0  0  0  0  0  0
    2.0288   -2.9617   -2.7219 H   0  0  0  0  0  0  0  0  0  0  0  0
    5.2954   -0.7102   -1.8126 N   0  0  0  0  0  0  0  0  0  0  0  0
    6.2573    0.3639   -1.8962 C   0  0  0  0  0  0  0  0  0  0  0  0
    5.5796   -1.6278   -2.1427 H   0  0  0  0  0  0  0  0  0  0  0  0
    6.1572    0.8717   -2.8668 H   0  0  0  0  0  0  0  0  0  0  0  0
    6.0741    1.0840   -1.0851 H   0  0  0  0  0  0  0  0  0  0  0  0
    7.2736   -0.0460   -1.8000 H   0  0  0  0  0  0  0  0  0  0  0  0
  1  3  1  0  0  0  0
  1  7  1  0  0  0  0
  1  2  2  0  0  0  0
 32 33  1  0  0  0  0
 33 41  1  0  0  0  0
 33 34  2  0  0  0  0
  8  9  1  0  0  0  0
  9 17  1  0  0  0  0
  9 10  2  0  0  0  0
 18 19  1  0  0  0  0
 19 31  1  0  0  0  0
 19 20  2  0  0  0  0
 32 35  1  0  0  0  0
  8 11  1  0  0  0  0
 21 23  1  0  0  0  0
 41 42  1  0  0  0  0
 31 32  1  0  0  0  0
  7  8  1  0  0  0  0
 18 21  1  0  0  0  0
 17 18  1  0  0  0  0
 21 22  1  0  0  0  0
  3  4  1  0  0  0  0
  3  5  1  0  0  0  0
  3  6  1  0  0  0  0
 35 38  1  0  0  0  0
 35 39  1  0  0  0  0
 35 40  1  0  0  0  0
 11 14  1  0  0  0  0
 11 15  1  0  0  0  0
 11 16  1  0  0  0  0
 23 28  1  0  0  0  0
 23 29  1  0  0  0  0
 23 30  1  0  0  0  0
 42 44  1  0  0  0  0
 42 45  1  0  0  0  0
 42 46  1  0  0  0  0
 32 37  1  0  0  0  0
  8 13  1  0  0  0  0
 18 25  1  0  0  0  0
 21 26  1  0  0  0  0
 41 43  1  0  0  0  0
  7 12  1  0  0  0  0
 31 36  1  0  0  0  0
 17 24  1  0  0  0  0
 22 27  1  0  0  0  0
M  END
$$$$

  -OEChem-05262214473D

 46 45  0     1  0  0  0  0  0999 V2000
   -4.6700    2.7214    1.5150 C   0  0  0  0  0  0  0  0  0  0  0  0
   -5.4532    2.5715    0.5845 O   0  0  0  0  0  0  0  0  0  0  0  0
   -5.0996    3.4865    2.7226 C   0  0  0  0  0  0  0  0  0  0  0  0
   -4.8796    4.5629    2.6387 H   0  0  0  0  0  0  0  0  0  0  0  0
   -6.1861    3.4241    2.8954 H   0  0  0  0  0  0  0  0  0  0  0  0
   -4.6369    3.1693    3.6708 H   0  0  0  0  0  0  0  0  0  0  0  0
   -3.3731    2.2391    1.5790 N   0  0  0  0  0  0  0  0  0  0  0  0
   -2.7599    1.4751    0.5247 C   0  0  2  0  0  0  0  0  0  0  0  0
   -1.5143    0.8067    1.0915 C   0  0  0  0  0  0  0  0  0  0  0  0
   -0.9247    1.2213    2.0872 O   0  0  0  0  0  0  0  0  0  0  0  0
   -2.4106    2.3553   -0.6653 C   0  0  0  0  0  0  0  0  0  0  0  0
   -2.8254    2.4352    2.4150 H   0  0  0  0  0  0  0  0  0  0  0  0
   -3.4836    0.7082    0.2278 H   0  0  0  0  0  0  0  0  0  0  0  0
   -1.6866    3.1298   -0.3871 H   0  0  0  0  0  0  0  0  0  0  0  0
   -1.9704    1.7677   -1.4777 H   0  0  0  0  0  0  0  0  0  0  0  0
   -3.3030    2.8584   -1.0531 H   0  0  0  0  0  0  0  0  0  0  0  0
   -1.1107   -0.2839    0.3303 N   0  0  0  0  0  0  0  0  0  0  0  0
    0.0490   -1.0750    0.6539 C   0  0  2  0  0  0  0  0  0  0  0  0
    1.0087   -0.9911   -0.5295 C   0  0  0  0  0  0  0  0  0  0  0  0
    0.8806   -0.1749   -1.4398 O   0  0  0  0  0  0  0  0  0  0  0  0
   -0.3005   -2.5308    0.9954 C   0  0  2  0  0  0  0  0  0  0  0  0
   -0.9272   -3.1730   -0.1139 O   0  0  0  0  0  0  0  0  0  0  0  0
   -1.2451   -2.6327    2.1869 C   0  0  0  0  0  0  0  0  0  0  0  0
   -1.6733   -0.5660   -0.4691 H   0  0  0  0  0  0  0  0  0  0  0  0
    0.5231   -0.5920    1.5170 H   0  0  0  0  0  0  0  0  0  0  0  0
    0.6099   -3.0961    1.2263 H   0  0  0  0  0  0  0  0  0  0  0  0
   -1.0744   -4.0942    0.1493 H   0  0  0  0  0  0  0  0  0  0  0  0
   -2.1753   -2.0827    2.0083 H   0  0  0  0  0  0  0  0  0  0  0  0
   -0.7774   -2.2500    3.0990 H   0  0  0  0  0  0  0  0  0  0  0  0
   -1.5305   -3.6771    2.3552 H   0  0  0  0  0  0  0  0  0  0  0  0
    1.9945   -1.9661   -0.4739 N   0  0  0  0  0  0  0  0  0  0  0  0
    3.0021   -2.1119   -1.4981 C   0  0  2  0  0  0  0  0  0  0  0  0
    4.0638   -1.0444   -1.2686 C   0  0  0  0  0  0  0  0  0  0  0  0
    3.8492   -0.0085   -0.6424 O   0  0  0  0  0  0  0  0  0  0  0  0
    2.3992   -1.9888   -2.8889 C   0  0  0  0  0  0  0  0  0  0  0  0
    2.0080   -2.6021    0.3180 H   0  0  0  0  0  0  0  0  0  0  0  0
    3.4466   -3.1043   -1.3656 H   0  0  0  0  0  0  0  0  0  0  0  0
    1.9491   -1.0009   -3.0402 H   0  0  0  0  0  0  0  0  0  0  0  0
    3.1595   -2.1279   -3.6646 H   0  0  0  0  0  0  0  0  0  0  0  0
    1.6152   -2.7382   -3.0415 H   0  0  0  0  0  0  0  0  0  0  0  0
    5.2669   -1.3644   -1.8821 N   0  0  0  0  0  0  0  0  0  0  0  0
    6.4261   -0.5051   -1.8210 C   0  0  0  0  0  0  0  0  0  0  0  0
    5.3608   -2.2534   -2.3645 H   0  0  0  0  0  0  0  0  0  0  0  0
    6.4329    0.1649   -2.6934 H   0  0  0  0  0  0  0  0  0  0  0  0
    6.3901    0.0939   -0.8991 H   0  0  0  0  0  0  0  0  0  0  0  0
    7.3384   -1.1196   -1.8236 H   0  0  0  0  0  0  0  0  0  0  0  0
  1  3  1  0  0  0  0
  1  7  1  0  0  0  0
  1  2  2  0  0  0  0
 32 33  1  0  0  0  0
 33 41  1  0  0  0  0
 33 34  2  0  0  0  0
  8  9  1  0  0  0  0
  9 17  1  0  0  0  0
  9 10  2  0  0  0  0
 18 19  1  0  0  0  0
 19 31  1  0  0  0  0
 19 20  2  0  0  0  0
 32 35  1  0  0  0  0
  8 11  1  0  0  0  0
 21 23  1  0  0  0  0
 41 42  1  0  0  0  0
 31 32  1  0  0  0  0
  7  8  1  0  0  0  0
 18 21  1  0  0  0  0
 17 18  1  0  0  0  0
 21 22  1  0  0  0  0
  3  4  1  0  0  0  0
  3  5  1  0  0  0  0
  3  6  1  0  0  0  0
 35 38  1  0  0  0  0
 35 39  1  0  0  0  0
 35 40  1  0  0  0  0
 11 14  1  0  0  0  0
 11 15  1  0  0  0  0
 11 16  1  0  0  0  0
 23 28  1  0  0  0  0
 23 29  1  0  0  0  0
 23 30  1  0  0  0  0
 42 44  1  0  0  0  0
 42 45  1  0  0  0  0
 42 46  1  0  0  0  0
 32 37  1  0  0  0  0
  8 13  1  0  0  0  0
 18 25  1  0  0  0  0
 21 26  1  0  0  0  0
 41 43  1  0  0  0  0
  7 12  1  0  0  0  0
 31 36  1  0  0  0  0
 17 24  1  0  0  0  0
 22 27  1  0  0  0  0
M  END
$$$$

  -OEChem-05262214473D

 46 45  0     1  0  0  0  0  0999 V2000
   -4.6700    2.7214    1.5150 C   0  0  0  0  0  0  0  0  0  0  0  0
   -5.4532    2.5715    0.5845 O   0  0  0  0  0  0  0  0  0  0  0  0
   -5.0996    3.4865    2.7226 C   0  0  0  0  0  0  0  0  0  0  0  0
   -4.8796    4.5629    2.6387 H   0  0  0  0  0  0  0  0  0  0  0  0
   -6.1861    3.4241    2.8954 H   0  0  0  0  0  0  0  0  0  0  0  0
   -4.6369    3.1693    3.6708 H   0  0  0  0  0  0  0  0  0  0  0  0
   -3.3731    2.2391    1.5790 N   0  0  0  0  0  0  0  0  0  0  0  0
   -2.7599    1.4751    0.5247 C   0  0  2  0  0  0  0  0  0  0  0  0
   -1.5143    0.8067    1.0915 C   0  0  0  0  0  0  0  0  0  0  0  0
   -0.9247    1.2213    2.0872 O   0  0  0  0  0  0  0  0  0  0  0  0
   -2.4106    2.3553   -0.6653 C   0  0  0  0  0  0  0  0  0  0  0  0
   -2.8254    2.4352    2.4150 H   0  0  0  0  0  0  0  0  0  0  0  0
   -3.4836    0.7082    0.2278 H   0  0  0  0  0  0  0  0  0  0  0  0
   -1.6866    3.1298   -0.3871 H   0  0  0  0  0  0  0  0  0  0  0  0
   -1.9704    1.7677   -1.4777 H   0  0  0  0  0  0  0  0  0  0  0  0
   -3.3030    2.8584   -1.0531 H   0  0  0  0  0  0  0  0  0  0  0  0
   -1.1107   -0.2839    0.3303 N   0  0  0  0  0  0  0  0  0  0  0  0
    0.0490   -1.0750    0.6539 C   0  0  2  0  0  0  0  0  0  0  0  0
    1.0087   -0.9911   -0.5295 C   0  0  0  0  0  0  0  0  0  0  0  0
    1.0502   -0.0275   -1.2918 O   0  0  0  0  0  0  0  0  0  0  0  0
   -0.3005   -2.5308    0.9954 C   0  0  2  0  0  0  0  0  0  0  0  0
   -0.9272   -3.1730   -0.1139 O   0  0  0  0  0  0  0  0  0  0  0  0
   -1.2451   -2.6327    2.1869 C   0  0  0  0  0  0  0  0  0  0  0  0
   -1.6733   -0.5660   -0.4691 H   0  0  0  0  0  0  0  0  0  0  0  0
    0.5231   -0.5920    1.5170 H   0  0  0  0  0  0  0  0  0  0  0  0
    0.6099   -3.0961    1.2263 H   0  0  0  0  0  0  0  0  0  0  0  0
   -1.0744   -4.0942    0.1493 H   0  0  0  0  0  0  0  0  0  0  0  0
   -2.1753   -2.0827    2.0083 H   0  0  0  0  0  0  0  0  0  0  0  0
   -0.7774   -2.2500    3.0990 H   0  0  0  0  0  0  0  0  0  0  0  0
   -1.5305   -3.6771    2.3552 H   0  0  0  0  0  0  0  0  0  0  0  0
    1.7772   -2.1389   -0.6624 N   0  0  0  0  0  0  0  0  0  0  0  0
    2.7370   -2.3125   -1.7273 C   0  0  2  0  0  0  0  0  0  0  0  0
    3.9919   -1.5308   -1.3614 C   0  0  0  0  0  0  0  0  0  0  0  0
    3.9893   -0.5902   -0.5700 O   0  0  0  0  0  0  0  0  0  0  0  0
    2.1748   -1.8449   -3.0607 C   0  0  0  0  0  0  0  0  0  0  0  0
    1.6601   -2.8860    0.0158 H   0  0  0  0  0  0  0  0  0  0  0  0
    2.9717   -3.3817   -1.7703 H   0  0  0  0  0  0  0  0  0  0  0  0
    1.9337   -0.7759   -3.0367 H   0  0  0  0  0  0  0  0  0  0  0  0
    2.8931   -2.0036   -3.8717 H   0  0  0  0  0  0  0  0  0  0  0  0
    1.2559   -2.3874   -3.3079 H   0  0  0  0  0  0  0  0  0  0  0  0
    5.1070   -1.9793   -2.0553 N   0  0  0  0  0  0  0  0  0  0  0  0
    6.4157   -1.3905   -1.8921 C   0  0  0  0  0  0  0  0  0  0  0  0
    5.0207   -2.7776   -2.6775 H   0  0  0  0  0  0  0  0  0  0  0  0
    6.5597   -0.6014   -2.6448 H   0  0  0  0  0  0  0  0  0  0  0  0
    6.4992   -0.9561   -0.8850 H   0  0  0  0  0  0  0  0  0  0  0  0
    7.1852   -2.1658   -2.0220 H   0  0  0  0  0  0  0  0  0  0  0  0
  1  3  1  0  0  0  0
  1  7  1  0  0  0  0
  1  2  2  0  0  0  0
 32 33  1  0  0  0  0
 33 41  1  0  0  0  0
 33 34  2  0  0  0  0
  8  9  1  0  0  0  0
  9 17  1  0  0  0  0
  9 10  2  0  0  0  0
 18 19  1  0  0  0  0
 19 31  1  0  0  0  0
 19 20  2  0  0  0  0
 32 35  1  0  0  0  0
  8 11  1  0  0  0  0
 21 23  1  0  0  0  0
 41 42  1  0  0  0  0
 31 32  1  0  0  0  0
  7  8  1  0  0  0  0
 18 21  1  0  0  0  0
 17 18  1  0  0  0  0
 21 22  1  0  0  0  0
  3  4  1  0  0  0  0
  3  5  1  0  0  0  0
  3  6  1  0  0  0  0
 35 38  1  0  0  0  0
 35 39  1  0  0  0  0
 35 40  1  0  0  0  0
 11 14  1  0  0  0  0
 11 15  1  0  0  0  0
 11 16  1  0  0  0  0
 23 28  1  0  0  0  0
 23 29  1  0  0  0  0
 23 30  1  0  0  0  0
 42 44  1  0  0  0  0
 42 45  1  0  0  0  0
 42 46  1  0  0  0  0
 32 37  1  0  0  0  0
  8 13  1  0  0  0  0
 18 25  1  0  0  0  0
 21 26  1  0  0  0  0
 41 43  1  0  0  0  0
  7 12  1  0  0  0  0
 31 36  1  0  0  0  0
 17 24  1  0  0  0  0
 22 27  1  0  0  0  0
M  END
$$$$

  -OEChem-05262214473D

 46 45  0     1  0  0  0  0  0999 V2000
   -4.6700    2.7214    1.5150 C   0  0  0  0  0  0  0  0  0  0  0  0
   -5.4532    2.5715    0.5845 O   0  0  0  0  0  0  0  0  0  0  0  0
   -5.0996    3.4865    2.7226 C   0  0  0  0  0  0  0  0  0  0  0  0
   -4.8796    4.5629    2.6387 H   0  0  0  0  0  0  0  0  0  0  0  0
   -6.1861    3.4241    2.8954 H   0  0  0  0  0  0  0  0  0  0  0  0
   -4.6369    3.1693    3.6708 H   0  0  0  0  0  0  0  0  0  0  0  0
   -3.3731    2.2391    1.5790 N   0  0  0  0  0  0  0  0  0  0  0  0
   -2.7599    1.4751    0.5247 C   0  0  2  0  0  0  0  0  0  0  0  0
   -1.5143    0.8067    1.0915 C   0  0  0  0  0  0  0  0  0  0  0  0
   -0.9247    1.2213    2.0872 O   0  0  0  0  0  0  0  0  0  0  0  0
   -2.4106    2.3553   -0.6653 C   0  0  0  0  0  0  0  0  0  0  0  0
   -2.8254    2.4352    2.4150 H   0  0  0  0  0  0  0  0  0  0  0  0
   -3.4836    0.7082    0.2278 H   0  0  0  0  0  0  0  0  0  0  0  0
   -1.6866    3.1298   -0.3871 H   0  0  0  0  0  0  0  0  0  0  0  0
   -1.9704    1.7677   -1.4777 H   0  0  0  0  0  0  0  0  0  0  0  0
   -3.3030    2.8584   -1.0531 H   0  0  0  0  0  0  0  0  0  0  0  0
   -1.1107   -0.2839    0.3303 N   0  0  0  0  0  0  0  0  0  0  0  0
    0.0490   -1.0750    0.6539 C   0  0  2  0  0  0  0  0  0  0  0  0
    1.0087   -0.9911   -0.5295 C   0  0  0  0  0  0  0  0  0  0  0  0
    1.2457    0.0566   -1.1273 O   0  0  0  0  0  0  0  0  0  0  0  0
   -0.3005   -2.5308    0.9954 C   0  0  2  0  0  0  0  0  0  0  0  0
   -0.9272   -3.1730   -0.1139 O   0  0  0  0  0  0  0  0  0  0  0  0
   -1.2451   -2.6327    2.1869 C   0  0  0  0  0  0  0  0  0  0  0  0
   -1.6733   -0.5660   -0.4691 H   0  0  0  0  0  0  0  0  0  0  0  0
    0.5231   -0.5920    1.5170 H   0  0  0  0  0  0  0  0  0  0  0  0
    0.6099   -3.0961    1.2263 H   0  0  0  0  0  0  0  0  0  0  0  0
   -1.0744   -4.0942    0.1493 H   0  0  0  0  0  0  0  0  0  0  0  0
   -2.1753   -2.0827    2.0083 H   0  0  0  0  0  0  0  0  0  0  0  0
   -0.7774   -2.2500    3.0990 H   0  0  0  0  0  0  0  0  0  0  0  0
   -1.5305   -3.6771    2.3552 H   0  0  0  0  0  0  0  0  0  0  0  0
    1.5300   -2.2314   -0.8695 N   0  0  0  0  0  0  0  0  0  0  0  0
    2.4375   -2.4158   -1.9775 C   0  0  2  0  0  0  0  0  0  0  0  0
    3.8235   -1.9711   -1.5292 C   0  0  0  0  0  0  0  0  0  0  0  0
    4.0090   -1.1919   -0.5967 O   0  0  0  0  0  0  0  0  0  0  0  0
    1.9844   -1.6329   -3.2000 C   0  0  0  0  0  0  0  0  0  0  0  0
    1.2628   -3.0412   -0.3174 H   0  0  0  0  0  0  0  0  0  0  0  0
    2.4516   -3.4884   -2.1997 H   0  0  0  0  0  0  0  0  0  0  0  0
    1.9641   -0.5560   -2.9965 H   0  0  0  0  0  0  0  0  0  0  0  0
    2.6579   -1.7964   -4.0478 H   0  0  0  0  0  0  0  0  0  0  0  0
    0.9755   -1.9330   -3.5031 H   0  0  0  0  0  0  0  0  0  0  0  0
    4.8267   -2.5130   -2.3204 N   0  0  0  0  0  0  0  0  0  0  0  0
    6.2269   -2.2321   -2.1049 C   0  0  0  0  0  0  0  0  0  0  0  0
    4.5825   -3.1647   -3.0603 H   0  0  0  0  0  0  0  0  0  0  0  0
    6.5291   -1.3749   -2.7245 H   0  0  0  0  0  0  0  0  0  0  0  0
    6.3940   -1.9945   -1.0439 H   0  0  0  0  0  0  0  0  0  0  0  0
    6.8244   -3.1132   -2.3818 H   0  0  0  0  0  0  0  0  0  0  0  0
  1  3  1  0  0  0  0
  1  7  1  0  0  0  0
  1  2  2  0  0  0  0
 32 33  1  0  0  0  0
 33 41  1  0  0  0  0
 33 34  2  0  0  0  0
  8  9  1  0  0  0  0
  9 17  1  0  0  0  0
  9 10  2  0  0  0  0
 18 19  1  0  0  0  0
 19 31  1  0  0  0  0
 19 20  2  0  0  0  0
 32 35  1  0  0  0  0
  8 11  1  0  0  0  0
 21 23  1  0  0  0  0
 41 42  1  0  0  0  0
 31 32  1  0  0  0  0
  7  8  1  0  0  0  0
 18 21  1  0  0  0  0
 17 18  1  0  0  0  0
 21 22  1  0  0  0  0
  3  4  1  0  0  0  0
  3  5  1  0  0  0  0
  3  6  1  0  0  0  0
 35 38  1  0  0  0  0
 35 39  1  0  0  0  0
 35 40  1  0  0  0  0
 11 14  1  0  0  0  0
 11 15  1  0  0  0  0
 11 16  1  0  0  0  0
 23 28  1  0  0  0  0
 23 29  1  0  0  0  0
 23 30  1  0  0  0  0
 42 44  1  0  0  0  0
 42 45  1  0  0  0  0
 42 46  1  0  0  0  0
 32 37  1  0  0  0  0
  8 13  1  0  0  0  0
 18 25  1  0  0  0  0
 21 26  1  0  0  0  0
 41 43  1  0  0  0  0
  7 12  1  0  0  0  0
 31 36  1  0  0  0  0
 17 24  1  0  0  0  0
 22 27  1  0  0  0  0
M  END
$$$$

  -OEChem-05262214473D

 46 45  0     1  0  0  0  0  0999 V2000
   -4.6700    2.7214    1.5150 C   0  0  0  0  0  0  0  0  0  0  0  0
   -5.4532    2.5715    0.5845 O   0  0  0  0  0  0  0  0  0  0  0  0
   -5.0996    3.4865    2.7226 C   0  0  0  0  0  0  0  0  0  0  0  0
   -4.8796    4.5629    2.6387 H   0  0  0  0  0  0  0  0  0  0  0  0
   -6.1861    3.4241    2.8954 H   0  0  0  0  0  0  0  0  0  0  0  0
   -4.6369    3.1693    3.6708 H   0  0  0  0  0  0  0  0  0  0  0  0
   -3.3731    2.2391    1.5790 N   0  0  0  0  0  0  0  0  0  0  0  0
   -2.7599    1.4751    0.5247 C   0  0  2  0  0  0  0  0  0  0  0  0
   -1.5143    0.8067    1.0915 C   0  0  0  0  0  0  0  0  0  0  0  0
   -0.9247    1.2213    2.0872 O   0  0  0  0  0  0  0  0  0  0  0  0
   -2.4106    2.3553   -0.6653 C   0  0  0  0  0  0  0  0  0  0  0  0
   -2.8254    2.4352    2.4150 H   0  0  0  0  0  0  0  0  0  0  0  0
   -3.4836    0.7082    0.2278 H   0  0  0  0  0  0  0  0  0  0  0  0
   -1.6866    3.1298   -0.3871 H   0  0  0  0  0  0  0  0  0  0  0  0
   -1.9704    1.7677   -1.4777 H   0  0  0  0  0  0  0  0  0  0  0  0
   -3.3030    2.8584   -1.0531 H   0  0  0  0  0  0  0  0  0  0  0  0
   -1.1107   -0.2839    0.3303 N   0  0  0  0  0  0  0  0  0  0  0  0
    0.0490   -1.0750    0.6539 C   0  0  2  0  0  0  0  0  0  0  0  0
    1.0087   -0.9911   -0.5295 C   0  0  0  0  0  0  0  0  0  0  0  0
    1.4538    0.0719   -0.9575 O   0  0  0  0  0  0  0  0  0  0  0  0
   -0.3005   -2.5308    0.9954 C   0  0  2  0  0  0  0  0  0  0  0  0
   -0.9272   -3.1730   -0.1139 O   0  0  0  0  0  0  0  0  0  0  0  0
   -1.2451   -2.6327    2.1869 C   0  0  0  0  0  0  0  0  0  0  0  0
   -1.6733   -0.5660   -0.4691 H   0  0  0  0  0  0  0  0  0  0  0  0
    0.5231   -0.5920    1.5170 H   0  0  0  0  0  0  0  0  0  0  0  0
    0.6099   -3.0961    1.2263 H   0  0  0  0  0  0  0  0  0  0  0  0
   -1.0744   -4.0942    0.1493 H   0  0  0  0  0  0  0  0  0  0  0  0
   -2.1753   -2.0827    2.0083 H   0  0  0  0  0  0  0  0  0  0  0  0
   -0.7774   -2.2500    3.0990 H   0  0  0  0  0  0  0  0  0  0  0  0
   -1.5305   -3.6771    2.3552 H   0  0  0  0  0  0  0  0  0  0  0  0
    1.2696   -2.2375   -1.0810 N   0  0  0  0  0  0  0  0  0  0  0  0
    2.1239   -2.4147   -2.2317 C   0  0  2  0  0  0  0  0  0  0  0  0
    3.5700   -2.3353   -1.7606 C   0  0  0  0  0  0  0  0  0  0  0  0
    3.9068   -1.7728   -0.7208 O   0  0  0  0  0  0  0  0  0  0  0  0
    1.8411   -1.3673   -3.2974 C   0  0  0  0  0  0  0  0  0  0  0  0
    0.8431   -3.0571   -0.6588 H   0  0  0  0  0  0  0  0  0  0  0  0
    1.9216   -3.4172   -2.6244 H   0  0  0  0  0  0  0  0  0  0  0  0
    2.0381   -0.3563   -2.9223 H   0  0  0  0  0  0  0  0  0  0  0  0
    2.4697   -1.5203   -4.1808 H   0  0  0  0  0  0  0  0  0  0  0  0
    0.7931   -1.4061   -3.6136 H   0  0  0  0  0  0  0  0  0  0  0  0
    4.4451   -2.9291   -2.6594 N   0  0  0  0  0  0  0  0  0  0  0  0
    5.8726   -2.9725   -2.4447 C   0  0  0  0  0  0  0  0  0  0  0  0
    4.0760   -3.3884   -3.4868 H   0  0  0  0  0  0  0  0  0  0  0  0
    6.3431   -2.1030   -2.9269 H   0  0  0  0  0  0  0  0  0  0  0  0
    6.0817   -2.9505   -1.3650 H   0  0  0  0  0  0  0  0  0  0  0  0
    6.2805   -3.8975   -2.8784 H   0  0  0  0  0  0  0  0  0  0  0  0
  1  3  1  0  0  0  0
  1  7  1  0  0  0  0
  1  2  2  0  0  0  0
 32 33  1  0  0  0  0
 33 41  1  0  0  0  0
 33 34  2  0  0  0  0
  8  9  1  0  0  0  0
  9 17  1  0  0  0  0
  9 10  2  0  0  0  0
 18 19  1  0  0  0  0
 19 31  1  0  0  0  0
 19 20  2  0  0  0  0
 32 35  1  0  0  0  0
  8 11  1  0  0  0  0
 21 23  1  0  0  0  0
 41 42  1  0  0  0  0
 31 32  1  0  0  0  0
  7  8  1  0  0  0  0
 18 21  1  0  0  0  0
 17 18  1  0  0  0  0
 21 22  1  0  0  0  0
  3  4  1  0  0  0  0
  3  5  1  0  0  0  0
  3  6  1  0  0  0  0
 35 38  1  0  0  0  0
 35 39  1  0  0  0  0
 35 40  1  0  0  0  0
 11 14  1  0  0  0  0
 11 15  1  0  0  0  0
 11 16  1  0  0  0  0
 23 28  1  0  0  0  0
 23 29  1  0  0  0  0
 23 30  1  0  0  0  0
 42 44  1  0  0  0  0
 42 45  1  0  0  0  0
 42 46  1  0  0  0  0
 32 37  1  0  0  0  0
  8 13  1  0  0  0  0
 18 25  1  0  0  0  0
 21 26  1  0  0  0  0
 41 43  1  0  0  0  0
  7 12  1  0  0  0  0
 31 36  1  0  0  0  0
 17 24  1  0  0  0  0
 22 27  1  0  0  0  0
M  END
$$$$

  -OEChem-05262214473D

 46 45  0     1  0  0  0  0  0999 V2000
   -4.6700    2.7214    1.5150 C   0  0  0  0  0  0  0  0  0  0  0  0
   -5.4532    2.5715    0.5845 O   0  0  0  0  0  0  0  0  0  0  0  0
   -5.0996    3.4865    2.7226 C   0  0  0  0  0  0  0  0  0  0  0  0
   -4.8796    4.5629    2.6387 H   0  0  0  0  0  0  0  0  0  0  0  0
   -6.1861    3.4241    2.8954 H   0  0  0  0  0  0  0  0  0  0  0  0
   -4.6369    3.1693    3.6708 H   0  0  0  0  0  0  0  0  0  0  0  0
   -3.3731    2.2391    1.5790 N   0  0  0  0  0  0  0  0  0  0  0  0
   -2.7599    1.4751    0.5247 C   0  0  2  0  0  0  0  0  0  0  0  0
   -1.5143    0.8067    1.0915 C   0  0  0  0  0  0  0  0  0  0  0  0
   -0.9247    1.2213    2.0872 O   0  0  0  0  0  0  0  0  0  0  0  0
   -2.4106    2.3553   -0.6653 C   0  0  0  0  0  0  0  0  0  0  0  0
   -2.8254    2.4352    2.4150 H   0  0  0  0  0  0  0  0  0  0  0  0
   -3.4836    0.7082    0.2278 H   0  0  0  0  0  0  0  0  0  0  0  0
   -1.6866    3.1298   -0.3871 H   0  0  0  0  0  0  0  0  0  0  0  0
   -1.9704    1.7677   -1.4777 H   0  0  0  0  0  0  0  0  0  0  0  0
   -3.3030    2.8584   -1.0531 H   0  0  0  0  0  0  0  0  0  0  0  0
   -1.1107   -0.2839    0.3303 N   0  0  0  0  0  0  0  0  0  0  0  0
    0.0490   -1.0750    0.6539 C   0  0  2  0  0  0  0  0  0  0  0  0
    1.0087   -0.9911   -0.5295 C   0  0  0  0  0  0  0  0  0  0  0  0
    1.6603    0.0173   -0.7939 O   0  0  0  0  0  0  0  0  0  0  0  0
   -0.3005   -2.5308    0.9954 C   0  0  2  0  0  0  0  0  0  0  0  0
   -0.9272   -3.1730   -0.1139 O   0  0  0  0  0  0  0  0  0  0  0  0
   -1.2451   -2.6327    2.1869 C   0  0  0  0  0  0  0  0  0  0  0  0
   -1.6733   -0.5660   -0.4691 H   0  0  0  0  0  0  0  0  0  0  0  0
    0.5231   -0.5920    1.5170 H   0  0  0  0  0  0  0  0  0  0  0  0
    0.6099   -3.0961    1.2263 H   0  0  0  0  0  0  0  0  0  0  0  0
   -1.0744   -4.0942    0.1493 H   0  0  0  0  0  0  0  0  0  0  0  0
   -2.1753   -2.0827    2.0083 H   0  0  0  0  0  0  0  0  0  0  0  0
   -0.7774   -2.2500    3.0990 H   0  0  0  0  0  0  0  0  0  0  0  0
   -1.5305   -3.6771    2.3552 H   0  0  0  0  0  0  0  0  0  0  0  0
    1.0139   -2.1566   -1.2826 N   0  0  0  0  0  0  0  0  0  0  0  0
    1.8176   -2.3094   -2.4727 C   0  0  2  0  0  0  0  0  0  0  0  0
    3.2488   -2.5986   -2.0397 C   0  0  0  0  0  0  0  0  0  0  0  0
    3.6897   -2.2931   -0.9337 O   0  0  0  0  0  0  0  0  0  0  0  0
    1.7546   -1.0660   -3.3461 C   0  0  0  0  0  0  0  0  0  0  0  0
    0.4297   -2.9326   -0.9853 H   0  0  0  0  0  0  0  0  0  0  0  0
    1.4180   -3.1729   -3.0155 H   0  0  0  0  0  0  0  0  0  0  0  0
    2.1508   -0.1904   -2.8192 H   0  0  0  0  0  0  0  0  0  0  0  0
    2.3415   -1.1942   -4.2617 H   0  0  0  0  0  0  0  0  0  0  0  0
    0.7212   -0.8425   -3.6320 H   0  0  0  0  0  0  0  0  0  0  0  0
    3.9881   -3.1992   -3.0492 N   0  0  0  0  0  0  0  0  0  0  0  0
    5.3770   -3.5613   -2.8884 C   0  0  0  0  0  0  0  0  0  0  0  0
    3.5359   -3.4334   -3.9280 H   0  0  0  0  0  0  0  0  0  0  0  0
    6.0145   -2.7360   -3.2383 H   0  0  0  0  0  0  0  0  0  0  0  0
    5.5836   -3.7591   -1.8262 H   0  0  0  0  0  0  0  0  0  0  0  0
    5.5908   -4.4650   -3.4780 H   0  0  0  0  0  0  0  0  0  0  0  0
  1  3  1  0  0  0  0
  1  7  1  0  0  0  0
  1  2  2  0  0  0  0
 32 33  1  0  0  0  0
 33 41  1  0  0  0  0
 33 34  2  0  0  0  0
  8  9  1  0  0  0  0
  9 17  1  0  0  0  0
  9 10  2  0  0  0  0
 18 19  1  0  0  0  0
 19 31  1  0  0  0  0
 19 20  2  0  0  0  0
 32 35  1  0  0  0  0
  8 11  1  0  0  0  0
 21 23  1  0  0  0  0
 41 42  1  0  0  0  0
 31 32  1  0  0  0  0
  7  8  1  0  0  0  0
 18 21  1  0  0  0  0
 17 18  1  0  0  0  0
 21 22  1  0  0  0  0
  3  4  1  0  0  0  0
  3  5  1  0  0  0  0
  3  6  1  0  0  0  0
 35 38  1  0  0  0  0
 35 39  1  0  0  0  0
 35 40  1  0  0  0  0
 11 14  1  0  0  0  0
 11 15  1  0  0  0  0
 11 16  1  0  0  0  0
 23 28  1  0  0  0  0
 23 29  1  0  0  0  0
 23 30  1  0  0  0  0
 42 44  1  0  0  0  0
 42 45  1  0  0  0  0
 42 46  1  0  0  0  0
 32 37  1  0  0  0  0
  8 13  1  0  0  0  0
 18 25  1  0  0  0  0
 21 26  1  0  0  0  0
 41 43  1  0  0  0  0
  7 12  1  0  0  0  0
 31 36  1  0  0  0  0
 17 24  1  0  0  0  0
 22 27  1  0  0  0  0
M  END
$$$$

  -OEChem-05262214473D

 46 45  0     1  0  0  0  0  0999 V2000
   -4.6700    2.7214    1.5150 C   0  0  0  0  0  0  0  0  0  0  0  0
   -5.4532    2.5715    0.5845 O   0  0  0  0  0  0  0  0  0  0  0  0
   -5.0996    3.4865    2.7226 C   0  0  0  0  0  0  0  0  0  0  0  0
   -4.8796    4.5629    2.6387 H   0  0  0  0  0  0  0  0  0  0  0  0
   -6.1861    3.4241    2.8954 H   0  0  0  0  0  0  0  0  0  0  0  0
   -4.6369    3.1693    3.6708 H   0  0  0  0  0  0  0  0  0  0  0  0
   -3.3731    2.2391    1.5790 N   0  0  0  0  0  0  0  0  0  0  0  0
   -2.7599    1.4751    0.5247 C   0  0  2  0  0  0  0  0  0  0  0  0
   -1.5143    0.8067    1.0915 C   0  0  0  0  0  0  0  0  0  0  0  0
   -0.9247    1.2213    2.0872 O   0  0  0  0  0  0  0  0  0  0  0  0
   -2.4106    2.3553   -0.6653 C   0  0  0  0  0  0  0  0  0  0  0  0
   -2.8254    2.4352    2.4150 H   0  0  0  0  0  0  0  0  0  0  0  0
   -3.4836    0.7082    0.2278 H   0  0  0  0  0  0  0  0  0  0  0  0
   -1.6866    3.1298   -0.3871 H   0  0  0  0  0  0  0  0  0  0  0  0
   -1.9704    1.7677   -1.4777 H   0  0  0  0  0  0  0  0  0  0  0  0
   -3.3030    2.8584   -1.0531 H   0  0  0  0  0  0  0  0  0  0  0  0
   -1.1107   -0.2839    0.3303 N   0  0  0  0  0  0  0  0  0  0  0  0
    0.0490   -1.0750    0.6539 C   0  0  2  0  0  0  0  0  0  0  0  0
    1.0087   -0.9911   -0.5295 C   0  0  0  0  0  0  0  0  0  0  0  0
    1.8511   -0.1036   -0.6478 O   0  0  0  0  0  0  0  0  0  0  0  0
   -0.3005   -2.5308    0.9954 C   0  0  2  0  0  0  0  0  0  0  0  0
   -0.9272   -3.1730   -0.1139 O   0  0  0  0  0  0  0  0  0  0  0  0
   -1.2451   -2.6327    2.1869 C   0  0  0  0  0  0  0  0  0  0  0  0
   -1.6733   -0.5660   -0.4691 H   0  0  0  0  0  0  0  0  0  0  0  0
    0.5231   -0.5920    1.5170 H   0  0  0  0  0  0  0  0  0  0  0  0
    0.6099   -3.0961    1.2263 H   0  0  0  0  0  0  0  0  0  0  0  0
   -1.0744   -4.0942    0.1493 H   0  0  0  0  0  0  0  0  0  0  0  0
   -2.1753   -2.0827    2.0083 H   0  0  0  0  0  0  0  0  0  0  0  0
   -0.7774   -2.2500    3.0990 H   0  0  0  0  0  0  0  0  0  0  0  0
   -1.5305   -3.6771    2.3552 H   0  0  0  0  0  0  0  0  0  0  0  0
    0.7803   -1.9944   -1.4606 N   0  0  0  0  0  0  0  0  0  0  0  0
    1.5394   -2.1069   -2.6839 C   0  0  2  0  0  0  0  0  0  0  0  0
    2.8817   -2.7430   -2.3477 C   0  0  0  0  0  0  0  0  0  0  0  0
    3.3726   -2.7175   -1.2210 O   0  0  0  0  0  0  0  0  0  0  0  0
    1.7309   -0.7498   -3.3430 C   0  0  0  0  0  0  0  0  0  0  0  0
    0.0507   -2.6763   -1.2744 H   0  0  0  0  0  0  0  0  0  0  0  0
    0.9750   -2.7722   -3.3463 H   0  0  0  0  0  0  0  0  0  0  0  0
    2.2944   -0.0695   -2.6941 H   0  0  0  0  0  0  0  0  0  0  0  0
    2.2819   -0.8404   -4.2849 H   0  0  0  0  0  0  0  0  0  0  0  0
    0.7645   -0.2806   -3.5570 H   0  0  0  0  0  0  0  0  0  0  0  0
    3.4869   -3.3049   -3.4631 N   0  0  0  0  0  0  0  0  0  0  0  0
    4.7737   -3.9583   -3.4057 C   0  0  0  0  0  0  0  0  0  0  0  0
    2.9989   -3.2966   -4.3538 H   0  0  0  0  0  0  0  0  0  0  0  0
    5.5656   -3.2307   -3.6375 H   0  0  0  0  0  0  0  0  0  0  0  0
    4.9336   -4.3650   -2.3963 H   0  0  0  0  0  0  0  0  0  0  0  0
    4.8020   -4.7771   -4.1397 H   0  0  0  0  0  0  0  0  0  0  0  0
  1  3  1  0  0  0  0
  1  7  1  0  0  0  0
  1  2  2  0  0  0  0
 32 33  1  0  0  0  0
 33 41  1  0  0  0  0
 33 34  2  0  0  0  0
  8  9  1  0  0  0  0
  9 17  1  0  0  0  0
  9 10  2  0  0  0  0
 18 19  1  0  0  0  0
 19 31  1  0  0  0  0
 19 20  2  0  0  0  0
 32 35  1  0  0  0  0
  8 11  1  0  0  0  0
 21 23  1  0  0  0  0
 41 42  1  0  0  0  0
 31 32  1  0  0  0  0
  7  8  1  0  0  0  0
 18 21  1  0  0  0  0
 17 18  1  0  0  0  0
 21 22  1  0  0  0  0
  3  4  1  0  0  0  0
  3  5  1  0  0  0  0
  3  6  1  0  0  0  0
 35 38  1  0  0  0  0
 35 39  1  0  0  0  0
 35 40  1  0  0  0  0
 11 14  1  0  0  0  0
 11 15  1  0  0  0  0
 11 16  1  0  0  0  0
 23 28  1  0  0  0  0
 23 29  1  0  0  0  0
 23 30  1  0  0  0  0
 42 44  1  0  0  0  0
 42 45  1  0  0  0  0
 42 46  1  0  0  0  0
 32 37  1  0  0  0  0
  8 13  1  0  0  0  0
 18 25  1  0  0  0  0
 21 26  1  0  0  0  0
 41 43  1  0  0  0  0
  7 12  1  0  0  0  0
 31 36  1  0  0  0  0
 17 24  1  0  0  0  0
 22 27  1  0  0  0  0
M  END
$$$$

  -OEChem-05262214473D

 46 45  0     1  0  0  0  0  0999 V2000
   -4.6700    2.7214    1.5150 C   0  0  0  0  0  0  0  0  0  0  0  0
   -5.4532    2.5715    0.5845 O   0  0  0  0  0  0  0  0  0  0  0  0
   -5.0996    3.4865    2.7226 C   0  0  0  0  0  0  0  0  0  0  0  0
   -4.8796    4.5629    2.6387 H   0  0  0  0  0  0  0  0  0  0  0  0
   -6.1861    3.4241    2.8954 H   0  0  0  0  0  0  0  0  0  0  0  0
   -4.6369    3.1693    3.6708 H   0  0  0  0  0  0  0  0  0  0  0  0
   -3.3731    2.2391    1.5790 N   0  0  0  0  0  0  0  0  0  0  0  0
   -2.7599    1.4751    0.5247 C   0  0  2  0  0  0  0  0  0  0  0  0
   -1.5143    0.8067    1.0915 C   0  0  0  0  0  0  0  0  0  0  0  0
   -0.9247    1.2213    2.0872 O   0  0  0  0  0  0  0  0  0  0  0  0
   -2.4106    2.3553   -0.6653 C   0  0  0  0  0  0  0  0  0  0  0  0
   -2.8254    2.4352    2.4150 H   0  0  0  0  0  0  0  0  0  0  0  0
   -3.4836    0.7082    0.2278 H   0  0  0  0  0  0  0  0  0  0  0  0
   -1.6866    3.1298   -0.3871 H   0  0  0  0  0  0  0  0  0  0  0  0
   -1.9704    1.7677   -1.4777 H   0  0  0  0  0  0  0  0  0  0  0  0
   -3.3030    2.8584   -1.0531 H   0  0  0  0  0  0  0  0  0  0  0  0
   -1.1107   -0.2839    0.3303 N   0  0  0  0  0  0  0  0  0  0  0  0
    0.0490   -1.0750    0.6539 C   0  0  2  0  0  0  0  0  0  0  0  0
    1.0087   -0.9911   -0.5295 C   0  0  0  0  0  0  0  0  0  0  0  0
    2.0132   -0.2824   -0.5290 O   0  0  0  0  0  0  0  0  0  0  0  0
   -0.3005   -2.5308    0.9954 C   0  0  2  0  0  0  0  0  0  0  0  0
   -0.9272   -3.1730   -0.1139 O   0  0  0  0  0  0  0  0  0  0  0  0
   -1.2451   -2.6327    2.1869 C   0  0  0  0  0  0  0  0  0  0  0  0
   -1.6733   -0.5660   -0.4691 H   0  0  0  0  0  0  0  0  0  0  0  0
    0.5231   -0.5920    1.5170 H   0  0  0  0  0  0  0  0  0  0  0  0
    0.6099   -3.0961    1.2263 H   0  0  0  0  0  0  0  0  0  0  0  0
   -1.0744   -4.0942    0.1493 H   0  0  0  0  0  0  0  0  0  0  0  0
   -2.1753   -2.0827    2.0083 H   0  0  0  0  0  0  0  0  0  0  0  0
   -0.7774   -2.2500    3.0990 H   0  0  0  0  0  0  0  0  0  0  0  0
   -1.5305   -3.6771    2.3552 H   0  0  0  0  0  0  0  0  0  0  0  0
    0.5846   -1.7618   -1.6028 N   0  0  0  0  0  0  0  0  0  0  0  0
    1.3083   -1.8211   -2.8510 C   0  0  2  0  0  0  0  0  0  0  0  0
    2.4937   -2.7586   -2.6634 C   0  0  0  0  0  0  0  0  0  0  0  0
    2.9770   -3.0170   -1.5630 O   0  0  0  0  0  0  0  0  0  0  0  0
    1.7714   -0.4401   -3.2881 C   0  0  0  0  0  0  0  0  0  0  0  0
   -0.2680   -2.3056   -1.5066 H   0  0  0  0  0  0  0  0  0  0  0  0
    0.6228   -2.2424   -3.5943 H   0  0  0  0  0  0  0  0  0  0  0  0
    2.4592   -0.0018   -2.5557 H   0  0  0  0  0  0  0  0  0  0  0  0
    2.2951   -0.4829   -4.2489 H   0  0  0  0  0  0  0  0  0  0  0  0
    0.9202    0.2411   -3.3938 H   0  0  0  0  0  0  0  0  0  0  0  0
    2.9757   -3.2390   -3.8729 N   0  0  0  0  0  0  0  0  0  0  0  0
    4.1039   -4.1364   -3.9615 C   0  0  0  0  0  0  0  0  0  0  0  0
    2.5015   -2.9873   -4.7352 H   0  0  0  0  0  0  0  0  0  0  0  0
    5.0269   -3.5536   -4.0971 H   0  0  0  0  0  0  0  0  0  0  0  0
    4.1760   -4.7270   -3.0363 H   0  0  0  0  0  0  0  0  0  0  0  0
    3.9681   -4.8125   -4.8185 H   0  0  0  0  0  0  0  0  0  0  0  0
  1  3  1  0  0  0  0
  1  7  1  0  0  0  0
  1  2  2  0  0  0  0
 32 33  1  0  0  0  0
 33 41  1  0  0  0  0
 33 34  2  0  0  0  0
  8  9  1  0  0  0  0
  9 17  1  0  0  0  0
  9 10  2  0  0  0  0
 18 19  1  0  0  0  0
 19 31  1  0  0  0  0
 19 20  2  0  0  0  0
 32 35  1  0  0  0  0
  8 11  1  0  0  0  0
 21 23  1  0  0  0  0
 41 42  1  0  0  0  0
 31 32  1  0  0  0  0
  7  8  1  0  0  0  0
 18 21  1  0  0  0  0
 17 18  1  0  0  0  0
 21 22  1  0  0  0  0
  3  4  1  0  0  0  0
  3  5  1  0  0  0  0
  3  6  1  0  0  0  0
 35 38  1  0  0  0  0
 35 39  1  0  0  0  0
 35 40  1  0  0  0  0
 11 14  1  0  0  0  0
 11 15  1  0  0  0  0
 11 16  1  0  0  0  0
 23 28  1  0  0  0  0
 23 29  1  0  0  0  0
 23 30  1  0  0  0  0
 42 44  1  0  0  0  0
 42 45  1  0  0  0  0
 42 46  1  0  0  0  0
 32 37  1  0  0  0  0
  8 13  1  0  0  0  0
 18 25  1  0  0  0  0
 21 26  1  0  0  0  0
 41 43  1  0  0  0  0
  7 12  1  0  0  0  0
 31 36  1  0  0  0  0
 17 24  1  0  0  0  0
 22 27  1  0  0  0  0
M  END
$$$$

  -OEChem-05262214473D

 46 45  0     1  0  0  0  0  0999 V2000
   -4.6700    2.7214    1.5150 C   0  0  0  0  0  0  0  0  0  0  0  0
   -5.4532    2.5715    0.5845 O   0  0  0  0  0  0  0  0  0  0  0  0
   -5.0996    3.4865    2.7226 C   0  0  0  0  0  0  0  0  0  0  0  0
   -4.8796    4.5629    2.6387 H   0  0  0  0  0  0  0  0  0  0  0  0
   -6.1861    3.4241    2.8954 H   0  0  0  0  0  0  0  0  0  0  0  0
   -4.6369    3.1693    3.6708 H   0  0  0  0  0  0  0  0  0  0  0  0
   -3.3731    2.2391    1.5790 N   0  0  0  0  0  0  0  0  0  0  0  0
   -2.7599    1.4751    0.5247 C   0  0  2  0  0  0  0  0  0  0  0  0
   -1.5143    0.8067    1.0915 C   0  0  0  0  0  0  0  0  0  0  0  0
   -0.9247    1.2213    2.0872 O   0  0  0  0  0  0  0  0  0  0  0  0
   -2.4106    2.3553   -0.6653 C   0  0  0  0  0  0  0  0  0  0  0  0
   -2.8254    2.4352    2.4150 H   0  0  0  0  0  0  0  0  0  0  0  0
   -3.4836    0.7082    0.2278 H   0  0  0  0  0  0  0  0  0  0  0  0
   -1.6866    3.1298   -0.3871 H   0  0  0  0  0  0  0  0  0  0  0  0
   -1.9704    1.7677   -1.4777 H   0  0  0  0  0  0  0  0  0  0  0  0
   -3.3030    2.8584   -1.0531 H   0  0  0  0  0  0  0  0  0  0  0  0
   -1.1107   -0.2839    0.3303 N   0  0  0  0  0  0  0  0  0  0  0  0
    0.0490   -1.0750    0.6539 C   0  0  2  0  0  0  0  0  0  0  0  0
    1.0087   -0.9911   -0.5295 C   0  0  0  0  0  0  0  0  0  0  0  0
    2.1356   -0.5070   -0.4456 O   0  0  0  0  0  0  0  0  0  0  0  0
   -0.3005   -2.5308    0.9954 C   0  0  2  0  0  0  0  0  0  0  0  0
   -0.9272   -3.1730   -0.1139 O   0  0  0  0  0  0  0  0  0  0  0  0
   -1.2451   -2.6327    2.1869 C   0  0  0  0  0  0  0  0  0  0  0  0
   -1.6733   -0.5660   -0.4691 H   0  0  0  0  0  0  0  0  0  0  0  0
    0.5231   -0.5920    1.5170 H   0  0  0  0  0  0  0  0  0  0  0  0
    0.6099   -3.0961    1.2263 H   0  0  0  0  0  0  0  0  0  0  0  0
   -1.0744   -4.0942    0.1493 H   0  0  0  0  0  0  0  0  0  0  0  0
   -2.1753   -2.0827    2.0083 H   0  0  0  0  0  0  0  0  0  0  0  0
   -0.7774   -2.2500    3.0990 H   0  0  0  0  0  0  0  0  0  0  0  0
   -1.5305   -3.6771    2.3552 H   0  0  0  0  0  0  0  0  0  0  0  0
    0.4403   -1.4748   -1.6994 N   0  0  0  0  0  0  0  0  0  0  0  0
    1.1401   -1.4714   -2.9626 C   0  0  2  0  0  0  0  0  0  0  0  0
    2.1114   -2.6445   -2.9653 C   0  0  0  0  0  0  0  0  0  0  0  0
    2.5299   -3.1712   -1.9365 O   0  0  0  0  0  0  0  0  0  0  0  0
    1.8736   -0.1580   -3.1853 C   0  0  0  0  0  0  0  0  0  0  0  0
   -0.5048   -1.8457   -1.6660 H   0  0  0  0  0  0  0  0  0  0  0  0
    0.3854   -1.6196   -3.7427 H   0  0  0  0  0  0  0  0  0  0  0  0
    2.6339    0.0079   -2.4134 H   0  0  0  0  0  0  0  0  0  0  0  0
    2.3801   -0.1460   -4.1561 H   0  0  0  0  0  0  0  0  0  0  0  0
    1.1777    0.6873   -3.1534 H   0  0  0  0  0  0  0  0  0  0  0  0
    2.4893   -3.0061   -4.2509 N   0  0  0  0  0  0  0  0  0  0  0  0
    3.4133   -4.0836   -4.5178 C   0  0  0  0  0  0  0  0  0  0  0  0
    2.0778   -2.5267   -5.0462 H   0  0  0  0  0  0  0  0  0  0  0  0
    4.4353   -3.6825   -4.5860 H   0  0  0  0  0  0  0  0  0  0  0  0
    3.3625   -4.8205   -3.7027 H   0  0  0  0  0  0  0  0  0  0  0  0
    3.1459   -4.5689   -5.4680 H   0  0  0  0  0  0  0  0  0  0  0  0
  1  3  1  0  0  0  0
  1  7  1  0  0  0  0
  1  2  2  0  0  0  0
 32 33  1  0  0  0  0
 33 41  1  0  0  0  0
 33 34  2  0  0  0  0
  8  9  1  0  0  0  0
  9 17  1  0  0  0  0
  9 10  2  0  0  0  0
 18 19  1  0  0  0  0
 19 31  1  0  0  0  0
 19 20  2  0  0  0  0
 32 35  1  0  0  0  0
  8 11  1  0  0  0  0
 21 23  1  0  0  0  0
 41 42  1  0  0  0  0
 31 32  1  0  0  0  0
  7  8  1  0  0  0  0
 18 21  1  0  0  0  0
 17 18  1  0  0  0  0
 21 22  1  0  0  0  0
  3  4  1  0  0  0  0
  3  5  1  0  0  0  0
  3  6  1  0  0  0  0
 35 38  1  0  0  0  0
 35 39  1  0  0  0  0
 35 40  1  0  0  0  0
 11 14  1  0  0  0  0
 11 15  1  0  0  0  0
 11 16  1  0  0  0  0
 23 28  1  0  0  0  0
 23 29  1  0  0  0  0
 23 30  1  0  0  0  0
 42 44  1  0  0  0  0
 42 45  1  0  0  0  0
 42 46  1  0  0  0  0
 32 37  1  0  0  0  0
  8 13  1  0  0  0  0
 18 25  1  0  0  0  0
 21 26  1  0  0  0  0
 41 43  1  0  0  0  0
  7 12  1  0  0  0  0
 31 36  1  0  0  0  0
 17 24  1  0  0  0  0
 22 27  1  0  0  0  0
M  END
$$$$

  -OEChem-05262214473D

 46 45  0     1  0  0  0  0  0999 V2000
   -4.6700    2.7214    1.5150 C   0  0  0  0  0  0  0  0  0  0  0  0
   -5.4532    2.5715    0.5845 O   0  0  0  0  0  0  0  0  0  0  0  0
   -5.0996    3.4865    2.7226 C   0  0  0  0  0  0  0  0  0  0  0  0
   -4.8796    4.5629    2.6387 H   0  0  0  0  0  0  0  0  0  0  0  0
   -6.1861    3.4241    2.8954 H   0  0  0  0  0  0  0  0  0  0  0  0
   -4.6369    3.1693    3.6708 H   0  0  0  0  0  0  0  0  0  0  0  0
   -3.3731    2.2391    1.5790 N   0  0  0  0  0  0  0  0  0  0  0  0
   -2.7599    1.4751    0.5247 C   0  0  2  0  0  0  0  0  0  0  0  0
   -1.5143    0.8067    1.0915 C   0  0  0  0  0  0  0  0  0  0  0  0
   -0.9247    1.2213    2.0872 O   0  0  0  0  0  0  0  0  0  0  0  0
   -2.4106    2.3553   -0.6653 C   0  0  0  0  0  0  0  0  0  0  0  0
   -2.8254    2.4352    2.4150 H   0  0  0  0  0  0  0  0  0  0  0  0
   -3.4836    0.7082    0.2278 H   0  0  0  0  0  0  0  0  0  0  0  0
   -1.6866    3.1298   -0.3871 H   0  0  0  0  0  0  0  0  0  0  0  0
   -1.9704    1.7677   -1.4777 H   0  0  0  0  0  0  0  0  0  0  0  0
   -3.3030    2.8584   -1.0531 H   0  0  0  0  0  0  0  0  0  0  0  0
   -1.1107   -0.2839    0.3303 N   0  0  0  0  0  0  0  0  0  0  0  0
    0.0490   -1.0750    0.6539 C   0  0  2  0  0  0  0  0  0  0  0  0
    1.0087   -0.9911   -0.5295 C   0  0  0  0  0  0  0  0  0  0  0  0
    2.2099   -0.7621   -0.4035 O   0  0  0  0  0  0  0  0  0  0  0  0
   -0.3005   -2.5308    0.9954 C   0  0  2  0  0  0  0  0  0  0  0  0
   -0.9272   -3.1730   -0.1139 O   0  0  0  0  0  0  0  0  0  0  0  0
   -1.2451   -2.6327    2.1869 C   0  0  0  0  0  0  0  0  0  0  0  0
   -1.6733   -0.5660   -0.4691 H   0  0  0  0  0  0  0  0  0  0  0  0
    0.5231   -0.5920    1.5170 H   0  0  0  0  0  0  0  0  0  0  0  0
    0.6099   -3.0961    1.2263 H   0  0  0  0  0  0  0  0  0  0  0  0
   -1.0744   -4.0942    0.1493 H   0  0  0  0  0  0  0  0  0  0  0  0
   -2.1753   -2.0827    2.0083 H   0  0  0  0  0  0  0  0  0  0  0  0
   -0.7774   -2.2500    3.0990 H   0  0  0  0  0  0  0  0  0  0  0  0
   -1.5305   -3.6771    2.3552 H   0  0  0  0  0  0  0  0  0  0  0  0
    0.3572   -1.1528   -1.7440 N   0  0  0  0  0  0  0  0  0  0  0  0
    1.0462   -1.0817   -3.0111 C   0  0  2  0  0  0  0  0  0  0  0  0
    1.7606   -2.4083   -3.2330 C   0  0  0  0  0  0  0  0  0  0  0  0
    2.0617   -3.1697   -2.3161 O   0  0  0  0  0  0  0  0  0  0  0  0
    2.0303    0.0773   -3.0415 C   0  0  0  0  0  0  0  0  0  0  0  0
   -0.6434   -1.3280   -1.7417 H   0  0  0  0  0  0  0  0  0  0  0  0
    0.2790   -0.9462   -3.7812 H   0  0  0  0  0  0  0  0  0  0  0  0
    2.8066   -0.0410   -2.2768 H   0  0  0  0  0  0  0  0  0  0  0  0
    2.5311    0.1472   -4.0128 H   0  0  0  0  0  0  0  0  0  0  0  0
    1.5193    1.0275   -2.8522 H   0  0  0  0  0  0  0  0  0  0  0  0
    2.0609   -2.6220   -4.5711 N   0  0  0  0  0  0  0  0  0  0  0  0
    2.7489   -3.8034   -5.0367 C   0  0  0  0  0  0  0  0  0  0  0  0
    1.7565   -1.9462   -5.2656 H   0  0  0  0  0  0  0  0  0  0  0  0
    3.8310   -3.6086   -5.0708 H   0  0  0  0  0  0  0  0  0  0  0  0
    2.5484   -4.6390   -4.3499 H   0  0  0  0  0  0  0  0  0  0  0  0
    2.3913   -4.0628   -6.0441 H   0  0  0  0  0  0  0  0  0  0  0  0
  1  3  1  0  0  0  0
  1  7  1  0  0  0  0
  1  2  2  0  0  0  0
 32 33  1  0  0  0  0
 33 41  1  0  0  0  0
 33 34  2  0  0  0  0
  8  9  1  0  0  0  0
  9 17  1  0  0  0  0
  9 10  2  0  0  0  0
 18 19  1  0  0  0  0
 19 31  1  0  0  0  0
 19 20  2  0  0  0  0
 32 35  1  0  0  0  0
  8 11  1  0  0  0  0
 21 23  1  0  0  0  0
 41 42  1  0  0  0  0
 31 32  1  0  0  0  0
  7  8  1  0  0  0  0
 18 21  1  0  0  0  0
 17 18  1  0  0  0  0
 21 22  1  0  0  0  0
  3  4  1  0  0  0  0
  3  5  1  0  0  0  0
  3  6  1  0  0  0  0
 35 38  1  0  0  0  0
 35 39  1  0  0  0  0
 35 40  1  0  0  0  0
 11 14  1  0  0  0  0
 11 15  1  0  0  0  0
 11 16  1  0  0  0  0
 23 28  1  0  0  0  0
 23 29  1  0  0  0  0
 23 30  1  0  0  0  0
 42 44  1  0  0  0  0
 42 45  1  0  0  0  0
 42 46  1  0  0  0  0
 32 37  1  0  0  0  0
  8 13  1  0  0  0  0
 18 25  1  0  0  0  0
 21 26  1  0  0  0  0
 41 43  1  0  0  0  0
  7 12  1  0  0  0  0
 31 36  1  0  0  0  0
 17 24  1  0  0  0  0
 22 27  1  0  0  0  0
M  END
$$$$

  -OEChem-05262214473D

 46 45  0     1  0  0  0  0  0999 V2000
   -4.6700    2.7214    1.5150 C   0  0  0  0  0  0  0  0  0  0  0  0
   -5.4532    2.5715    0.5845 O   0  0  0  0  0  0  0  0  0  0  0  0
   -5.0996    3.4865    2.7226 C   0  0  0  0  0  0  0  0  0  0  0  0
   -4.8796    4.5629    2.6387 H   0  0  0  0  0  0  0  0  0  0  0  0
   -6.1861    3.4241    2.8954 H   0  0  0  0  0  0  0  0  0  0  0  0
   -4.6369    3.1693    3.6708 H   0  0  0  0  0  0  0  0  0  0  0  0
   -3.3731    2.2391    1.5790 N   0  0  0  0  0  0  0  0  0  0  0  0
   -2.7599    1.4751    0.5247 C   0  0  2  0  0  0  0  0  0  0  0  0
   -1.5143    0.8067    1.0915 C   0  0  0  0  0  0  0  0  0  0  0  0
   -0.9247    1.2213    2.0872 O   0  0  0  0  0  0  0  0  0  0  0  0
   -2.4106    2.3553   -0.6653 C   0  0  0  0  0  0  0  0  0  0  0  0
   -2.8254    2.4352    2.4150 H   0  0  0  0  0  0  0  0  0  0  0  0
   -3.4836    0.7082    0.2278 H   0  0  0  0  0  0  0  0  0  0  0  0
   -1.6866    3.1298   -0.3871 H   0  0  0  0  0  0  0  0  0  0  0  0
   -1.9704    1.7677   -1.4777 H   0  0  0  0  0  0  0  0  0  0  0  0
   -3.3030    2.8584   -1.0531 H   0  0  0  0  0  0  0  0  0  0  0  0
   -1.1107   -0.2839    0.3303 N   0  0  0  0  0  0  0  0  0  0  0  0
    0.0490   -1.0750    0.6539 C   0  0  2  0  0  0  0  0  0  0  0  0
    1.0087   -0.9911   -0.5295 C   0  0  0  0  0  0  0  0  0  0  0  0
    2.2311   -1.0303   -0.4053 O   0  0  0  0  0  0  0  0  0  0  0  0
   -0.3005   -2.5308    0.9954 C   0  0  2  0  0  0  0  0  0  0  0  0
   -0.9272   -3.1730   -0.1139 O   0  0  0  0  0  0  0  0  0  0  0  0
   -1.2451   -2.6327    2.1869 C   0  0  0  0  0  0  0  0  0  0  0  0
   -1.6733   -0.5660   -0.4691 H   0  0  0  0  0  0  0  0  0  0  0  0
    0.5231   -0.5920    1.5170 H   0  0  0  0  0  0  0  0  0  0  0  0
    0.6099   -3.0961    1.2263 H   0  0  0  0  0  0  0  0  0  0  0  0
   -1.0744   -4.0942    0.1493 H   0  0  0  0  0  0  0  0  0  0  0  0
   -2.1753   -2.0827    2.0083 H   0  0  0  0  0  0  0  0  0  0  0  0
   -0.7774   -2.2500    3.0990 H   0  0  0  0  0  0  0  0  0  0  0  0
   -1.5305   -3.6771    2.3552 H   0  0  0  0  0  0  0  0  0  0  0  0
    0.3408   -0.8179   -1.7335 N   0  0  0  0  0  0  0  0  0  0  0  0
    1.0331   -0.6786   -2.9932 C   0  0  2  0  0  0  0  0  0  0  0  0
    1.4655   -2.0663   -3.4481 C   0  0  0  0  0  0  0  0  0  0  0  0
    1.6045   -3.0124   -2.6757 O   0  0  0  0  0  0  0  0  0  0  0  0
    2.2310    0.2497   -2.8666 C   0  0  0  0  0  0  0  0  0  0  0  0
   -0.6745   -0.7878   -1.7286 H   0  0  0  0  0  0  0  0  0  0  0  0
    0.3109   -0.2681   -3.7073 H   0  0  0  0  0  0  0  0  0  0  0  0
    2.9656   -0.1451   -2.1553 H   0  0  0  0  0  0  0  0  0  0  0  0
    2.7379    0.3768   -3.8288 H   0  0  0  0  0  0  0  0  0  0  0  0
    1.9219    1.2385   -2.5108 H   0  0  0  0  0  0  0  0  0  0  0  0
    1.7196   -2.1128   -4.8117 N   0  0  0  0  0  0  0  0  0  0  0  0
    2.1560   -3.3149   -5.4828 C   0  0  0  0  0  0  0  0  0  0  0  0
    1.5595   -1.2852   -5.3784 H   0  0  0  0  0  0  0  0  0  0  0  0
    3.2552   -3.3371   -5.5185 H   0  0  0  0  0  0  0  0  0  0  0  0
    1.7893   -4.1949   -4.9340 H   0  0  0  0  0  0  0  0  0  0  0  0
    1.7558   -3.3287   -6.5073 H   0  0  0  0  0  0  0  0  0  0  0  0
  1  3  1  0  0  0  0
  1  7  1  0  0  0  0
  1  2  2  0  0  0  0
 32 33  1  0  0  0  0
 33 41  1  0  0  0  0
 33 34  2  0  0  0  0
  8  9  1  0  0  0  0
  9 17  1  0  0  0  0
  9 10  2  0  0  0  0
 18 19  1  0  0  0  0
 19 31  1  0  0  0  0
 19 20  2  0  0  0  0
 32 35  1  0  0  0  0
  8 11  1  0  0  0  0
 21 23  1  0  0  0  0
 41 42  1  0  0  0  0
 31 32  1  0  0  0  0
  7  8  1  0  0  0  0
 18 21  1  0  0  0  0
 17 18  1  0  0  0  0
 21 22  1  0  0  0  0
  3  4  1  0  0  0  0
  3  5  1  0  0  0  0
  3  6  1  0  0  0  0
 35 38  1  0  0  0  0
 35 39  1  0  0  0  0
 35 40  1  0  0  0  0
 11 14  1  0  0  0  0
 11 15  1  0  0  0  0
 11 16  1  0  0  0  0
 23 28  1  0  0  0  0
 23 29  1  0  0  0  0
 23 30  1  0  0  0  0
 42 44  1  0  0  0  0
 42 45  1  0  0  0  0
 42 46  1  0  0  0  0
 32 37  1  0  0  0  0
  8 13  1  0  0  0  0
 18 25  1  0  0  0  0
 21 26  1  0  0  0  0
 41 43  1  0  0  0  0
  7 12  1  0  0  0  0
 31 36  1  0  0  0  0
 17 24  1  0  0  0  0
 22 27  1  0  0  0  0
M  END
$$$$

  -OEChem-05262214473D

 46 45  0     1  0  0  0  0  0999 V2000
   -4.6700    2.7214    1.5150 C   0  0  0  0  0  0  0  0  0  0  0  0
   -5.4532    2.5715    0.5845 O   0  0  0  0  0  0  0  0  0  0  0  0
   -5.0996    3.4865    2.7226 C   0  0  0  0  0  0  0  0  0  0  0  0
   -4.8796    4.5629    2.6387 H   0  0  0  0  0  0  0  0  0  0  0  0
   -6.1861    3.4241    2.8954 H   0  0  0  0  0  0  0  0  0  0  0  0
   -4.6369    3.1693    3.6708 H   0  0  0  0  0  0  0  0  0  0  0  0
   -3.3731    2.2391    1.5790 N   0  0  0  0  0  0  0  0  0  0  0  0
   -2.7599    1.4751    0.5247 C   0  0  2  0  0  0  0  0  0  0  0  0
   -1.5143    0.8067    1.0915 C   0  0  0  0  0  0  0  0  0  0  0  0
   -0.9247    1.2213    2.0872 O   0  0  0  0  0  0  0  0  0  0  0  0
   -2.4106    2.3553   -0.6653 C   0  0  0  0  0  0  0  0  0  0  0  0
   -2.8254    2.4352    2.4150 H   0  0  0  0  0  0  0  0  0  0  0  0
   -3.4836    0.7082    0.2278 H   0  0  0  0  0  0  0  0  0  0  0  0
   -1.6866    3.1298   -0.3871 H   0  0  0  0  0  0  0  0  0  0  0  0
   -1.9704    1.7677   -1.4777 H   0  0  0  0  0  0  0  0  0  0  0  0
   -3.3030    2.8584   -1.0531 H   0  0  0  0  0  0  0  0  0  0  0  0
   -1.1107   -0.2839    0.3303 N   0  0  0  0  0  0  0  0  0  0  0  0
    0.0490   -1.0750    0.6539 C   0  0  2  0  0  0  0  0  0  0  0  0
    1.0087   -0.9911   -0.5295 C   0  0  0  0  0  0  0  0  0  0  0  0
    2.1977   -1.2933   -0.4510 O   0  0  0  0  0  0  0  0  0  0  0  0
   -0.3005   -2.5308    0.9954 C   0  0  2  0  0  0  0  0  0  0  0  0
   -0.9272   -3.1730   -0.1139 O   0  0  0  0  0  0  0  0  0  0  0  0
   -1.2451   -2.6327    2.1869 C   0  0  0  0  0  0  0  0  0  0  0  0
   -1.6733   -0.5660   -0.4691 H   0  0  0  0  0  0  0  0  0  0  0  0
    0.5231   -0.5920    1.5170 H   0  0  0  0  0  0  0  0  0  0  0  0
    0.6099   -3.0961    1.2263 H   0  0  0  0  0  0  0  0  0  0  0  0
   -1.0744   -4.0942    0.1493 H   0  0  0  0  0  0  0  0  0  0  0  0
   -2.1753   -2.0827    2.0083 H   0  0  0  0  0  0  0  0  0  0  0  0
   -0.7774   -2.2500    3.0990 H   0  0  0  0  0  0  0  0  0  0  0  0
   -1.5305   -3.6771    2.3552 H   0  0  0  0  0  0  0  0  0  0  0  0
    0.3924   -0.4928   -1.6686 N   0  0  0  0  0  0  0  0  0  0  0  0
    1.1016   -0.2895   -2.9101 C   0  0  2  0  0  0  0  0  0  0  0  0
    1.2459   -1.6416   -3.5960 C   0  0  0  0  0  0  0  0  0  0  0  0
    1.1892   -2.7102   -2.9910 O   0  0  0  0  0  0  0  0  0  0  0  0
    2.4619    0.3474   -2.6724 C   0  0  0  0  0  0  0  0  0  0  0  0
   -0.5959   -0.2620   -1.6276 H   0  0  0  0  0  0  0  0  0  0  0  0
    0.4788    0.3685   -3.5260 H   0  0  0  0  0  0  0  0  0  0  0  0
    3.0999   -0.2973   -2.0571 H   0  0  0  0  0  0  0  0  0  0  0  0
    2.9863    0.5271   -3.6167 H   0  0  0  0  0  0  0  0  0  0  0  0
    2.3580    1.3059   -2.1524 H   0  0  0  0  0  0  0  0  0  0  0  0
    1.4887   -1.5133   -4.9565 N   0  0  0  0  0  0  0  0  0  0  0  0
    1.6750   -2.6515   -5.8259 C   0  0  0  0  0  0  0  0  0  0  0  0
    1.5004   -0.5888   -5.3770 H   0  0  0  0  0  0  0  0  0  0  0  0
    2.7472   -2.8864   -5.8985 H   0  0  0  0  0  0  0  0  0  0  0  0
    1.1369   -3.5185   -5.4151 H   0  0  0  0  0  0  0  0  0  0  0  0
    1.2827   -2.4167   -6.8263 H   0  0  0  0  0  0  0  0  0  0  0  0
  1  3  1  0  0  0  0
  1  7  1  0  0  0  0
  1  2  2  0  0  0  0
 32 33  1  0  0  0  0
 33 41  1  0  0  0  0
 33 34  2  0  0  0  0
  8  9  1  0  0  0  0
  9 17  1  0  0  0  0
  9 10  2  0  0  0  0
 18 19  1  0  0  0  0
 19 31  1  0  0  0  0
 19 20  2  0  0  0  0
 32 35  1  0  0  0  0
  8 11  1  0  0  0  0
 21 23  1  0  0  0  0
 41 42  1  0  0  0  0
 31 32  1  0  0  0  0
  7  8  1  0  0  0  0
 18 21  1  0  0  0  0
 17 18  1  0  0  0  0
 21 22  1  0  0  0  0
  3  4  1  0  0  0  0
  3  5  1  0  0  0  0
  3  6  1  0  0  0  0
 35 38  1  0  0  0  0
 35 39  1  0  0  0  0
 35 40  1  0  0  0  0
 11 14  1  0  0  0  0
 11 15  1  0  0  0  0
 11 16  1  0  0  0  0
 23 28  1  0  0  0  0
 23 29  1  0  0  0  0
 23 30  1  0  0  0  0
 42 44  1  0  0  0  0
 42 45  1  0  0  0  0
 42 46  1  0  0  0  0
 32 37  1  0  0  0  0
  8 13  1  0  0  0  0
 18 25  1  0  0  0  0
 21 26  1  0  0  0  0
 41 43  1  0  0  0  0
  7 12  1  0  0  0  0
 31 36  1  0  0  0  0
 17 24  1  0  0  0  0
 22 27  1  0  0  0  0
M  END
$$$$

  -OEChem-05262214473D

 46 45  0     1  0  0  0  0  0999 V2000
   -4.6700    2.7214    1.5150 C   0  0  0  0  0  0  0  0  0  0  0  0
   -5.4532    2.5715    0.5845 O   0  0  0  0  0  0  0  0  0  0  0  0
   -5.0996    3.4865    2.7226 C   0  0  0  0  0  0  0  0  0  0  0  0
   -4.8796    4.5629    2.6387 H   0  0  0  0  0  0  0  0  0  0  0  0
   -6.1861    3.4241    2.8954 H   0  0  0  0  0  0  0  0  0  0  0  0
   -4.6369    3.1693    3.6708 H   0  0  0  0  0  0  0  0  0  0  0  0
   -3.3731    2.2391    1.5790 N   0  0  0  0  0  0  0  0  0  0  0  0
   -2.7599    1.4751    0.5247 C   0  0  2  0  0  0  0  0  0  0  0  0
   -1.5143    0.8067    1.0915 C   0  0  0  0  0  0  0  0  0  0  0  0
   -0.9247    1.2213    2.0872 O   0  0  0  0  0  0  0  0  0  0  0  0
   -2.4106    2.3553   -0.6653 C   0  0  0  0  0  0  0  0  0  0  0  0
   -2.8254    2.4352    2.4150 H   0  0  0  0  0  0  0  0  0  0  0  0
   -3.4836    0.7082    0.2278 H   0  0  0  0  0  0  0  0  0  0  0  0
   -1.6866    3.1298   -0.3871 H   0  0  0  0  0  0  0  0  0  0  0  0
   -1.9704    1.7677   -1.4777 H   0  0  0  0  0  0  0  0  0  0  0  0
   -3.3030    2.8584   -1.0531 H   0  0  0  0  0  0  0  0  0  0  0  0
   -1.1107   -0.2839    0.3303 N   0  0  0  0  0  0  0  0  0  0  0  0
    0.0490   -1.0750    0.6539 C   0  0  2  0  0  0  0  0  0  0  0  0
    1.0087   -0.9911   -0.5295 C   0  0  0  0  0  0  0  0  0  0  0  0
    2.1120   -1.5332   -0.5375 O   0  0  0  0  0  0  0  0  0  0  0  0
   -0.3005   -2.5308    0.9954 C   0  0  2  0  0  0  0  0  0  0  0  0
   -0.9272   -3.1730   -0.1139 O   0  0  0  0  0  0  0  0  0  0  0  0
   -1.2451   -2.6327    2.1869 C   0  0  0  0  0  0  0  0  0  0  0  0
   -1.6733   -0.5660   -0.4691 H   0  0  0  0  0  0  0  0  0  0  0  0
    0.5231   -0.5920    1.5170 H   0  0  0  0  0  0  0  0  0  0  0  0
    0.6099   -3.0961    1.2263 H   0  0  0  0  0  0  0  0  0  0  0  0
   -1.0744   -4.0942    0.1493 H   0  0  0  0  0  0  0  0  0  0  0  0
   -2.1753   -2.0827    2.0083 H   0  0  0  0  0  0  0  0  0  0  0  0
   -0.7774   -2.2500    3.0990 H   0  0  0  0  0  0  0  0  0  0  0  0
   -1.5305   -3.6771    2.3552 H   0  0  0  0  0  0  0  0  0  0  0  0
    0.5085   -0.1997   -1.5538 N   0  0  0  0  0  0  0  0  0  0  0  0
    1.2470    0.0591   -2.7674 C   0  0  2  0  0  0  0  0  0  0  0  0
    1.1170   -1.1632   -3.6666 C   0  0  0  0  0  0  0  0  0  0  0  0
    0.8443   -2.2835   -3.2405 O   0  0  0  0  0  0  0  0  0  0  0  0
    2.7073    0.3639   -2.4722 C   0  0  0  0  0  0  0  0  0  0  0  0
   -0.4131    0.2138   -1.4456 H   0  0  0  0  0  0  0  0  0  0  0  0
    0.7714    0.9201   -3.2496 H   0  0  0  0  0  0  0  0  0  0  0  0
    3.2006   -0.4873   -1.9889 H   0  0  0  0  0  0  0  0  0  0  0  0
    3.2595    0.5878   -3.3909 H   0  0  0  0  0  0  0  0  0  0  0  0
    2.7978    1.2251   -1.8014 H   0  0  0  0  0  0  0  0  0  0  0  0
    1.3839   -0.8644   -4.9954 N   0  0  0  0  0  0  0  0  0  0  0  0
    1.3387   -1.8583   -6.0423 C   0  0  0  0  0  0  0  0  0  0  0  0
    1.5831    0.0955   -5.2614 H   0  0  0  0  0  0  0  0  0  0  0  0
    2.3416   -2.2872   -6.1850 H   0  0  0  0  0  0  0  0  0  0  0  0
    0.6356   -2.6559   -5.7605 H   0  0  0  0  0  0  0  0  0  0  0  0
    1.0042   -1.3888   -6.9792 H   0  0  0  0  0  0  0  0  0  0  0  0
  1  3  1  0  0  0  0
  1  7  1  0  0  0  0
  1  2  2  0  0  0  0
 32 33  1  0  0  0  0
 33 41  1  0  0  0  0
 33 34  2  0  0  0  0
  8  9  1  0  0  0  0
  9 17  1  0  0  0  0
  9 10  2  0  0  0  0
 18 19  1  0  0  0  0
 19 31  1  0  0  0  0
 19 20  2  0  0  0  0
 32 35  1  0  0  0  0
  8 11  1  0  0  0  0
 21 23  1  0  0  0  0
 41 42  1  0  0  0  0
 31 32  1  0  0  0  0
  7  8  1  0  0  0  0
 18 21  1  0  0  0  0
 17 18  1  0  0  0  0
 21 22  1  0  0  0  0
  3  4  1  0  0  0  0
  3  5  1  0  0  0  0
  3  6  1  0  0  0  0
 35 38  1  0  0  0  0
 35 39  1  0  0  0  0
 35 40  1  0  0  0  0
 11 14  1  0  0  0  0
 11 15  1  0  0  0  0
 11 16  1  0  0  0  0
 23 28  1  0  0  0  0
 23 29  1  0  0  0  0
 23 30  1  0  0  0  0
 42 44  1  0  0  0  0
 42 45  1  0  0  0  0
 42 46  1  0  0  0  0
 32 37  1  0  0  0  0
  8 13  1  0  0  0  0
 18 25  1  0  0  0  0
 21 26  1  0  0  0  0
 41 43  1  0  0  0  0
  7 12  1  0  0  0  0
 31 36  1  0  0  0  0
 17 24  1  0  0  0  0
 22 27  1  0  0  0  0
M  END
$$$$

  -OEChem-05262214473D

 46 45  0     1  0  0  0  0  0999 V2000
   -4.6700    2.7214    1.5150 C   0  0  0  0  0  0  0  0  0  0  0  0
   -5.4532    2.5715    0.5845 O   0  0  0  0  0  0  0  0  0  0  0  0
   -5.0996    3.4865    2.7226 C   0  0  0  0  0  0  0  0  0  0  0  0
   -4.8796    4.5629    2.6387 H   0  0  0  0  0  0  0  0  0  0  0  0
   -6.1861    3.4241    2.8954 H   0  0  0  0  0  0  0  0  0  0  0  0
   -4.6369    3.1693    3.6708 H   0  0  0  0  0  0  0  0  0  0  0  0
   -3.3731    2.2391    1.5790 N   0  0  0  0  0  0  0  0  0  0  0  0
   -2.7599    1.4751    0.5247 C   0  0  2  0  0  0  0  0  0  0  0  0
   -1.5143    0.8067    1.0915 C   0  0  0  0  0  0  0  0  0  0  0  0
   -0.9247    1.2213    2.0872 O   0  0  0  0  0  0  0  0  0  0  0  0
   -2.4106    2.3553   -0.6653 C   0  0  0  0  0  0  0  0  0  0  0  0
   -2.8254    2.4352    2.4150 H   0  0  0  0  0  0  0  0  0  0  0  0
   -3.4836    0.7082    0.2278 H   0  0  0  0  0  0  0  0  0  0  0  0
   -1.6866    3.1298   -0.3871 H   0  0  0  0  0  0  0  0  0  0  0  0
   -1.9704    1.7677   -1.4777 H   0  0  0  0  0  0  0  0  0  0  0  0
   -3.3030    2.8584   -1.0531 H   0  0  0  0  0  0  0  0  0  0  0  0
   -1.1107   -0.2839    0.3303 N   0  0  0  0  0  0  0  0  0  0  0  0
    0.0490   -1.0750    0.6539 C   0  0  2  0  0  0  0  0  0  0  0  0
    1.0087   -0.9911   -0.5295 C   0  0  0  0  0  0  0  0  0  0  0  0
    1.9799   -1.7336   -0.6589 O   0  0  0  0  0  0  0  0  0  0  0  0
   -0.3005   -2.5308    0.9954 C   0  0  2  0  0  0  0  0  0  0  0  0
   -0.9272   -3.1730   -0.1139 O   0  0  0  0  0  0  0  0  0  0  0  0
   -1.2451   -2.6327    2.1869 C   0  0  0  0  0  0  0  0  0  0  0  0
   -1.6733   -0.5660   -0.4691 H   0  0  0  0  0  0  0  0  0  0  0  0
    0.5231   -0.5920    1.5170 H   0  0  0  0  0  0  0  0  0  0  0  0
    0.6099   -3.0961    1.2263 H   0  0  0  0  0  0  0  0  0  0  0  0
   -1.0744   -4.0942    0.1493 H   0  0  0  0  0  0  0  0  0  0  0  0
   -2.1753   -2.0827    2.0083 H   0  0  0  0  0  0  0  0  0  0  0  0
   -0.7774   -2.2500    3.0990 H   0  0  0  0  0  0  0  0  0  0  0  0
   -1.5305   -3.6771    2.3552 H   0  0  0  0  0  0  0  0  0  0  0  0
    0.6810    0.0415   -1.3967 N   0  0  0  0  0  0  0  0  0  0  0  0
    1.4594    0.3434   -2.5750 C   0  0  2  0  0  0  0  0  0  0  0  0
    1.0875   -0.6638   -3.6551 C   0  0  0  0  0  0  0  0  0  0  0  0
    0.5932   -1.7616   -3.4071 O   0  0  0  0  0  0  0  0  0  0  0  0
    2.9506    0.2979   -2.2796 C   0  0  0  0  0  0  0  0  0  0  0  0
   -0.1383    0.6070   -1.1949 H   0  0  0  0  0  0  0  0  0  0  0  0
    1.1686    1.3492   -2.8970 H   0  0  0  0  0  0  0  0  0  0  0  0
    3.2606   -0.7022   -1.9555 H   0  0  0  0  0  0  0  0  0  0  0  0
    3.5387    0.5550   -3.1668 H   0  0  0  0  0  0  0  0  0  0  0  0
    3.2114    1.0017   -1.4818 H   0  0  0  0  0  0  0  0  0  0  0  0
    1.4124   -0.2101   -4.9259 N   0  0  0  0  0  0  0  0  0  0  0  0
    1.1700   -0.9893   -6.1176 C   0  0  0  0  0  0  0  0  0  0  0  0
    1.8019    0.7211   -5.0396 H   0  0  0  0  0  0  0  0  0  0  0  0
    2.0659   -1.5804   -6.3584 H   0  0  0  0  0  0  0  0  0  0  0  0
    0.3197   -1.6658   -5.9465 H   0  0  0  0  0  0  0  0  0  0  0  0
    0.9394   -0.3152   -6.9557 H   0  0  0  0  0  0  0  0  0  0  0  0
  1  3  1  0  0  0  0
  1  7  1  0  0  0  0
  1  2  2  0  0  0  0
 32 33  1  0  0  0  0
 33 41  1  0  0  0  0
 33 34  2  0  0  0  0
  8  9  1  0  0  0  0
  9 17  1  0  0  0  0
  9 10  2  0  0  0  0
 18 19  1  0  0  0  0
 19 31  1  0  0  0  0
 19 20  2  0  0  0  0
 32 35  1  0  0  0  0
  8 11  1  0  0  0  0
 21 23  1  0  0  0  0
 41 42  1  0  0  0  0
 31 32  1  0  0  0  0
  7  8  1  0  0  0  0
 18 21  1  0  0  0  0
 17 18  1  0  0  0  0
 21 22  1  0  0  0  0
  3  4  1  0  0  0  0
  3  5  1  0  0  0  0
  3  6  1  0  0  0  0
 35 38  1  0  0  0  0
 35 39  1  0  0  0  0
 35 40  1  0  0  0  0
 11 14  1  0  0  0  0
 11 15  1  0  0  0  0
 11 16  1  0  0  0  0
 23 28  1  0  0  0  0
 23 29  1  0  0  0  0
 23 30  1  0  0  0  0
 42 44  1  0  0  0  0
 42 45  1  0  0  0  0
 42 46  1  0  0  0  0
 32 37  1  0  0  0  0
  8 13  1  0  0  0  0
 18 25  1  0  0  0  0
 21 26  1  0  0  0  0
 41 43  1  0  0  0  0
  7 12  1  0  0  0  0
 31 36  1  0  0  0  0
 17 24  1  0  0  0  0
 22 27  1  0  0  0  0
M  END
$$$$

  -OEChem-05262214473D

 46 45  0     1  0  0  0  0  0999 V2000
   -4.6700    2.7214    1.5150 C   0  0  0  0  0  0  0  0  0  0  0  0
   -5.4532    2.5715    0.5845 O   0  0  0  0  0  0  0  0  0  0  0  0
   -5.0996    3.4865    2.7226 C   0  0  0  0  0  0  0  0  0  0  0  0
   -4.8796    4.5629    2.6387 H   0  0  0  0  0  0  0  0  0  0  0  0
   -6.1861    3.4241    2.8954 H   0  0  0  0  0  0  0  0  0  0  0  0
   -4.6369    3.1693    3.6708 H   0  0  0  0  0  0  0  0  0  0  0  0
   -3.3731    2.2391    1.5790 N   0  0  0  0  0  0  0  0  0  0  0  0
   -2.7599    1.4751    0.5247 C   0  0  2  0  0  0  0  0  0  0  0  0
   -1.5143    0.8067    1.0915 C   0  0  0  0  0  0  0  0  0  0  0  0
   -0.9247    1.2213    2.0872 O   0  0  0  0  0  0  0  0  0  0  0  0
   -2.4106    2.3553   -0.6653 C   0  0  0  0  0  0  0  0  0  0  0  0
   -2.8254    2.4352    2.4150 H   0  0  0  0  0  0  0  0  0  0  0  0
   -3.4836    0.7082    0.2278 H   0  0  0  0  0  0  0  0  0  0  0  0
   -1.6866    3.1298   -0.3871 H   0  0  0  0  0  0  0  0  0  0  0  0
   -1.9704    1.7677   -1.4777 H   0  0  0  0  0  0  0  0  0  0  0  0
   -3.3030    2.8584   -1.0531 H   0  0  0  0  0  0  0  0  0  0  0  0
   -1.1107   -0.2839    0.3303 N   0  0  0  0  0  0  0  0  0  0  0  0
    0.0490   -1.0750    0.6539 C   0  0  2  0  0  0  0  0  0  0  0  0
    1.0087   -0.9911   -0.5295 C   0  0  0  0  0  0  0  0  0  0  0  0
    1.8102   -1.8810   -0.8069 O   0  0  0  0  0  0  0  0  0  0  0  0
   -0.3005   -2.5308    0.9954 C   0  0  2  0  0  0  0  0  0  0  0  0
   -0.9272   -3.1730   -0.1139 O   0  0  0  0  0  0  0  0  0  0  0  0
   -1.2451   -2.6327    2.1869 C   0  0  0  0  0  0  0  0  0  0  0  0
   -1.6733   -0.5660   -0.4691 H   0  0  0  0  0  0  0  0  0  0  0  0
    0.5231   -0.5920    1.5170 H   0  0  0  0  0  0  0  0  0  0  0  0
    0.6099   -3.0961    1.2263 H   0  0  0  0  0  0  0  0  0  0  0  0
   -1.0744   -4.0942    0.1493 H   0  0  0  0  0  0  0  0  0  0  0  0
   -2.1753   -2.0827    2.0083 H   0  0  0  0  0  0  0  0  0  0  0  0
   -0.7774   -2.2500    3.0990 H   0  0  0  0  0  0  0  0  0  0  0  0
   -1.5305   -3.6771    2.3552 H   0  0  0  0  0  0  0  0  0  0  0  0
    0.8983    0.2142   -1.2083 N   0  0  0  0  0  0  0  0  0  0  0  0
    1.7245    0.5440   -2.3458 C   0  0  2  0  0  0  0  0  0  0  0  0
    1.1594   -0.1774   -3.5623 C   0  0  0  0  0  0  0  0  0  0  0  0
    0.4530   -1.1800   -3.4795 O   0  0  0  0  0  0  0  0  0  0  0  0
    3.1750    0.1541   -2.1078 C   0  0  0  0  0  0  0  0  0  0  0  0
    0.2096    0.8909   -0.8927 H   0  0  0  0  0  0  0  0  0  0  0  0
    1.6435    1.6266   -2.4923 H   0  0  0  0  0  0  0  0  0  0  0  0
    3.2760   -0.9272   -1.9590 H   0  0  0  0  0  0  0  0  0  0  0  0
    3.8051    0.4307   -2.9596 H   0  0  0  0  0  0  0  0  0  0  0  0
    3.5707    0.6508   -1.2154 H   0  0  0  0  0  0  0  0  0  0  0  0
    1.5723    0.4048   -4.7527 N   0  0  0  0  0  0  0  0  0  0  0  0
    1.1804   -0.1039   -6.0464 C   0  0  0  0  0  0  0  0  0  0  0  0
    2.1420    1.2453   -4.7266 H   0  0  0  0  0  0  0  0  0  0  0  0
    1.9391   -0.8141   -6.4069 H   0  0  0  0  0  0  0  0  0  0  0  0
    0.2106   -0.6158   -5.9605 H   0  0  0  0  0  0  0  0  0  0  0  0
    1.0926    0.7310   -6.7572 H   0  0  0  0  0  0  0  0  0  0  0  0
  1  3  1  0  0  0  0
  1  7  1  0  0  0  0
  1  2  2  0  0  0  0
 32 33  1  0  0  0  0
 33 41  1  0  0  0  0
 33 34  2  0  0  0  0
  8  9  1  0  0  0  0
  9 17  1  0  0  0  0
  9 10  2  0  0  0  0
 18 19  1  0  0  0  0
 19 31  1  0  0  0  0
 19 20  2  0  0  0  0
 32 35  1  0  0  0  0
  8 11  1  0  0  0  0
 21 23  1  0  0  0  0
 41 42  1  0  0  0  0
 31 32  1  0  0  0  0
  7  8  1  0  0  0  0
 18 21  1  0  0  0  0
 17 18  1  0  0  0  0
 21 22  1  0  0  0  0
  3  4  1  0  0  0  0
  3  5  1  0  0  0  0
  3  6  1  0  0  0  0
 35 38  1  0  0  0  0
 35 39  1  0  0  0  0
 35 40  1  0  0  0  0
 11 14  1  0  0  0  0
 11 15  1  0  0  0  0
 11 16  1  0  0  0  0
 23 28  1  0  0  0  0
 23 29  1  0  0  0  0
 23 30  1  0  0  0  0
 42 44  1  0  0  0  0
 42 45  1  0  0  0  0
 42 46  1  0  0  0  0
 32 37  1  0  0  0  0
  8 13  1  0  0  0  0
 18 25  1  0  0  0  0
 21 26  1  0  0  0  0
 41 43  1  0  0  0  0
  7 12  1  0  0  0  0
 31 36  1  0  0  0  0
 17 24  1  0  0  0  0
 22 27  1  0  0  0  0
M  END
$$$$

  -OEChem-05262214473D

 46 45  0     1  0  0  0  0  0999 V2000
   -4.6700    2.7214    1.5150 C   0  0  0  0  0  0  0  0  0  0  0  0
   -5.4532    2.5715    0.5845 O   0  0  0  0  0  0  0  0  0  0  0  0
   -5.0996    3.4865    2.7226 C   0  0  0  0  0  0  0  0  0  0  0  0
   -4.8796    4.5629    2.6387 H   0  0  0  0  0  0  0  0  0  0  0  0
   -6.1861    3.4241    2.8954 H   0  0  0  0  0  0  0  0  0  0  0  0
   -4.6369    3.1693    3.6708 H   0  0  0  0  0  0  0  0  0  0  0  0
   -3.3731    2.2391    1.5790 N   0  0  0  0  0  0  0  0  0  0  0  0
   -2.7599    1.4751    0.5247 C   0  0  2  0  0  0  0  0  0  0  0  0
   -1.5143    0.8067    1.0915 C   0  0  0  0  0  0  0  0  0  0  0  0
   -0.9247    1.2213    2.0872 O   0  0  0  0  0  0  0  0  0  0  0  0
   -2.4106    2.3553   -0.6653 C   0  0  0  0  0  0  0  0  0  0  0  0
   -2.8254    2.4352    2.4150 H   0  0  0  0  0  0  0  0  0  0  0  0
   -3.4836    0.7082    0.2278 H   0  0  0  0  0  0  0  0  0  0  0  0
   -1.6866    3.1298   -0.3871 H   0  0  0  0  0  0  0  0  0  0  0  0
   -1.9704    1.7677   -1.4777 H   0  0  0  0  0  0  0  0  0  0  0  0
   -3.3030    2.8584   -1.0531 H   0  0  0  0  0  0  0  0  0  0  0  0
   -1.1107   -0.2839    0.3303 N   0  0  0  0  0  0  0  0  0  0  0  0
    0.0490   -1.0750    0.6539 C   0  0  2  0  0  0  0  0  0  0  0  0
    1.0087   -0.9911   -0.5295 C   0  0  0  0  0  0  0  0  0  0  0  0
    1.6147   -1.9651   -0.9714 O   0  0  0  0  0  0  0  0  0  0  0  0
   -0.3005   -2.5308    0.9954 C   0  0  2  0  0  0  0  0  0  0  0  0
   -0.9272   -3.1730   -0.1139 O   0  0  0  0  0  0  0  0  0  0  0  0
   -1.2451   -2.6327    2.1869 C   0  0  0  0  0  0  0  0  0  0  0  0
   -1.6733   -0.5660   -0.4691 H   0  0  0  0  0  0  0  0  0  0  0  0
    0.5231   -0.5920    1.5170 H   0  0  0  0  0  0  0  0  0  0  0  0
    0.6099   -3.0961    1.2263 H   0  0  0  0  0  0  0  0  0  0  0  0
   -1.0744   -4.0942    0.1493 H   0  0  0  0  0  0  0  0  0  0  0  0
   -2.1753   -2.0827    2.0083 H   0  0  0  0  0  0  0  0  0  0  0  0
   -0.7774   -2.2500    3.0990 H   0  0  0  0  0  0  0  0  0  0  0  0
   -1.5305   -3.6771    2.3552 H   0  0  0  0  0  0  0  0  0  0  0  0
    1.1456    0.3068   -1.0012 N   0  0  0  0  0  0  0  0  0  0  0  0
    2.0240    0.6473   -2.0956 C   0  0  2  0  0  0  0  0  0  0  0  0
    1.3279    0.2630   -3.3945 C   0  0  0  0  0  0  0  0  0  0  0  0
    0.4334   -0.5782   -3.4528 O   0  0  0  0  0  0  0  0  0  0  0  0
    3.3654   -0.0579   -1.9685 C   0  0  0  0  0  0  0  0  0  0  0  0
    0.6069    1.0460   -0.5595 H   0  0  0  0  0  0  0  0  0  0  0  0
    2.1636    1.7333   -2.0629 H   0  0  0  0  0  0  0  0  0  0  0  0
    3.2456   -1.1470   -1.9992 H   0  0  0  0  0  0  0  0  0  0  0  0
    4.0404    0.2235   -2.7835 H   0  0  0  0  0  0  0  0  0  0  0  0
    3.8511    0.1964   -1.0202 H   0  0  0  0  0  0  0  0  0  0  0  0
    1.8526    0.9384   -4.4875 N   0  0  0  0  0  0  0  0  0  0  0  0
    1.3691    0.7377   -5.8336 C   0  0  0  0  0  0  0  0  0  0  0  0
    2.5802    1.6324   -4.3438 H   0  0  0  0  0  0  0  0  0  0  0  0
    1.9697   -0.0405   -6.3272 H   0  0  0  0  0  0  0  0  0  0  0  0
    0.3157    0.4226   -5.8016 H   0  0  0  0  0  0  0  0  0  0  0  0
    1.4534    1.6785   -6.3974 H   0  0  0  0  0  0  0  0  0  0  0  0
  1  3  1  0  0  0  0
  1  7  1  0  0  0  0
  1  2  2  0  0  0  0
 32 33  1  0  0  0  0
 33 41  1  0  0  0  0
 33 34  2  0  0  0  0
  8  9  1  0  0  0  0
  9 17  1  0  0  0  0
  9 10  2  0  0  0  0
 18 19  1  0  0  0  0
 19 31  1  0  0  0  0
 19 20  2  0  0  0  0
 32 35  1  0  0  0  0
  8 11  1  0  0  0  0
 21 23  1  0  0  0  0
 41 42  1  0  0  0  0
 31 32  1  0  0  0  0
  7  8  1  0  0  0  0
 18 21  1  0  0  0  0
 17 18  1  0  0  0  0
 21 22  1  0  0  0  0
  3  4  1  0  0  0  0
  3  5  1  0  0  0  0
  3  6  1  0  0  0  0
 35 38  1  0  0  0  0
 35 39  1  0  0  0  0
 35 40  1  0  0  0  0
 11 14  1  0  0  0  0
 11 15  1  0  0  0  0
 11 16  1  0  0  0  0
 23 28  1  0  0  0  0
 23 29  1  0  0  0  0
 23 30  1  0  0  0  0
 42 44  1  0  0  0  0
 42 45  1  0  0  0  0
 42 46  1  0  0  0  0
 32 37  1  0  0  0  0
  8 13  1  0  0  0  0
 18 25  1  0  0  0  0
 21 26  1  0  0  0  0
 41 43  1  0  0  0  0
  7 12  1  0  0  0  0
 31 36  1  0  0  0  0
 17 24  1  0  0  0  0
 22 27  1  0  0  0  0
M  END
$$$$

  -OEChem-05262214473D

 46 45  0     1  0  0  0  0  0999 V2000
   -4.6700    2.7214    1.5150 C   0  0  0  0  0  0  0  0  0  0  0  0
   -5.4532    2.5715    0.5845 O   0  0  0  0  0  0  0  0  0  0  0  0
   -5.0996    3.4865    2.7226 C   0  0  0  0  0  0  0  0  0  0  0  0
   -4.8796    4.5629    2.6387 H   0  0  0  0  0  0  0  0  0  0  0  0
   -6.1861    3.4241    2.8954 H   0  0  0  0  0  0  0  0  0  0  0  0
   -4.6369    3.1693    3.6708 H   0  0  0  0  0  0  0  0  0  0  0  0
   -3.3731    2.2391    1.5790 N   0  0  0  0  0  0  0  0  0  0  0  0
   -2.7599    1.4751    0.5247 C   0  0  2  0  0  0  0  0  0  0  0  0
   -1.5143    0.8067    1.0915 C   0  0  0  0  0  0  0  0  0  0  0  0
   -0.9247    1.2213    2.0872 O   0  0  0  0  0  0  0  0  0  0  0  0
   -2.4106    2.3553   -0.6653 C   0  0  0  0  0  0  0  0  0  0  0  0
   -2.8254    2.4352    2.4150 H   0  0  0  0  0  0  0  0  0  0  0  0
   -3.4836    0.7082    0.2278 H   0  0  0  0  0  0  0  0  0  0  0  0
   -1.6866    3.1298   -0.3871 H   0  0  0  0  0  0  0  0  0  0  0  0
   -1.9704    1.7677   -1.4777 H   0  0  0  0  0  0  0  0  0  0  0  0
   -3.3030    2.8584   -1.0531 H   0  0  0  0  0  0  0  0  0  0  0  0
   -1.1107   -0.2839    0.3303 N   0  0  0  0  0  0  0  0  0  0  0  0
    0.0490   -1.0750    0.6539 C   0  0  2  0  0  0  0  0  0  0  0  0
    1.0087   -0.9911   -0.5295 C   0  0  0  0  0  0  0  0  0  0  0  0
    1.4066   -1.9804   -1.1412 O   0  0  0  0  0  0  0  0  0  0  0  0
   -0.3005   -2.5308    0.9954 C   0  0  2  0  0  0  0  0  0  0  0  0
   -0.9272   -3.1730   -0.1139 O   0  0  0  0  0  0  0  0  0  0  0  0
   -1.2451   -2.6327    2.1869 C   0  0  0  0  0  0  0  0  0  0  0  0
   -1.6733   -0.5660   -0.4691 H   0  0  0  0  0  0  0  0  0  0  0  0
    0.5231   -0.5920    1.5170 H   0  0  0  0  0  0  0  0  0  0  0  0
    0.6099   -3.0961    1.2263 H   0  0  0  0  0  0  0  0  0  0  0  0
   -1.0744   -4.0942    0.1493 H   0  0  0  0  0  0  0  0  0  0  0  0
   -2.1753   -2.0827    2.0083 H   0  0  0  0  0  0  0  0  0  0  0  0
   -0.7774   -2.2500    3.0990 H   0  0  0  0  0  0  0  0  0  0  0  0
   -1.5305   -3.6771    2.3552 H   0  0  0  0  0  0  0  0  0  0  0  0
    1.4059    0.3128   -0.7897 N   0  0  0  0  0  0  0  0  0  0  0  0
    2.3376    0.6462   -1.8414 C   0  0  2  0  0  0  0  0  0  0  0  0
    1.5813    0.6272   -3.1632 C   0  0  0  0  0  0  0  0  0  0  0  0
    0.5356    0.0026   -3.3287 O   0  0  0  0  0  0  0  0  0  0  0  0
    3.5087   -0.3236   -1.8711 C   0  0  0  0  0  0  0  0  0  0  0  0
    1.0265    1.0619   -0.2181 H   0  0  0  0  0  0  0  0  0  0  0  0
    2.6936    1.6621   -1.6382 H   0  0  0  0  0  0  0  0  0  0  0  0
    3.1715   -1.3467   -2.0734 H   0  0  0  0  0  0  0  0  0  0  0  0
    4.2285   -0.0526   -2.6505 H   0  0  0  0  0  0  0  0  0  0  0  0
    4.0335   -0.3305   -0.9097 H   0  0  0  0  0  0  0  0  0  0  0  0
    2.2342    1.3545   -4.1485 N   0  0  0  0  0  0  0  0  0  0  0  0
    1.7234    1.4781   -5.4938 C   0  0  0  0  0  0  0  0  0  0  0  0
    3.0867    1.8561   -3.9173 H   0  0  0  0  0  0  0  0  0  0  0  0
    2.1556    0.6875   -6.1248 H   0  0  0  0  0  0  0  0  0  0  0  0
    0.6280    1.3786   -5.4805 H   0  0  0  0  0  0  0  0  0  0  0  0
    1.9973    2.4627   -5.9008 H   0  0  0  0  0  0  0  0  0  0  0  0
  1  3  1  0  0  0  0
  1  7  1  0  0  0  0
  1  2  2  0  0  0  0
 32 33  1  0  0  0  0
 33 41  1  0  0  0  0
 33 34  2  0  0  0  0
  8  9  1  0  0  0  0
  9 17  1  0  0  0  0
  9 10  2  0  0  0  0
 18 19  1  0  0  0  0
 19 31  1  0  0  0  0
 19 20  2  0  0  0  0
 32 35  1  0  0  0  0
  8 11  1  0  0  0  0
 21 23  1  0  0  0  0
 41 42  1  0  0  0  0
 31 32  1  0  0  0  0
  7  8  1  0  0  0  0
 18 21  1  0  0  0  0
 17 18  1  0  0  0  0
 21 22  1  0  0  0  0
  3  4  1  0  0  0  0
  3  5  1  0  0  0  0
  3  6  1  0  0  0  0
 35 38  1  0  0  0  0
 35 39  1  0  0  0  0
 35 40  1  0  0  0  0
 11 14  1  0  0  0  0
 11 15  1  0  0  0  0
 11 16  1  0  0  0  0
 23 28  1  0  0  0  0
 23 29  1  0  0  0  0
 23 30  1  0  0  0  0
 42 44  1  0  0  0  0
 42 45  1  0  0  0  0
 42 46  1  0  0  0  0
 32 37  1  0  0  0  0
  8 13  1  0  0  0  0
 18 25  1  0  0  0  0
 21 26  1  0  0  0  0
 41 43  1  0  0  0  0
  7 12  1  0  0  0  0
 31 36  1  0  0  0  0
 17 24  1  0  0  0  0
 22 27  1  0  0  0  0
M  END
$$$$

  -OEChem-05262214473D

 46 45  0     1  0  0  0  0  0999 V2000
   -4.6700    2.7214    1.5150 C   0  0  0  0  0  0  0  0  0  0  0  0
   -5.4532    2.5715    0.5845 O   0  0  0  0  0  0  0  0  0  0  0  0
   -5.0996    3.4865    2.7226 C   0  0  0  0  0  0  0  0  0  0  0  0
   -4.8796    4.5629    2.6387 H   0  0  0  0  0  0  0  0  0  0  0  0
   -6.1861    3.4241    2.8954 H   0  0  0  0  0  0  0  0  0  0  0  0
   -4.6369    3.1693    3.6708 H   0  0  0  0  0  0  0  0  0  0  0  0
   -3.3731    2.2391    1.5790 N   0  0  0  0  0  0  0  0  0  0  0  0
   -2.7599    1.4751    0.5247 C   0  0  2  0  0  0  0  0  0  0  0  0
   -1.5143    0.8067    1.0915 C   0  0  0  0  0  0  0  0  0  0  0  0
   -0.9247    1.2213    2.0872 O   0  0  0  0  0  0  0  0  0  0  0  0
   -2.4106    2.3553   -0.6653 C   0  0  0  0  0  0  0  0  0  0  0  0
   -2.8254    2.4352    2.4150 H   0  0  0  0  0  0  0  0  0  0  0  0
   -3.4836    0.7082    0.2278 H   0  0  0  0  0  0  0  0  0  0  0  0
   -1.6866    3.1298   -0.3871 H   0  0  0  0  0  0  0  0  0  0  0  0
   -1.9704    1.7677   -1.4777 H   0  0  0  0  0  0  0  0  0  0  0  0
   -3.3030    2.8584   -1.0531 H   0  0  0  0  0  0  0  0  0  0  0  0
   -1.1107   -0.2839    0.3303 N   0  0  0  0  0  0  0  0  0  0  0  0
    0.0490   -1.0750    0.6539 C   0  0  2  0  0  0  0  0  0  0  0  0
    1.0087   -0.9911   -0.5295 C   0  0  0  0  0  0  0  0  0  0  0  0
    1.2002   -1.9258   -1.3048 O   0  0  0  0  0  0  0  0  0  0  0  0
   -0.3005   -2.5308    0.9954 C   0  0  2  0  0  0  0  0  0  0  0  0
   -0.9272   -3.1730   -0.1139 O   0  0  0  0  0  0  0  0  0  0  0  0
   -1.2451   -2.6327    2.1869 C   0  0  0  0  0  0  0  0  0  0  0  0
   -1.6733   -0.5660   -0.4691 H   0  0  0  0  0  0  0  0  0  0  0  0
    0.5231   -0.5920    1.5170 H   0  0  0  0  0  0  0  0  0  0  0  0
    0.6099   -3.0961    1.2263 H   0  0  0  0  0  0  0  0  0  0  0  0
   -1.0744   -4.0942    0.1493 H   0  0  0  0  0  0  0  0  0  0  0  0
   -2.1753   -2.0827    2.0083 H   0  0  0  0  0  0  0  0  0  0  0  0
   -0.7774   -2.2500    3.0990 H   0  0  0  0  0  0  0  0  0  0  0  0
   -1.5305   -3.6771    2.3552 H   0  0  0  0  0  0  0  0  0  0  0  0
    1.6616    0.2320   -0.5880 N   0  0  0  0  0  0  0  0  0  0  0  0
    2.6440    0.5409   -1.6004 C   0  0  2  0  0  0  0  0  0  0  0  0
    1.9026    0.8904   -2.8840 C   0  0  0  0  0  0  0  0  0  0  0  0
    0.7526    0.5230   -3.1158 O   0  0  0  0  0  0  0  0  0  0  0  0
    3.5951   -0.6248   -1.8224 C   0  0  0  0  0  0  0  0  0  0  0  0
    1.4399    0.9375    0.1084 H   0  0  0  0  0  0  0  0  0  0  0  0
    3.1972    1.4179   -1.2471 H   0  0  0  0  0  0  0  0  0  0  0  0
    3.0589   -1.5127   -2.1765 H   0  0  0  0  0  0  0  0  0  0  0  0
    4.3567   -0.3787   -2.5696 H   0  0  0  0  0  0  0  0  0  0  0  0
    4.1054   -0.8941   -0.8913 H   0  0  0  0  0  0  0  0  0  0  0  0
    2.6912    1.6246   -3.7588 N   0  0  0  0  0  0  0  0  0  0  0  0
    2.2191    2.0669   -5.0501 C   0  0  0  0  0  0  0  0  0  0  0  0
    3.6268    1.9011   -3.4761 H   0  0  0  0  0  0  0  0  0  0  0  0
    2.4843    1.3205   -5.8134 H   0  0  0  0  0  0  0  0  0  0  0  0
    1.1261    2.1872   -5.0193 H   0  0  0  0  0  0  0  0  0  0  0  0
    2.6871    3.0302   -5.3012 H   0  0  0  0  0  0  0  0  0  0  0  0
  1  3  1  0  0  0  0
  1  7  1  0  0  0  0
  1  2  2  0  0  0  0
 32 33  1  0  0  0  0
 33 41  1  0  0  0  0
 33 34  2  0  0  0  0
  8  9  1  0  0  0  0
  9 17  1  0  0  0  0
  9 10  2  0  0  0  0
 18 19  1  0  0  0  0
 19 31  1  0  0  0  0
 19 20  2  0  0  0  0
 32 35  1  0  0  0  0
  8 11  1  0  0  0  0
 21 23  1  0  0  0  0
 41 42  1  0  0  0  0
 31 32  1  0  0  0  0
  7  8  1  0  0  0  0
 18 21  1  0  0  0  0
 17 18  1  0  0  0  0
 21 22  1  0  0  0  0
  3  4  1  0  0  0  0
  3  5  1  0  0  0  0
  3  6  1  0  0  0  0
 35 38  1  0  0  0  0
 35 39  1  0  0  0  0
 35 40  1  0  0  0  0
 11 14  1  0  0  0  0
 11 15  1  0  0  0  0
 11 16  1  0  0  0  0
 23 28  1  0  0  0  0
 23 29  1  0  0  0  0
 23 30  1  0  0  0  0
 42 44  1  0  0  0  0
 42 45  1  0  0  0  0
 42 46  1  0  0  0  0
 32 37  1  0  0  0  0
  8 13  1  0  0  0  0
 18 25  1  0  0  0  0
 21 26  1  0  0  0  0
 41 43  1  0  0  0  0
  7 12  1  0  0  0  0
 31 36  1  0  0  0  0
 17 24  1  0  0  0  0
 22 27  1  0  0  0  0
M  END
$$$$

  -OEChem-05262214473D

 46 45  0     1  0  0  0  0  0999 V2000
   -4.6700    2.7214    1.5150 C   0  0  0  0  0  0  0  0  0  0  0  0
   -5.4532    2.5715    0.5845 O   0  0  0  0  0  0  0  0  0  0  0  0
   -5.0996    3.4865    2.7226 C   0  0  0  0  0  0  0  0  0  0  0  0
   -4.8796    4.5629    2.6387 H   0  0  0  0  0  0  0  0  0  0  0  0
   -6.1861    3.4241    2.8954 H   0  0  0  0  0  0  0  0  0  0  0  0
   -4.6369    3.1693    3.6708 H   0  0  0  0  0  0  0  0  0  0  0  0
   -3.3731    2.2391    1.5790 N   0  0  0  0  0  0  0  0  0  0  0  0
   -2.7599    1.4751    0.5247 C   0  0  2  0  0  0  0  0  0  0  0  0
   -1.5143    0.8067    1.0915 C   0  0  0  0  0  0  0  0  0  0  0  0
   -0.9247    1.2213    2.0872 O   0  0  0  0  0  0  0  0  0  0  0  0
   -2.4106    2.3553   -0.6653 C   0  0  0  0  0  0  0  0  0  0  0  0
   -2.8254    2.4352    2.4150 H   0  0  0  0  0  0  0  0  0  0  0  0
   -3.4836    0.7082    0.2278 H   0  0  0  0  0  0  0  0  0  0  0  0
   -1.6866    3.1298   -0.3871 H   0  0  0  0  0  0  0  0  0  0  0  0
   -1.9704    1.7677   -1.4777 H   0  0  0  0  0  0  0  0  0  0  0  0
   -3.3030    2.8584   -1.0531 H   0  0  0  0  0  0  0  0  0  0  0  0
   -1.1107   -0.2839    0.3303 N   0  0  0  0  0  0  0  0  0  0  0  0
    0.0490   -1.0750    0.6539 C   0  0  2  0  0  0  0  0  0  0  0  0
    1.0087   -0.9911   -0.5295 C   0  0  0  0  0  0  0  0  0  0  0  0
    1.0094   -1.8049   -1.4509 O   0  0  0  0  0  0  0  0  0  0  0  0
   -0.3005   -2.5308    0.9954 C   0  0  2  0  0  0  0  0  0  0  0  0
   -0.9272   -3.1730   -0.1139 O   0  0  0  0  0  0  0  0  0  0  0  0
   -1.2451   -2.6327    2.1869 C   0  0  0  0  0  0  0  0  0  0  0  0
   -1.6733   -0.5660   -0.4691 H   0  0  0  0  0  0  0  0  0  0  0  0
    0.5231   -0.5920    1.5170 H   0  0  0  0  0  0  0  0  0  0  0  0
    0.6099   -3.0961    1.2263 H   0  0  0  0  0  0  0  0  0  0  0  0
   -1.0744   -4.0942    0.1493 H   0  0  0  0  0  0  0  0  0  0  0  0
   -2.1753   -2.0827    2.0083 H   0  0  0  0  0  0  0  0  0  0  0  0
   -0.7774   -2.2500    3.0990 H   0  0  0  0  0  0  0  0  0  0  0  0
   -1.5305   -3.6771    2.3552 H   0  0  0  0  0  0  0  0  0  0  0  0
    1.8952    0.0698   -0.4101 N   0  0  0  0  0  0  0  0  0  0  0  0
    2.9221    0.3384   -1.3892 C   0  0  2  0  0  0  0  0  0  0  0  0
    2.2697    1.0348   -2.5761 C   0  0  0  0  0  0  0  0  0  0  0  0
    1.0698    0.9473   -2.8285 O   0  0  0  0  0  0  0  0  0  0  0  0
    3.6189   -0.9410   -1.8255 C   0  0  0  0  0  0  0  0  0  0  0  0
    1.8189    0.6812    0.3975 H   0  0  0  0  0  0  0  0  0  0  0  0
    3.6402    1.0172   -0.9163 H   0  0  0  0  0  0  0  0  0  0  0  0
    2.9153   -1.6336   -2.3016 H   0  0  0  0  0  0  0  0  0  0  0  0
    4.4163   -0.7325   -2.5464 H   0  0  0  0  0  0  0  0  0  0  0  0
    4.0621   -1.4559   -0.9663 H   0  0  0  0  0  0  0  0  0  0  0  0
    3.1923    1.7303   -3.3449 N   0  0  0  0  0  0  0  0  0  0  0  0
    2.8224    2.4639   -4.5328 C   0  0  0  0  0  0  0  0  0  0  0  0
    4.1638    1.7643   -3.0503 H   0  0  0  0  0  0  0  0  0  0  0  0
    2.9332    1.8153   -5.4143 H   0  0  0  0  0  0  0  0  0  0  0  0
    1.7761    2.7931   -4.4492 H   0  0  0  0  0  0  0  0  0  0  0  0
    3.4758    3.3423   -4.6395 H   0  0  0  0  0  0  0  0  0  0  0  0
  1  3  1  0  0  0  0
  1  7  1  0  0  0  0
  1  2  2  0  0  0  0
 32 33  1  0  0  0  0
 33 41  1  0  0  0  0
 33 34  2  0  0  0  0
  8  9  1  0  0  0  0
  9 17  1  0  0  0  0
  9 10  2  0  0  0  0
 18 19  1  0  0  0  0
 19 31  1  0  0  0  0
 19 20  2  0  0  0  0
 32 35  1  0  0  0  0
  8 11  1  0  0  0  0
 21 23  1  0  0  0  0
 41 42  1  0  0  0  0
 31 32  1  0  0  0  0
  7  8  1  0  0  0  0
 18 21  1  0  0  0  0
 17 18  1  0  0  0  0
 21 22  1  0  0  0  0
  3  4  1  0  0  0  0
  3  5  1  0  0  0  0
  3  6  1  0  0  0  0
 35 38  1  0  0  0  0
 35 39  1  0  0  0  0
 35 40  1  0  0  0  0
 11 14  1  0  0  0  0
 11 15  1  0  0  0  0
 11 16  1  0  0  0  0
 23 28  1  0  0  0  0
 23 29  1  0  0  0  0
 23 30  1  0  0  0  0
 42 44  1  0  0  0  0
 42 45  1  0  0  0  0
 42 46  1  0  0  0  0
 32 37  1  0  0  0  0
  8 13  1  0  0  0  0
 18 25  1  0  0  0  0
 21 26  1  0  0  0  0
 41 43  1  0  0  0  0
  7 12  1  0  0  0  0
 31 36  1  0  0  0  0
 17 24  1  0  0  0  0
 22 27  1  0  0  0  0
M  END
$$$$

  -OEChem-05262214473D

 46 45  0     1  0  0  0  0  0999 V2000
   -4.6700    2.7214    1.5150 C   0  0  0  0  0  0  0  0  0  0  0  0
   -5.4532    2.5715    0.5845 O   0  0  0  0  0  0  0  0  0  0  0  0
   -5.0996    3.4865    2.7226 C   0  0  0  0  0  0  0  0  0  0  0  0
   -4.8796    4.5629    2.6387 H   0  0  0  0  0  0  0  0  0  0  0  0
   -6.1861    3.4241    2.8954 H   0  0  0  0  0  0  0  0  0  0  0  0
   -4.6369    3.1693    3.6708 H   0  0  0  0  0  0  0  0  0  0  0  0
   -3.3731    2.2391    1.5790 N   0  0  0  0  0  0  0  0  0  0  0  0
   -2.7599    1.4751    0.5247 C   0  0  2  0  0  0  0  0  0  0  0  0
   -1.5143    0.8067    1.0915 C   0  0  0  0  0  0  0  0  0  0  0  0
   -0.9247    1.2213    2.0872 O   0  0  0  0  0  0  0  0  0  0  0  0
   -2.4106    2.3553   -0.6653 C   0  0  0  0  0  0  0  0  0  0  0  0
   -2.8254    2.4352    2.4150 H   0  0  0  0  0  0  0  0  0  0  0  0
   -3.4836    0.7082    0.2278 H   0  0  0  0  0  0  0  0  0  0  0  0
   -1.6866    3.1298   -0.3871 H   0  0  0  0  0  0  0  0  0  0  0  0
   -1.9704    1.7677   -1.4777 H   0  0  0  0  0  0  0  0  0  0  0  0
   -3.3030    2.8584   -1.0531 H   0  0  0  0  0  0  0  0  0  0  0  0
   -1.1107   -0.2839    0.3303 N   0  0  0  0  0  0  0  0  0  0  0  0
    0.0490   -1.0750    0.6539 C   0  0  2  0  0  0  0  0  0  0  0  0
    1.0087   -0.9911   -0.5295 C   0  0  0  0  0  0  0  0  0  0  0  0
    0.8472   -1.6261   -1.5697 O   0  0  0  0  0  0  0  0  0  0  0  0
   -0.3005   -2.5308    0.9954 C   0  0  2  0  0  0  0  0  0  0  0  0
   -0.9272   -3.1730   -0.1139 O   0  0  0  0  0  0  0  0  0  0  0  0
   -1.2451   -2.6327    2.1869 C   0  0  0  0  0  0  0  0  0  0  0  0
   -1.6733   -0.5660   -0.4691 H   0  0  0  0  0  0  0  0  0  0  0  0
    0.5231   -0.5920    1.5170 H   0  0  0  0  0  0  0  0  0  0  0  0
    0.6099   -3.0961    1.2263 H   0  0  0  0  0  0  0  0  0  0  0  0
   -1.0744   -4.0942    0.1493 H   0  0  0  0  0  0  0  0  0  0  0  0
   -2.1753   -2.0827    2.0083 H   0  0  0  0  0  0  0  0  0  0  0  0
   -0.7774   -2.2500    3.0990 H   0  0  0  0  0  0  0  0  0  0  0  0
   -1.5305   -3.6771    2.3552 H   0  0  0  0  0  0  0  0  0  0  0  0
    2.0909   -0.1628   -0.2679 N   0  0  0  0  0  0  0  0  0  0  0  0
    3.1532    0.0526   -1.2221 C   0  0  2  0  0  0  0  0  0  0  0  0
    2.6576    1.0505   -2.2604 C   0  0  0  0  0  0  0  0  0  0  0  0
    1.4654    1.2469   -2.4865 O   0  0  0  0  0  0  0  0  0  0  0  0
    3.5784   -1.2508   -1.8803 C   0  0  0  0  0  0  0  0  0  0  0  0
    2.1376    0.3104    0.6297 H   0  0  0  0  0  0  0  0  0  0  0  0
    3.9924    0.4873   -0.6683 H   0  0  0  0  0  0  0  0  0  0  0  0
    2.7505   -1.7012   -2.4400 H   0  0  0  0  0  0  0  0  0  0  0  0
    4.4031   -1.0901   -2.5825 H   0  0  0  0  0  0  0  0  0  0  0  0
    3.9064   -1.9777   -1.1295 H   0  0  0  0  0  0  0  0  0  0  0  0
    3.7036    1.6645   -2.9350 N   0  0  0  0  0  0  0  0  0  0  0  0
    3.4921    2.6420   -3.9770 C   0  0  0  0  0  0  0  0  0  0  0  0
    4.6612    1.4550   -2.6689 H   0  0  0  0  0  0  0  0  0  0  0  0
    3.4719    2.1381   -4.9546 H   0  0  0  0  0  0  0  0  0  0  0  0
    2.5337    3.1551   -3.8092 H   0  0  0  0  0  0  0  0  0  0  0  0
    4.3097    3.3777   -3.9607 H   0  0  0  0  0  0  0  0  0  0  0  0
  1  3  1  0  0  0  0
  1  7  1  0  0  0  0
  1  2  2  0  0  0  0
 32 33  1  0  0  0  0
 33 41  1  0  0  0  0
 33 34  2  0  0  0  0
  8  9  1  0  0  0  0
  9 17  1  0  0  0  0
  9 10  2  0  0  0  0
 18 19  1  0  0  0  0
 19 31  1  0  0  0  0
 19 20  2  0  0  0  0
 32 35  1  0  0  0  0
  8 11  1  0  0  0  0
 21 23  1  0  0  0  0
 41 42  1  0  0  0  0
 31 32  1  0  0  0  0
  7  8  1  0  0  0  0
 18 21  1  0  0  0  0
 17 18  1  0  0  0  0
 21 22  1  0  0  0  0
  3  4  1  0  0  0  0
  3  5  1  0  0  0  0
  3  6  1  0  0  0  0
 35 38  1  0  0  0  0
 35 39  1  0  0  0  0
 35 40  1  0  0  0  0
 11 14  1  0  0  0  0
 11 15  1  0  0  0  0
 11 16  1  0  0  0  0
 23 28  1  0  0  0  0
 23 29  1  0  0  0  0
 23 30  1  0  0  0  0
 42 44  1  0  0  0  0
 42 45  1  0  0  0  0
 42 46  1  0  0  0  0
 32 37  1  0  0  0  0
  8 13  1  0  0  0  0
 18 25  1  0  0  0  0
 21 26  1  0  0  0  0
 41 43  1  0  0  0  0
  7 12  1  0  0  0  0
 31 36  1  0  0  0  0
 17 24  1  0  0  0  0
 22 27  1  0  0  0  0
M  END
$$$$

  -OEChem-05262214473D

 46 45  0     1  0  0  0  0  0999 V2000
   -4.6700    2.7214    1.5150 C   0  0  0  0  0  0  0  0  0  0  0  0
   -5.4532    2.5715    0.5845 O   0  0  0  0  0  0  0  0  0  0  0  0
   -5.0996    3.4865    2.7226 C   0  0  0  0  0  0  0  0  0  0  0  0
   -4.8796    4.5629    2.6387 H   0  0  0  0  0  0  0  0  0  0  0  0
   -6.1861    3.4241    2.8954 H   0  0  0  0  0  0  0  0  0  0  0  0
   -4.6369    3.1693    3.6708 H   0  0  0  0  0  0  0  0  0  0  0  0
   -3.3731    2.2391    1.5790 N   0  0  0  0  0  0  0  0  0  0  0  0
   -2.7599    1.4751    0.5247 C   0  0  2  0  0  0  0  0  0  0  0  0
   -1.5143    0.8067    1.0915 C   0  0  0  0  0  0  0  0  0  0  0  0
   -0.9247    1.2213    2.0872 O   0  0  0  0  0  0  0  0  0  0  0  0
   -2.4106    2.3553   -0.6653 C   0  0  0  0  0  0  0  0  0  0  0  0
   -2.8254    2.4352    2.4150 H   0  0  0  0  0  0  0  0  0  0  0  0
   -3.4836    0.7082    0.2278 H   0  0  0  0  0  0  0  0  0  0  0  0
   -1.6866    3.1298   -0.3871 H   0  0  0  0  0  0  0  0  0  0  0  0
   -1.9704    1.7677   -1.4777 H   0  0  0  0  0  0  0  0  0  0  0  0
   -3.3030    2.8584   -1.0531 H   0  0  0  0  0  0  0  0  0  0  0  0
   -1.1107   -0.2839    0.3303 N   0  0  0  0  0  0  0  0  0  0  0  0
    0.0490   -1.0750    0.6539 C   0  0  2  0  0  0  0  0  0  0  0  0
    1.0087   -0.9911   -0.5295 C   0  0  0  0  0  0  0  0  0  0  0  0
    0.7249   -1.4015   -1.6531 O   0  0  0  0  0  0  0  0  0  0  0  0
   -0.3005   -2.5308    0.9954 C   0  0  2  0  0  0  0  0  0  0  0  0
   -0.9272   -3.1730   -0.1139 O   0  0  0  0  0  0  0  0  0  0  0  0
   -1.2451   -2.6327    2.1869 C   0  0  0  0  0  0  0  0  0  0  0  0
   -1.6733   -0.5660   -0.4691 H   0  0  0  0  0  0  0  0  0  0  0  0
    0.5231   -0.5920    1.5170 H   0  0  0  0  0  0  0  0  0  0  0  0
    0.6099   -3.0961    1.2263 H   0  0  0  0  0  0  0  0  0  0  0  0
   -1.0744   -4.0942    0.1493 H   0  0  0  0  0  0  0  0  0  0  0  0
   -2.1753   -2.0827    2.0083 H   0  0  0  0  0  0  0  0  0  0  0  0
   -0.7774   -2.2500    3.0990 H   0  0  0  0  0  0  0  0  0  0  0  0
   -1.5305   -3.6771    2.3552 H   0  0  0  0  0  0  0  0  0  0  0  0
    2.2352   -0.4499   -0.1713 N   0  0  0  0  0  0  0  0  0  0  0  0
    3.3214   -0.2971   -1.1105 C   0  0  2  0  0  0  0  0  0  0  0  0
    3.0400    0.9363   -1.9584 C   0  0  0  0  0  0  0  0  0  0  0  0
    1.9125    1.4011   -2.1130 O   0  0  0  0  0  0  0  0  0  0  0  0
    3.4762   -1.5329   -1.9832 C   0  0  0  0  0  0  0  0  0  0  0  0
    2.3744   -0.1494    0.7891 H   0  0  0  0  0  0  0  0  0  0  0  0
    4.2298   -0.1355   -0.5199 H   0  0  0  0  0  0  0  0  0  0  0  0
    2.5758   -1.7109   -2.5823 H   0  0  0  0  0  0  0  0  0  0  0  0
    4.3181   -1.4269   -2.6753 H   0  0  0  0  0  0  0  0  0  0  0  0
    3.6490   -2.4239   -1.3699 H   0  0  0  0  0  0  0  0  0  0  0  0
    4.1900    1.4316   -2.5571 N   0  0  0  0  0  0  0  0  0  0  0  0
    4.1827    2.5892   -3.4207 C   0  0  0  0  0  0  0  0  0  0  0  0
    5.0849    0.9944   -2.3579 H   0  0  0  0  0  0  0  0  0  0  0  0
    4.0635    2.2670   -4.4657 H   0  0  0  0  0  0  0  0  0  0  0  0
    3.3473    3.2486   -3.1429 H   0  0  0  0  0  0  0  0  0  0  0  0
    5.1320    3.1341   -3.3112 H   0  0  0  0  0  0  0  0  0  0  0  0
  1  3  1  0  0  0  0
  1  7  1  0  0  0  0
  1  2  2  0  0  0  0
 32 33  1  0  0  0  0
 33 41  1  0  0  0  0
 33 34  2  0  0  0  0
  8  9  1  0  0  0  0
  9 17  1  0  0  0  0
  9 10  2  0  0  0  0
 18 19  1  0  0  0  0
 19 31  1  0  0  0  0
 19 20  2  0  0  0  0
 32 35  1  0  0  0  0
  8 11  1  0  0  0  0
 21 23  1  0  0  0  0
 41 42  1  0  0  0  0
 31 32  1  0  0  0  0
  7  8  1  0  0  0  0
 18 21  1  0  0  0  0
 17 18  1  0  0  0  0
 21 22  1  0  0  0  0
  3  4  1  0  0  0  0
  3  5  1  0  0  0  0
  3  6  1  0  0  0  0
 35 38  1  0  0  0  0
 35 39  1  0  0  0  0
 35 40  1  0  0  0  0
 11 14  1  0  0  0  0
 11 15  1  0  0  0  0
 11 16  1  0  0  0  0
 23 28  1  0  0  0  0
 23 29  1  0  0  0  0
 23 30  1  0  0  0  0
 42 44  1  0  0  0  0
 42 45  1  0  0  0  0
 42 46  1  0  0  0  0
 32 37  1  0  0  0  0
  8 13  1  0  0  0  0
 18 25  1  0  0  0  0
 21 26  1  0  0  0  0
 41 43  1  0  0  0  0
  7 12  1  0  0  0  0
 31 36  1  0  0  0  0
 17 24  1  0  0  0  0
 22 27  1  0  0  0  0
M  END
$$$$

  -OEChem-05262214473D

 46 45  0     1  0  0  0  0  0999 V2000
   -4.6700    2.7214    1.5150 C   0  0  0  0  0  0  0  0  0  0  0  0
   -5.4532    2.5715    0.5845 O   0  0  0  0  0  0  0  0  0  0  0  0
   -5.0996    3.4865    2.7226 C   0  0  0  0  0  0  0  0  0  0  0  0
   -4.8796    4.5629    2.6387 H   0  0  0  0  0  0  0  0  0  0  0  0
   -6.1861    3.4241    2.8954 H   0  0  0  0  0  0  0  0  0  0  0  0
   -4.6369    3.1693    3.6708 H   0  0  0  0  0  0  0  0  0  0  0  0
   -3.3731    2.2391    1.5790 N   0  0  0  0  0  0  0  0  0  0  0  0
   -2.7599    1.4751    0.5247 C   0  0  2  0  0  0  0  0  0  0  0  0
   -1.5143    0.8067    1.0915 C   0  0  0  0  0  0  0  0  0  0  0  0
   -0.9247    1.2213    2.0872 O   0  0  0  0  0  0  0  0  0  0  0  0
   -2.4106    2.3553   -0.6653 C   0  0  0  0  0  0  0  0  0  0  0  0
   -2.8254    2.4352    2.4150 H   0  0  0  0  0  0  0  0  0  0  0  0
   -3.4836    0.7082    0.2278 H   0  0  0  0  0  0  0  0  0  0  0  0
   -1.6866    3.1298   -0.3871 H   0  0  0  0  0  0  0  0  0  0  0  0
   -1.9704    1.7677   -1.4777 H   0  0  0  0  0  0  0  0  0  0  0  0
   -3.3030    2.8584   -1.0531 H   0  0  0  0  0  0  0  0  0  0  0  0
   -1.1107   -0.2839    0.3303 N   0  0  0  0  0  0  0  0  0  0  0  0
    0.0490   -1.0750    0.6539 C   0  0  2  0  0  0  0  0  0  0  0  0
    1.0087   -0.9911   -0.5295 C   0  0  0  0  0  0  0  0  0  0  0  0
    0.6505   -1.1464   -1.6952 O   0  0  0  0  0  0  0  0  0  0  0  0
   -0.3005   -2.5308    0.9954 C   0  0  2  0  0  0  0  0  0  0  0  0
   -0.9272   -3.1730   -0.1139 O   0  0  0  0  0  0  0  0  0  0  0  0
   -1.2451   -2.6327    2.1869 C   0  0  0  0  0  0  0  0  0  0  0  0
   -1.6733   -0.5660   -0.4691 H   0  0  0  0  0  0  0  0  0  0  0  0
    0.5231   -0.5920    1.5170 H   0  0  0  0  0  0  0  0  0  0  0  0
    0.6099   -3.0961    1.2263 H   0  0  0  0  0  0  0  0  0  0  0  0
   -1.0744   -4.0942    0.1493 H   0  0  0  0  0  0  0  0  0  0  0  0
   -2.1753   -2.0827    2.0083 H   0  0  0  0  0  0  0  0  0  0  0  0
   -0.7774   -2.2500    3.0990 H   0  0  0  0  0  0  0  0  0  0  0  0
   -1.5305   -3.6771    2.3552 H   0  0  0  0  0  0  0  0  0  0  0  0
    2.3184   -0.7718   -0.1266 N   0  0  0  0  0  0  0  0  0  0  0  0
    3.4153   -0.6868   -1.0620 C   0  0  2  0  0  0  0  0  0  0  0  0
    3.3907    0.7002   -1.6907 C   0  0  0  0  0  0  0  0  0  0  0  0
    2.3806    1.3995   -1.7334 O   0  0  0  0  0  0  0  0  0  0  0  0
    3.3195   -1.7681   -2.1270 C   0  0  0  0  0  0  0  0  0  0  0  0
    2.5130   -0.6671    0.8648 H   0  0  0  0  0  0  0  0  0  0  0  0
    4.3362   -0.8089   -0.4814 H   0  0  0  0  0  0  0  0  0  0  0  0
    2.4031   -1.6621   -2.7189 H   0  0  0  0  0  0  0  0  0  0  0  0
    4.1671   -1.7201   -2.8185 H   0  0  0  0  0  0  0  0  0  0  0  0
    3.3073   -2.7641   -1.6711 H   0  0  0  0  0  0  0  0  0  0  0  0
    4.6184    1.0474   -2.2369 N   0  0  0  0  0  0  0  0  0  0  0  0
    4.8471    2.3090   -2.9018 C   0  0  0  0  0  0  0  0  0  0  0  0
    5.4062    0.4139   -2.1385 H   0  0  0  0  0  0  0  0  0  0  0  0
    4.6678    2.1931   -3.9809 H   0  0  0  0  0  0  0  0  0  0  0  0
    4.1613    3.0671   -2.4956 H   0  0  0  0  0  0  0  0  0  0  0  0
    5.8866    2.6280   -2.7352 H   0  0  0  0  0  0  0  0  0  0  0  0
  1  3  1  0  0  0  0
  1  7  1  0  0  0  0
  1  2  2  0  0  0  0
 32 33  1  0  0  0  0
 33 41  1  0  0  0  0
 33 34  2  0  0  0  0
  8  9  1  0  0  0  0
  9 17  1  0  0  0  0
  9 10  2  0  0  0  0
 18 19  1  0  0  0  0
 19 31  1  0  0  0  0
 19 20  2  0  0  0  0
 32 35  1  0  0  0  0
  8 11  1  0  0  0  0
 21 23  1  0  0  0  0
 41 42  1  0  0  0  0
 31 32  1  0  0  0  0
  7  8  1  0  0  0  0
 18 21  1  0  0  0  0
 17 18  1  0  0  0  0
 21 22  1  0  0  0  0
  3  4  1  0  0  0  0
  3  5  1  0  0  0  0
  3  6  1  0  0  0  0
 35 38  1  0  0  0  0
 35 39  1  0  0  0  0
 35 40  1  0  0  0  0
 11 14  1  0  0  0  0
 11 15  1  0  0  0  0
 11 16  1  0  0  0  0
 23 28  1  0  0  0  0
 23 29  1  0  0  0  0
 23 30  1  0  0  0  0
 42 44  1  0  0  0  0
 42 45  1  0  0  0  0
 42 46  1  0  0  0  0
 32 37  1  0  0  0  0
  8 13  1  0  0  0  0
 18 25  1  0  0  0  0
 21 26  1  0  0  0  0
 41 43  1  0  0  0  0
  7 12  1  0  0  0  0
 31 36  1  0  0  0  0
 17 24  1  0  0  0  0
 22 27  1  0  0  0  0
M  END
$$$$

  -OEChem-05262214473D

 46 45  0     1  0  0  0  0  0999 V2000
   -4.6700    2.7214    1.5150 C   0  0  0  0  0  0  0  0  0  0  0  0
   -5.4532    2.5715    0.5845 O   0  0  0  0  0  0  0  0  0  0  0  0
   -5.0996    3.4865    2.7226 C   0  0  0  0  0  0  0  0  0  0  0  0
   -4.8796    4.5629    2.6387 H   0  0  0  0  0  0  0  0  0  0  0  0
   -6.1861    3.4241    2.8954 H   0  0  0  0  0  0  0  0  0  0  0  0
   -4.6369    3.1693    3.6708 H   0  0  0  0  0  0  0  0  0  0  0  0
   -3.3731    2.2391    1.5790 N   0  0  0  0  0  0  0  0  0  0  0  0
   -2.7599    1.4751    0.5247 C   0  0  2  0  0  0  0  0  0  0  0  0
   -1.5143    0.8067    1.0915 C   0  0  0  0  0  0  0  0  0  0  0  0
   -0.9247    1.2213    2.0872 O   0  0  0  0  0  0  0  0  0  0  0  0
   -2.4106    2.3553   -0.6653 C   0  0  0  0  0  0  0  0  0  0  0  0
   -2.8254    2.4352    2.4150 H   0  0  0  0  0  0  0  0  0  0  0  0
   -3.4836    0.7082    0.2278 H   0  0  0  0  0  0  0  0  0  0  0  0
   -1.6866    3.1298   -0.3871 H   0  0  0  0  0  0  0  0  0  0  0  0
   -1.9704    1.7677   -1.4777 H   0  0  0  0  0  0  0  0  0  0  0  0
   -3.3030    2.8584   -1.0531 H   0  0  0  0  0  0  0  0  0  0  0  0
   -1.1107   -0.2839    0.3303 N   0  0  0  0  0  0  0  0  0  0  0  0
    0.0490   -1.0750    0.6539 C   0  0  2  0  0  0  0  0  0  0  0  0
    1.0087   -0.9911   -0.5295 C   0  0  0  0  0  0  0  0  0  0  0  0
    0.6293   -0.8782   -1.6934 O   0  0  0  0  0  0  0  0  0  0  0  0
   -0.3005   -2.5308    0.9954 C   0  0  2  0  0  0  0  0  0  0  0  0
   -0.9272   -3.1730   -0.1139 O   0  0  0  0  0  0  0  0  0  0  0  0
   -1.2451   -2.6327    2.1869 C   0  0  0  0  0  0  0  0  0  0  0  0
   -1.6733   -0.5660   -0.4691 H   0  0  0  0  0  0  0  0  0  0  0  0
    0.5231   -0.5920    1.5170 H   0  0  0  0  0  0  0  0  0  0  0  0
    0.6099   -3.0961    1.2263 H   0  0  0  0  0  0  0  0  0  0  0  0
   -1.0744   -4.0942    0.1493 H   0  0  0  0  0  0  0  0  0  0  0  0
   -2.1753   -2.0827    2.0083 H   0  0  0  0  0  0  0  0  0  0  0  0
   -0.7774   -2.2500    3.0990 H   0  0  0  0  0  0  0  0  0  0  0  0
   -1.5305   -3.6771    2.3552 H   0  0  0  0  0  0  0  0  0  0  0  0
    2.3347   -1.1068   -0.1372 N   0  0  0  0  0  0  0  0  0  0  0  0
    3.4284   -1.0899   -1.0799 C   0  0  2  0  0  0  0  0  0  0  0  0
    3.6859    0.3581   -1.4756 C   0  0  0  0  0  0  0  0  0  0  0  0
    2.8379    1.2422   -1.3738 O   0  0  0  0  0  0  0  0  0  0  0  0
    3.1188   -1.9405   -2.3019 C   0  0  0  0  0  0  0  0  0  0  0  0
    2.5442   -1.2073    0.8517 H   0  0  0  0  0  0  0  0  0  0  0  0
    4.3043   -1.4870   -0.5553 H   0  0  0  0  0  0  0  0  0  0  0  0
    2.2441   -1.5580   -2.8405 H   0  0  0  0  0  0  0  0  0  0  0  0
    3.9603   -1.9497   -3.0025 H   0  0  0  0  0  0  0  0  0  0  0  0
    2.9047   -2.9750   -2.0125 H   0  0  0  0  0  0  0  0  0  0  0  0
    4.9597    0.5383   -1.9962 N   0  0  0  0  0  0  0  0  0  0  0  0
    5.4400    1.8205   -2.4557 C   0  0  0  0  0  0  0  0  0  0  0  0
    5.6032   -0.2471   -2.0257 H   0  0  0  0  0  0  0  0  0  0  0  0
    5.2435    1.9216   -3.5332 H   0  0  0  0  0  0  0  0  0  0  0  0
    4.9204    2.6230   -1.9115 H   0  0  0  0  0  0  0  0  0  0  0  0
    6.5221    1.8939   -2.2719 H   0  0  0  0  0  0  0  0  0  0  0  0
  1  3  1  0  0  0  0
  1  7  1  0  0  0  0
  1  2  2  0  0  0  0
 32 33  1  0  0  0  0
 33 41  1  0  0  0  0
 33 34  2  0  0  0  0
  8  9  1  0  0  0  0
  9 17  1  0  0  0  0
  9 10  2  0  0  0  0
 18 19  1  0  0  0  0
 19 31  1  0  0  0  0
 19 20  2  0  0  0  0
 32 35  1  0  0  0  0
  8 11  1  0  0  0  0
 21 23  1  0  0  0  0
 41 42  1  0  0  0  0
 31 32  1  0  0  0  0
  7  8  1  0  0  0  0
 18 21  1  0  0  0  0
 17 18  1  0  0  0  0
 21 22  1  0  0  0  0
  3  4  1  0  0  0  0
  3  5  1  0  0  0  0
  3  6  1  0  0  0  0
 35 38  1  0  0  0  0
 35 39  1  0  0  0  0
 35 40  1  0  0  0  0
 11 14  1  0  0  0  0
 11 15  1  0  0  0  0
 11 16  1  0  0  0  0
 23 28  1  0  0  0  0
 23 29  1  0  0  0  0
 23 30  1  0  0  0  0
 42 44  1  0  0  0  0
 42 45  1  0  0  0  0
 42 46  1  0  0  0  0
 32 37  1  0  0  0  0
  8 13  1  0  0  0  0
 18 25  1  0  0  0  0
 21 26  1  0  0  0  0
 41 43  1  0  0  0  0
  7 12  1  0  0  0  0
 31 36  1  0  0  0  0
 17 24  1  0  0  0  0
 22 27  1  0  0  0  0
M  END
$$$$

  -OEChem-05262214473D

 46 45  0     1  0  0  0  0  0999 V2000
   -4.6700    2.7214    1.5150 C   0  0  0  0  0  0  0  0  0  0  0  0
   -5.4532    2.5715    0.5845 O   0  0  0  0  0  0  0  0  0  0  0  0
   -5.0996    3.4865    2.7226 C   0  0  0  0  0  0  0  0  0  0  0  0
   -4.8796    4.5629    2.6387 H   0  0  0  0  0  0  0  0  0  0  0  0
   -6.1861    3.4241    2.8954 H   0  0  0  0  0  0  0  0  0  0  0  0
   -4.6369    3.1693    3.6708 H   0  0  0  0  0  0  0  0  0  0  0  0
   -3.3731    2.2391    1.5790 N   0  0  0  0  0  0  0  0  0  0  0  0
   -2.7599    1.4751    0.5247 C   0  0  2  0  0  0  0  0  0  0  0  0
   -1.5143    0.8067    1.0915 C   0  0  0  0  0  0  0  0  0  0  0  0
   -0.9247    1.2213    2.0872 O   0  0  0  0  0  0  0  0  0  0  0  0
   -2.4106    2.3553   -0.6653 C   0  0  0  0  0  0  0  0  0  0  0  0
   -2.8254    2.4352    2.4150 H   0  0  0  0  0  0  0  0  0  0  0  0
   -3.4836    0.7082    0.2278 H   0  0  0  0  0  0  0  0  0  0  0  0
   -1.6866    3.1298   -0.3871 H   0  0  0  0  0  0  0  0  0  0  0  0
   -1.9704    1.7677   -1.4777 H   0  0  0  0  0  0  0  0  0  0  0  0
   -3.3030    2.8584   -1.0531 H   0  0  0  0  0  0  0  0  0  0  0  0
   -1.1107   -0.2839    0.3303 N   0  0  0  0  0  0  0  0  0  0  0  0
    0.0490   -1.0750    0.6539 C   0  0  2  0  0  0  0  0  0  0  0  0
    1.0087   -0.9911   -0.5295 C   0  0  0  0  0  0  0  0  0  0  0  0
    0.6627   -0.6152   -1.6477 O   0  0  0  0  0  0  0  0  0  0  0  0
   -0.3005   -2.5308    0.9954 C   0  0  2  0  0  0  0  0  0  0  0  0
   -0.9272   -3.1730   -0.1139 O   0  0  0  0  0  0  0  0  0  0  0  0
   -1.2451   -2.6327    2.1869 C   0  0  0  0  0  0  0  0  0  0  0  0
   -1.6733   -0.5660   -0.4691 H   0  0  0  0  0  0  0  0  0  0  0  0
    0.5231   -0.5920    1.5170 H   0  0  0  0  0  0  0  0  0  0  0  0
    0.6099   -3.0961    1.2263 H   0  0  0  0  0  0  0  0  0  0  0  0
   -1.0744   -4.0942    0.1493 H   0  0  0  0  0  0  0  0  0  0  0  0
   -2.1753   -2.0827    2.0083 H   0  0  0  0  0  0  0  0  0  0  0  0
   -0.7774   -2.2500    3.0990 H   0  0  0  0  0  0  0  0  0  0  0  0
   -1.5305   -3.6771    2.3552 H   0  0  0  0  0  0  0  0  0  0  0  0
    2.2831   -1.4319   -0.2021 N   0  0  0  0  0  0  0  0  0  0  0  0
    3.3600   -1.4790   -1.1630 C   0  0  2  0  0  0  0  0  0  0  0  0
    3.9054   -0.0666   -1.3277 C   0  0  0  0  0  0  0  0  0  0  0  0
    3.2532    0.9400   -1.0585 O   0  0  0  0  0  0  0  0  0  0  0  0
    2.8879   -2.0383   -2.4961 C   0  0  0  0  0  0  0  0  0  0  0  0
    2.4656   -1.7332    0.7507 H   0  0  0  0  0  0  0  0  0  0  0  0
    4.1364   -2.1235   -0.7367 H   0  0  0  0  0  0  0  0  0  0  0  0
    2.1097   -1.4057   -2.9386 H   0  0  0  0  0  0  0  0  0  0  0  0
    3.7119   -2.1000   -3.2146 H   0  0  0  0  0  0  0  0  0  0  0  0
    2.4686   -3.0424   -2.3709 H   0  0  0  0  0  0  0  0  0  0  0  0
    5.1906   -0.0612   -1.8515 N   0  0  0  0  0  0  0  0  0  0  0  0
    5.9210    1.1571   -2.1126 C   0  0  0  0  0  0  0  0  0  0  0  0
    5.6623   -0.9435   -2.0271 H   0  0  0  0  0  0  0  0  0  0  0  0
    5.7516    1.4709   -3.1532 H   0  0  0  0  0  0  0  0  0  0  0  0
    5.5728    1.9466   -1.4304 H   0  0  0  0  0  0  0  0  0  0  0  0
    6.9952    0.9819   -1.9529 H   0  0  0  0  0  0  0  0  0  0  0  0
  1  3  1  0  0  0  0
  1  7  1  0  0  0  0
  1  2  2  0  0  0  0
 32 33  1  0  0  0  0
 33 41  1  0  0  0  0
 33 34  2  0  0  0  0
  8  9  1  0  0  0  0
  9 17  1  0  0  0  0
  9 10  2  0  0  0  0
 18 19  1  0  0  0  0
 19 31  1  0  0  0  0
 19 20  2  0  0  0  0
 32 35  1  0  0  0  0
  8 11  1  0  0  0  0
 21 23  1  0  0  0  0
 41 42  1  0  0  0  0
 31 32  1  0  0  0  0
  7  8  1  0  0  0  0
 18 21  1  0  0  0  0
 17 18  1  0  0  0  0
 21 22  1  0  0  0  0
  3  4  1  0  0  0  0
  3  5  1  0  0  0  0
  3  6  1  0  0  0  0
 35 38  1  0  0  0  0
 35 39  1  0  0  0  0
 35 40  1  0  0  0  0
 11 14  1  0  0  0  0
 11 15  1  0  0  0  0
 11 16  1  0  0  0  0
 23 28  1  0  0  0  0
 23 29  1  0  0  0  0
 23 30  1  0  0  0  0
 42 44  1  0  0  0  0
 42 45  1  0  0  0  0
 42 46  1  0  0  0  0
 32 37  1  0  0  0  0
  8 13  1  0  0  0  0
 18 25  1  0  0  0  0
 21 26  1  0  0  0  0
 41 43  1  0  0  0  0
  7 12  1  0  0  0  0
 31 36  1  0  0  0  0
 17 24  1  0  0  0  0
 22 27  1  0  0  0  0
M  END
$$$$

  -OEChem-05262214473D

 46 45  0     1  0  0  0  0  0999 V2000
   -4.6700    2.7214    1.5150 C   0  0  0  0  0  0  0  0  0  0  0  0
   -5.4532    2.5715    0.5845 O   0  0  0  0  0  0  0  0  0  0  0  0
   -5.0996    3.4865    2.7226 C   0  0  0  0  0  0  0  0  0  0  0  0
   -4.8796    4.5629    2.6387 H   0  0  0  0  0  0  0  0  0  0  0  0
   -6.1861    3.4241    2.8954 H   0  0  0  0  0  0  0  0  0  0  0  0
   -4.6369    3.1693    3.6708 H   0  0  0  0  0  0  0  0  0  0  0  0
   -3.3731    2.2391    1.5790 N   0  0  0  0  0  0  0  0  0  0  0  0
   -2.7599    1.4751    0.5247 C   0  0  2  0  0  0  0  0  0  0  0  0
   -1.5143    0.8067    1.0915 C   0  0  0  0  0  0  0  0  0  0  0  0
   -0.9247    1.2213    2.0872 O   0  0  0  0  0  0  0  0  0  0  0  0
   -2.4106    2.3553   -0.6653 C   0  0  0  0  0  0  0  0  0  0  0  0
   -2.8254    2.4352    2.4150 H   0  0  0  0  0  0  0  0  0  0  0  0
   -3.4836    0.7082    0.2278 H   0  0  0  0  0  0  0  0  0  0  0  0
   -1.6866    3.1298   -0.3871 H   0  0  0  0  0  0  0  0  0  0  0  0
   -1.9704    1.7677   -1.4777 H   0  0  0  0  0  0  0  0  0  0  0  0
   -3.3030    2.8584   -1.0531 H   0  0  0  0  0  0  0  0  0  0  0  0
   -1.1107   -0.2839    0.3303 N   0  0  0  0  0  0  0  0  0  0  0  0
    0.0490   -1.0750    0.6539 C   0  0  2  0  0  0  0  0  0  0  0  0
    1.1519   -0.7002   -0.3318 C   0  0  0  0  0  0  0  0  0  0  0  0
    0.9900    0.1090   -1.2430 O   0  0  0  0  0  0  0  0  0  0  0  0
   -0.2362   -2.5838    0.6353 C   0  0  2  0  0  0  0  0  0  0  0  0
   -0.6575   -3.0020   -0.6621 O   0  0  0  0  0  0  0  0  0  0  0  0
   -1.3240   -2.9772    1.6274 C   0  0  0  0  0  0  0  0  0  0  0  0
   -1.6733   -0.5660   -0.4691 H   0  0  0  0  0  0  0  0  0  0  0  0
    0.3647   -0.7666    1.6580 H   0  0  0  0  0  0  0  0  0  0  0  0
    0.6732   -3.1455    0.8783 H   0  0  0  0  0  0  0  0  0  0  0  0
   -0.7713   -3.9635   -0.6173 H   0  0  0  0  0  0  0  0  0  0  0  0
   -2.2590   -2.4423    1.4289 H   0  0  0  0  0  0  0  0  0  0  0  0
   -1.0139   -2.7773    2.6575 H   0  0  0  0  0  0  0  0  0  0  0  0
   -1.5524   -4.0448    1.5347 H   0  0  0  0  0  0  0  0  0  0  0  0
    2.3212   -1.4120   -0.1041 N   0  0  0  0  0  0  0  0  0  0  0  0
    3.4981   -1.2568   -0.9265 C   0  0  2  0  0  0  0  0  0  0  0  0
    4.2075    0.0203   -0.4961 C   0  0  0  0  0  0  0  0  0  0  0  0
    3.6382    0.9394    0.0889 O   0  0  0  0  0  0  0  0  0  0  0  0
    3.1386   -1.2076   -2.4033 C   0  0  0  0  0  0  0  0  0  0  0  0
    2.3505   -2.0676    0.6712 H   0  0  0  0  0  0  0  0  0  0  0  0
    4.1421   -2.1193   -0.7230 H   0  0  0  0  0  0  0  0  0  0  0  0
    2.4936   -0.3499   -2.6264 H   0  0  0  0  0  0  0  0  0  0  0  0
    4.0342   -1.1187   -3.0270 H   0  0  0  0  0  0  0  0  0  0  0  0
    2.6021   -2.1140   -2.7043 H   0  0  0  0  0  0  0  0  0  0  0  0
    5.5411    0.0313   -0.8803 N   0  0  0  0  0  0  0  0  0  0  0  0
    6.4243    1.1390   -0.5993 C   0  0  0  0  0  0  0  0  0  0  0  0
    5.9340   -0.7820   -1.3449 H   0  0  0  0  0  0  0  0  0  0  0  0
    6.4202    1.8368   -1.4497 H   0  0  0  0  0  0  0  0  0  0  0  0
    6.0803    1.6617    0.3054 H   0  0  0  0  0  0  0  0  0  0  0  0
    7.4453    0.7623   -0.4392 H   0  0  0  0  0  0  0  0  0  0  0  0
  1  3  1  0  0  0  0
  1  7  1  0  0  0  0
  1  2  2  0  0  0  0
 32 33  1  0  0  0  0
 33 41  1  0  0  0  0
 33 34  2  0  0  0  0
  8  9  1  0  0  0  0
  9 17  1  0  0  0  0
  9 10  2  0  0  0  0
 18 19  1  0  0  0  0
 19 31  1  0  0  0  0
 19 20  2  0  0  0  0
 32 35  1  0  0  0  0
  8 11  1  0  0  0  0
 21 23  1  0  0  0  0
 41 42  1  0  0  0  0
 31 32  1  0  0  0  0
  7  8  1  0  0  0  0
 18 21  1  0  0  0  0
 17 18  1  0  0  0  0
 21 22  1  0  0  0  0
  3  4  1  0  0  0  0
  3  5  1  0  0  0  0
  3  6  1  0  0  0  0
 35 38  1  0  0  0  0
 35 39  1  0  0  0  0
 35 40  1  0  0  0  0
 11 14  1  0  0  0  0
 11 15  1  0  0  0  0
 11 16  1  0  0  0  0
 23 28  1  0  0  0  0
 23 29  1  0  0  0  0
 23 30  1  0  0  0  0
 42 44  1  0  0  0  0
 42 45  1  0  0  0  0
 42 46  1  0  0  0  0
 32 37  1  0  0  0  0
  8 13  1  0  0  0  0
 18 25  1  0  0  0  0
 21 26  1  0  0  0  0
 41 43  1  0  0  0  0
  7 12  1  0  0  0  0
 31 36  1  0  0  0  0
 17 24  1  0  0  0  0
 22 27  1  0  0  0  0
M  END
$$$$

  -OEChem-05262214473D

 46 45  0     1  0  0  0  0  0999 V2000
   -4.6700    2.7214    1.5150 C   0  0  0  0  0  0  0  0  0  0  0  0
   -5.4532    2.5715    0.5845 O   0  0  0  0  0  0  0  0  0  0  0  0
   -5.0996    3.4865    2.7226 C   0  0  0  0  0  0  0  0  0  0  0  0
   -4.8796    4.5629    2.6387 H   0  0  0  0  0  0  0  0  0  0  0  0
   -6.1861    3.4241    2.8954 H   0  0  0  0  0  0  0  0  0  0  0  0
   -4.6369    3.1693    3.6708 H   0  0  0  0  0  0  0  0  0  0  0  0
   -3.3731    2.2391    1.5790 N   0  0  0  0  0  0  0  0  0  0  0  0
   -2.7599    1.4751    0.5247 C   0  0  2  0  0  0  0  0  0  0  0  0
   -1.5143    0.8067    1.0915 C   0  0  0  0  0  0  0  0  0  0  0  0
   -0.9247    1.2213    2.0872 O   0  0  0  0  0  0  0  0  0  0  0  0
   -2.4106    2.3553   -0.6653 C   0  0  0  0  0  0  0  0  0  0  0  0
   -2.8254    2.4352    2.4150 H   0  0  0  0  0  0  0  0  0  0  0  0
   -3.4836    0.7082    0.2278 H   0  0  0  0  0  0  0  0  0  0  0  0
   -1.6866    3.1298   -0.3871 H   0  0  0  0  0  0  0  0  0  0  0  0
   -1.9704    1.7677   -1.4777 H   0  0  0  0  0  0  0  0  0  0  0  0
   -3.3030    2.8584   -1.0531 H   0  0  0  0  0  0  0  0  0  0  0  0
   -1.1107   -0.2839    0.3303 N   0  0  0  0  0  0  0  0  0  0  0  0
    0.0490   -1.0750    0.6539 C   0  0  2  0  0  0  0  0  0  0  0  0
    1.1519   -0.7002   -0.3318 C   0  0  0  0  0  0  0  0  0  0  0  0
    1.0894    0.2845   -1.0650 O   0  0  0  0  0  0  0  0  0  0  0  0
   -0.2362   -2.5838    0.6353 C   0  0  2  0  0  0  0  0  0  0  0  0
   -0.6575   -3.0020   -0.6621 O   0  0  0  0  0  0  0  0  0  0  0  0
   -1.3240   -2.9772    1.6274 C   0  0  0  0  0  0  0  0  0  0  0  0
   -1.6733   -0.5660   -0.4691 H   0  0  0  0  0  0  0  0  0  0  0  0
    0.3647   -0.7666    1.6580 H   0  0  0  0  0  0  0  0  0  0  0  0
    0.6732   -3.1455    0.8783 H   0  0  0  0  0  0  0  0  0  0  0  0
   -0.7713   -3.9635   -0.6173 H   0  0  0  0  0  0  0  0  0  0  0  0
   -2.2590   -2.4423    1.4289 H   0  0  0  0  0  0  0  0  0  0  0  0
   -1.0139   -2.7773    2.6575 H   0  0  0  0  0  0  0  0  0  0  0  0
   -1.5524   -4.0448    1.5347 H   0  0  0  0  0  0  0  0  0  0  0  0
    2.1898   -1.6214   -0.3309 N   0  0  0  0  0  0  0  0  0  0  0  0
    3.3351   -1.5026   -1.2023 C   0  0  2  0  0  0  0  0  0  0  0  0
    4.2748   -0.4635   -0.6048 C   0  0  0  0  0  0  0  0  0  0  0  0
    3.9018    0.4053    0.1808 O   0  0  0  0  0  0  0  0  0  0  0  0
    2.9196   -1.1128   -2.6123 C   0  0  0  0  0  0  0  0  0  0  0  0
    2.1419   -2.4100    0.3076 H   0  0  0  0  0  0  0  0  0  0  0  0
    3.8289   -2.4804   -1.2107 H   0  0  0  0  0  0  0  0  0  0  0  0
    2.4231   -0.1356   -2.6238 H   0  0  0  0  0  0  0  0  0  0  0  0
    3.7864   -1.0510   -3.2785 H   0  0  0  0  0  0  0  0  0  0  0  0
    2.2205   -1.8457   -3.0292 H   0  0  0  0  0  0  0  0  0  0  0  0
    5.5703   -0.5938   -1.0854 N   0  0  0  0  0  0  0  0  0  0  0  0
    6.6444    0.2820   -0.6789 C   0  0  0  0  0  0  0  0  0  0  0  0
    5.7937   -1.3550   -1.7198 H   0  0  0  0  0  0  0  0  0  0  0  0
    6.7207    1.1218   -1.3853 H   0  0  0  0  0  0  0  0  0  0  0  0
    6.4396    0.6693    0.3301 H   0  0  0  0  0  0  0  0  0  0  0  0
    7.5911   -0.2780   -0.6716 H   0  0  0  0  0  0  0  0  0  0  0  0
  1  3  1  0  0  0  0
  1  7  1  0  0  0  0
  1  2  2  0  0  0  0
 32 33  1  0  0  0  0
 33 41  1  0  0  0  0
 33 34  2  0  0  0  0
  8  9  1  0  0  0  0
  9 17  1  0  0  0  0
  9 10  2  0  0  0  0
 18 19  1  0  0  0  0
 19 31  1  0  0  0  0
 19 20  2  0  0  0  0
 32 35  1  0  0  0  0
  8 11  1  0  0  0  0
 21 23  1  0  0  0  0
 41 42  1  0  0  0  0
 31 32  1  0  0  0  0
  7  8  1  0  0  0  0
 18 21  1  0  0  0  0
 17 18  1  0  0  0  0
 21 22  1  0  0  0  0
  3  4  1  0  0  0  0
  3  5  1  0  0  0  0
  3  6  1  0  0  0  0
 35 38  1  0  0  0  0
 35 39  1  0  0  0  0
 35 40  1  0  0  0  0
 11 14  1  0  0  0  0
 11 15  1  0  0  0  0
 11 16  1  0  0  0  0
 23 28  1  0  0  0  0
 23 29  1  0  0  0  0
 23 30  1  0  0  0  0
 42 44  1  0  0  0  0
 42 45  1  0  0  0  0
 42 46  1  0  0  0  0
 32 37  1  0  0  0  0
  8 13  1  0  0  0  0
 18 25  1  0  0  0  0
 21 26  1  0  0  0  0
 41 43  1  0  0  0  0
  7 12  1  0  0  0  0
 31 36  1  0  0  0  0
 17 24  1  0  0  0  0
 22 27  1  0  0  0  0
M  END
$$$$

  -OEChem-05262214473D

 46 45  0     1  0  0  0  0  0999 V2000
   -4.6700    2.7214    1.5150 C   0  0  0  0  0  0  0  0  0  0  0  0
   -5.4532    2.5715    0.5845 O   0  0  0  0  0  0  0  0  0  0  0  0
   -5.0996    3.4865    2.7226 C   0  0  0  0  0  0  0  0  0  0  0  0
   -4.8796    4.5629    2.6387 H   0  0  0  0  0  0  0  0  0  0  0  0
   -6.1861    3.4241    2.8954 H   0  0  0  0  0  0  0  0  0  0  0  0
   -4.6369    3.1693    3.6708 H   0  0  0  0  0  0  0  0  0  0  0  0
   -3.3731    2.2391    1.5790 N   0  0  0  0  0  0  0  0  0  0  0  0
   -2.7599    1.4751    0.5247 C   0  0  2  0  0  0  0  0  0  0  0  0
   -1.5143    0.8067    1.0915 C   0  0  0  0  0  0  0  0  0  0  0  0
   -0.9247    1.2213    2.0872 O   0  0  0  0  0  0  0  0  0  0  0  0
   -2.4106    2.3553   -0.6653 C   0  0  0  0  0  0  0  0  0  0  0  0
   -2.8254    2.4352    2.4150 H   0  0  0  0  0  0  0  0  0  0  0  0
   -3.4836    0.7082    0.2278 H   0  0  0  0  0  0  0  0  0  0  0  0
   -1.6866    3.1298   -0.3871 H   0  0  0  0  0  0  0  0  0  0  0  0
   -1.9704    1.7677   -1.4777 H   0  0  0  0  0  0  0  0  0  0  0  0
   -3.3030    2.8584   -1.0531 H   0  0  0  0  0  0  0  0  0  0  0  0
   -1.1107   -0.2839    0.3303 N   0  0  0  0  0  0  0  0  0  0  0  0
    0.0490   -1.0750    0.6539 C   0  0  2  0  0  0  0  0  0  0  0  0
    1.1519   -0.7002   -0.3318 C   0  0  0  0  0  0  0  0  0  0  0  0
    1.2261    0.4042   -0.8666 O   0  0  0  0  0  0  0  0  0  0  0  0
   -0.2362   -2.5838    0.6353 C   0  0  2  0  0  0  0  0  0  0  0  0
   -0.6575   -3.0020   -0.6621 O   0  0  0  0  0  0  0  0  0  0  0  0
   -1.3240   -2.9772    1.6274 C   0  0  0  0  0  0  0  0  0  0  0  0
   -1.6733   -0.5660   -0.4691 H   0  0  0  0  0  0  0  0  0  0  0  0
    0.3647   -0.7666    1.6580 H   0  0  0  0  0  0  0  0  0  0  0  0
    0.6732   -3.1455    0.8783 H   0  0  0  0  0  0  0  0  0  0  0  0
   -0.7713   -3.9635   -0.6173 H   0  0  0  0  0  0  0  0  0  0  0  0
   -2.2590   -2.4423    1.4289 H   0  0  0  0  0  0  0  0  0  0  0  0
   -1.0139   -2.7773    2.6575 H   0  0  0  0  0  0  0  0  0  0  0  0
   -1.5524   -4.0448    1.5347 H   0  0  0  0  0  0  0  0  0  0  0  0
    2.0133   -1.7593   -0.5807 N   0  0  0  0  0  0  0  0  0  0  0  0
    3.1191   -1.6612   -1.5042 C   0  0  2  0  0  0  0  0  0  0  0  0
    4.2520   -0.9218   -0.8046 C   0  0  0  0  0  0  0  0  0  0  0  0
    4.0730   -0.1719    0.1529 O   0  0  0  0  0  0  0  0  0  0  0  0
    2.7107   -0.9455   -2.7824 C   0  0  0  0  0  0  0  0  0  0  0  0
    1.8601   -2.6379   -0.0944 H   0  0  0  0  0  0  0  0  0  0  0  0
    3.4351   -2.6856   -1.7294 H   0  0  0  0  0  0  0  0  0  0  0  0
    2.3910    0.0826   -2.5768 H   0  0  0  0  0  0  0  0  0  0  0  0
    3.5423   -0.8971   -3.4931 H   0  0  0  0  0  0  0  0  0  0  0  0
    1.8762   -1.4621   -3.2687 H   0  0  0  0  0  0  0  0  0  0  0  0
    5.4809   -1.1641   -1.4022 N   0  0  0  0  0  0  0  0  0  0  0  0
    6.7086   -0.5676   -0.9301 C   0  0  0  0  0  0  0  0  0  0  0  0
    5.5386   -1.8148   -2.1801 H   0  0  0  0  0  0  0  0  0  0  0  0
    6.8955    0.3689   -1.4760 H   0  0  0  0  0  0  0  0  0  0  0  0
    6.6224   -0.3540    0.1455 H   0  0  0  0  0  0  0  0  0  0  0  0
    7.5433   -1.2637   -1.0999 H   0  0  0  0  0  0  0  0  0  0  0  0
  1  3  1  0  0  0  0
  1  7  1  0  0  0  0
  1  2  2  0  0  0  0
 32 33  1  0  0  0  0
 33 41  1  0  0  0  0
 33 34  2  0  0  0  0
  8  9  1  0  0  0  0
  9 17  1  0  0  0  0
  9 10  2  0  0  0  0
 18 19  1  0  0  0  0
 19 31  1  0  0  0  0
 19 20  2  0  0  0  0
 32 35  1  0  0  0  0
  8 11  1  0  0  0  0
 21 23  1  0  0  0  0
 41 42  1  0  0  0  0
 31 32  1  0  0  0  0
  7  8  1  0  0  0  0
 18 21  1  0  0  0  0
 17 18  1  0  0  0  0
 21 22  1  0  0  0  0
  3  4  1  0  0  0  0
  3  5  1  0  0  0  0
  3  6  1  0  0  0  0
 35 38  1  0  0  0  0
 35 39  1  0  0  0  0
 35 40  1  0  0  0  0
 11 14  1  0  0  0  0
 11 15  1  0  0  0  0
 11 16  1  0  0  0  0
 23 28  1  0  0  0  0
 23 29  1  0  0  0  0
 23 30  1  0  0  0  0
 42 44  1  0  0  0  0
 42 45  1  0  0  0  0
 42 46  1  0  0  0  0
 32 37  1  0  0  0  0
  8 13  1  0  0  0  0
 18 25  1  0  0  0  0
 21 26  1  0  0  0  0
 41 43  1  0  0  0  0
  7 12  1  0  0  0  0
 31 36  1  0  0  0  0
 17 24  1  0  0  0  0
 22 27  1  0  0  0  0
M  END
$$$$

  -OEChem-05262214473D

 46 45  0     1  0  0  0  0  0999 V2000
   -4.6700    2.7214    1.5150 C   0  0  0  0  0  0  0  0  0  0  0  0
   -5.4532    2.5715    0.5845 O   0  0  0  0  0  0  0  0  0  0  0  0
   -5.0996    3.4865    2.7226 C   0  0  0  0  0  0  0  0  0  0  0  0
   -4.8796    4.5629    2.6387 H   0  0  0  0  0  0  0  0  0  0  0  0
   -6.1861    3.4241    2.8954 H   0  0  0  0  0  0  0  0  0  0  0  0
   -4.6369    3.1693    3.6708 H   0  0  0  0  0  0  0  0  0  0  0  0
   -3.3731    2.2391    1.5790 N   0  0  0  0  0  0  0  0  0  0  0  0
   -2.7599    1.4751    0.5247 C   0  0  2  0  0  0  0  0  0  0  0  0
   -1.5143    0.8067    1.0915 C   0  0  0  0  0  0  0  0  0  0  0  0
   -0.9247    1.2213    2.0872 O   0  0  0  0  0  0  0  0  0  0  0  0
   -2.4106    2.3553   -0.6653 C   0  0  0  0  0  0  0  0  0  0  0  0
   -2.8254    2.4352    2.4150 H   0  0  0  0  0  0  0  0  0  0  0  0
   -3.4836    0.7082    0.2278 H   0  0  0  0  0  0  0  0  0  0  0  0
   -1.6866    3.1298   -0.3871 H   0  0  0  0  0  0  0  0  0  0  0  0
   -1.9704    1.7677   -1.4777 H   0  0  0  0  0  0  0  0  0  0  0  0
   -3.3030    2.8584   -1.0531 H   0  0  0  0  0  0  0  0  0  0  0  0
   -1.1107   -0.2839    0.3303 N   0  0  0  0  0  0  0  0  0  0  0  0
    0.0490   -1.0750    0.6539 C   0  0  2  0  0  0  0  0  0  0  0  0
    1.1519   -0.7002   -0.3318 C   0  0  0  0  0  0  0  0  0  0  0  0
    1.3907    0.4598   -0.6612 O   0  0  0  0  0  0  0  0  0  0  0  0
   -0.2362   -2.5838    0.6353 C   0  0  2  0  0  0  0  0  0  0  0  0
   -0.6575   -3.0020   -0.6621 O   0  0  0  0  0  0  0  0  0  0  0  0
   -1.3240   -2.9772    1.6274 C   0  0  0  0  0  0  0  0  0  0  0  0
   -1.6733   -0.5660   -0.4691 H   0  0  0  0  0  0  0  0  0  0  0  0
    0.3647   -0.7666    1.6580 H   0  0  0  0  0  0  0  0  0  0  0  0
    0.6732   -3.1455    0.8783 H   0  0  0  0  0  0  0  0  0  0  0  0
   -0.7713   -3.9635   -0.6173 H   0  0  0  0  0  0  0  0  0  0  0  0
   -2.2590   -2.4423    1.4289 H   0  0  0  0  0  0  0  0  0  0  0  0
   -1.0139   -2.7773    2.6575 H   0  0  0  0  0  0  0  0  0  0  0  0
   -1.5524   -4.0448    1.5347 H   0  0  0  0  0  0  0  0  0  0  0  0
    1.8040   -1.8163   -0.8366 N   0  0  0  0  0  0  0  0  0  0  0  0
    2.8648   -1.7217   -1.8119 C   0  0  2  0  0  0  0  0  0  0  0  0
    4.1406   -1.3232   -1.0818 C   0  0  0  0  0  0  0  0  0  0  0  0
    4.1401   -0.7528    0.0071 O   0  0  0  0  0  0  0  0  0  0  0  0
    2.5261   -0.7171   -2.9022 C   0  0  0  0  0  0  0  0  0  0  0  0
    1.5242   -2.7356   -0.5074 H   0  0  0  0  0  0  0  0  0  0  0  0
    2.9874   -2.7209   -2.2438 H   0  0  0  0  0  0  0  0  0  0  0  0
    2.3995    0.2900   -2.4885 H   0  0  0  0  0  0  0  0  0  0  0  0
    3.3186   -0.6675   -3.6561 H   0  0  0  0  0  0  0  0  0  0  0  0
    1.5924   -0.9891   -3.4063 H   0  0  0  0  0  0  0  0  0  0  0  0
    5.2791   -1.6408   -1.8093 N   0  0  0  0  0  0  0  0  0  0  0  0
    6.6126   -1.3521   -1.3358 C   0  0  0  0  0  0  0  0  0  0  0  0
    5.1860   -2.1303   -2.6945 H   0  0  0  0  0  0  0  0  0  0  0  0
    6.9327   -0.3706   -1.7155 H   0  0  0  0  0  0  0  0  0  0  0  0
    6.6161   -1.3385   -0.2359 H   0  0  0  0  0  0  0  0  0  0  0  0
    7.3050   -2.1277   -1.6950 H   0  0  0  0  0  0  0  0  0  0  0  0
  1  3  1  0  0  0  0
  1  7  1  0  0  0  0
  1  2  2  0  0  0  0
 32 33  1  0  0  0  0
 33 41  1  0  0  0  0
 33 34  2  0  0  0  0
  8  9  1  0  0  0  0
  9 17  1  0  0  0  0
  9 10  2  0  0  0  0
 18 19  1  0  0  0  0
 19 31  1  0  0  0  0
 19 20  2  0  0  0  0
 32 35  1  0  0  0  0
  8 11  1  0  0  0  0
 21 23  1  0  0  0  0
 41 42  1  0  0  0  0
 31 32  1  0  0  0  0
  7  8  1  0  0  0  0
 18 21  1  0  0  0  0
 17 18  1  0  0  0  0
 21 22  1  0  0  0  0
  3  4  1  0  0  0  0
  3  5  1  0  0  0  0
  3  6  1  0  0  0  0
 35 38  1  0  0  0  0
 35 39  1  0  0  0  0
 35 40  1  0  0  0  0
 11 14  1  0  0  0  0
 11 15  1  0  0  0  0
 11 16  1  0  0  0  0
 23 28  1  0  0  0  0
 23 29  1  0  0  0  0
 23 30  1  0  0  0  0
 42 44  1  0  0  0  0
 42 45  1  0  0  0  0
 42 46  1  0  0  0  0
 32 37  1  0  0  0  0
  8 13  1  0  0  0  0
 18 25  1  0  0  0  0
 21 26  1  0  0  0  0
 41 43  1  0  0  0  0
  7 12  1  0  0  0  0
 31 36  1  0  0  0  0
 17 24  1  0  0  0  0
 22 27  1  0  0  0  0
M  END
$$$$

  -OEChem-05262214473D

 46 45  0     1  0  0  0  0  0999 V2000
   -4.6700    2.7214    1.5150 C   0  0  0  0  0  0  0  0  0  0  0  0
   -5.4532    2.5715    0.5845 O   0  0  0  0  0  0  0  0  0  0  0  0
   -5.0996    3.4865    2.7226 C   0  0  0  0  0  0  0  0  0  0  0  0
   -4.8796    4.5629    2.6387 H   0  0  0  0  0  0  0  0  0  0  0  0
   -6.1861    3.4241    2.8954 H   0  0  0  0  0  0  0  0  0  0  0  0
   -4.6369    3.1693    3.6708 H   0  0  0  0  0  0  0  0  0  0  0  0
   -3.3731    2.2391    1.5790 N   0  0  0  0  0  0  0  0  0  0  0  0
   -2.7599    1.4751    0.5247 C   0  0  2  0  0  0  0  0  0  0  0  0
   -1.5143    0.8067    1.0915 C   0  0  0  0  0  0  0  0  0  0  0  0
   -0.9247    1.2213    2.0872 O   0  0  0  0  0  0  0  0  0  0  0  0
   -2.4106    2.3553   -0.6653 C   0  0  0  0  0  0  0  0  0  0  0  0
   -2.8254    2.4352    2.4150 H   0  0  0  0  0  0  0  0  0  0  0  0
   -3.4836    0.7082    0.2278 H   0  0  0  0  0  0  0  0  0  0  0  0
   -1.6866    3.1298   -0.3871 H   0  0  0  0  0  0  0  0  0  0  0  0
   -1.9704    1.7677   -1.4777 H   0  0  0  0  0  0  0  0  0  0  0  0
   -3.3030    2.8584   -1.0531 H   0  0  0  0  0  0  0  0  0  0  0  0
   -1.1107   -0.2839    0.3303 N   0  0  0  0  0  0  0  0  0  0  0  0
    0.0490   -1.0750    0.6539 C   0  0  2  0  0  0  0  0  0  0  0  0
    1.1519   -0.7002   -0.3318 C   0  0  0  0  0  0  0  0  0  0  0  0
    1.5721    0.4476   -0.4629 O   0  0  0  0  0  0  0  0  0  0  0  0
   -0.2362   -2.5838    0.6353 C   0  0  2  0  0  0  0  0  0  0  0  0
   -0.6575   -3.0020   -0.6621 O   0  0  0  0  0  0  0  0  0  0  0  0
   -1.3240   -2.9772    1.6274 C   0  0  0  0  0  0  0  0  0  0  0  0
   -1.6733   -0.5660   -0.4691 H   0  0  0  0  0  0  0  0  0  0  0  0
    0.3647   -0.7666    1.6580 H   0  0  0  0  0  0  0  0  0  0  0  0
    0.6732   -3.1455    0.8783 H   0  0  0  0  0  0  0  0  0  0  0  0
   -0.7713   -3.9635   -0.6173 H   0  0  0  0  0  0  0  0  0  0  0  0
   -2.2590   -2.4423    1.4289 H   0  0  0  0  0  0  0  0  0  0  0  0
   -1.0139   -2.7773    2.6575 H   0  0  0  0  0  0  0  0  0  0  0  0
   -1.5524   -4.0448    1.5347 H   0  0  0  0  0  0  0  0  0  0  0  0
    1.5760   -1.7885   -1.0812 N   0  0  0  0  0  0  0  0  0  0  0  0
    2.5894   -1.6801   -2.1042 C   0  0  2  0  0  0  0  0  0  0  0  0
    3.9483   -1.6405   -1.4176 C   0  0  0  0  0  0  0  0  0  0  0  0
    4.0985   -1.2978   -0.2467 O   0  0  0  0  0  0  0  0  0  0  0  0
    2.3783   -0.4433   -2.9634 C   0  0  0  0  0  0  0  0  0  0  0  0
    1.1572   -2.6967   -0.9032 H   0  0  0  0  0  0  0  0  0  0  0  0
    2.5163   -2.5840   -2.7188 H   0  0  0  0  0  0  0  0  0  0  0  0
    2.4479    0.4724   -2.3649 H   0  0  0  0  0  0  0  0  0  0  0  0
    3.1306   -0.3778   -3.7563 H   0  0  0  0  0  0  0  0  0  0  0  0
    1.3887   -0.4591   -3.4328 H   0  0  0  0  0  0  0  0  0  0  0  0
    4.9785   -1.9913   -2.2789 N   0  0  0  0  0  0  0  0  0  0  0  0
    6.3630   -2.0179   -1.8683 C   0  0  0  0  0  0  0  0  0  0  0  0
    4.7600   -2.2798   -3.2280 H   0  0  0  0  0  0  0  0  0  0  0  0
    6.8298   -1.0463   -2.0876 H   0  0  0  0  0  0  0  0  0  0  0  0
    6.4211   -2.2170   -0.7880 H   0  0  0  0  0  0  0  0  0  0  0  0
    6.8927   -2.8111   -2.4163 H   0  0  0  0  0  0  0  0  0  0  0  0
  1  3  1  0  0  0  0
  1  7  1  0  0  0  0
  1  2  2  0  0  0  0
 32 33  1  0  0  0  0
 33 41  1  0  0  0  0
 33 34  2  0  0  0  0
  8  9  1  0  0  0  0
  9 17  1  0  0  0  0
  9 10  2  0  0  0  0
 18 19  1  0  0  0  0
 19 31  1  0  0  0  0
 19 20  2  0  0  0  0
 32 35  1  0  0  0  0
  8 11  1  0  0  0  0
 21 23  1  0  0  0  0
 41 42  1  0  0  0  0
 31 32  1  0  0  0  0
  7  8  1  0  0  0  0
 18 21  1  0  0  0  0
 17 18  1  0  0  0  0
 21 22  1  0  0  0  0
  3  4  1  0  0  0  0
  3  5  1  0  0  0  0
  3  6  1  0  0  0  0
 35 38  1  0  0  0  0
 35 39  1  0  0  0  0
 35 40  1  0  0  0  0
 11 14  1  0  0  0  0
 11 15  1  0  0  0  0
 11 16  1  0  0  0  0
 23 28  1  0  0  0  0
 23 29  1  0  0  0  0
 23 30  1  0  0  0  0
 42 44  1  0  0  0  0
 42 45  1  0  0  0  0
 42 46  1  0  0  0  0
 32 37  1  0  0  0  0
  8 13  1  0  0  0  0
 18 25  1  0  0  0  0
 21 26  1  0  0  0  0
 41 43  1  0  0  0  0
  7 12  1  0  0  0  0
 31 36  1  0  0  0  0
 17 24  1  0  0  0  0
 22 27  1  0  0  0  0
M  END
$$$$

  -OEChem-05262214473D

 46 45  0     1  0  0  0  0  0999 V2000
   -4.6700    2.7214    1.5150 C   0  0  0  0  0  0  0  0  0  0  0  0
   -5.4532    2.5715    0.5845 O   0  0  0  0  0  0  0  0  0  0  0  0
   -5.0996    3.4865    2.7226 C   0  0  0  0  0  0  0  0  0  0  0  0
   -4.8796    4.5629    2.6387 H   0  0  0  0  0  0  0  0  0  0  0  0
   -6.1861    3.4241    2.8954 H   0  0  0  0  0  0  0  0  0  0  0  0
   -4.6369    3.1693    3.6708 H   0  0  0  0  0  0  0  0  0  0  0  0
   -3.3731    2.2391    1.5790 N   0  0  0  0  0  0  0  0  0  0  0  0
   -2.7599    1.4751    0.5247 C   0  0  2  0  0  0  0  0  0  0  0  0
   -1.5143    0.8067    1.0915 C   0  0  0  0  0  0  0  0  0  0  0  0
   -0.9247    1.2213    2.0872 O   0  0  0  0  0  0  0  0  0  0  0  0
   -2.4106    2.3553   -0.6653 C   0  0  0  0  0  0  0  0  0  0  0  0
   -2.8254    2.4352    2.4150 H   0  0  0  0  0  0  0  0  0  0  0  0
   -3.4836    0.7082    0.2278 H   0  0  0  0  0  0  0  0  0  0  0  0
   -1.6866    3.1298   -0.3871 H   0  0  0  0  0  0  0  0  0  0  0  0
   -1.9704    1.7677   -1.4777 H   0  0  0  0  0  0  0  0  0  0  0  0
   -3.3030    2.8584   -1.0531 H   0  0  0  0  0  0  0  0  0  0  0  0
   -1.1107   -0.2839    0.3303 N   0  0  0  0  0  0  0  0  0  0  0  0
    0.0490   -1.0750    0.6539 C   0  0  2  0  0  0  0  0  0  0  0  0
    1.1519   -0.7002   -0.3318 C   0  0  0  0  0  0  0  0  0  0  0  0
    1.7578    0.3684   -0.2852 O   0  0  0  0  0  0  0  0  0  0  0  0
   -0.2362   -2.5838    0.6353 C   0  0  2  0  0  0  0  0  0  0  0  0
   -0.6575   -3.0020   -0.6621 O   0  0  0  0  0  0  0  0  0  0  0  0
   -1.3240   -2.9772    1.6274 C   0  0  0  0  0  0  0  0  0  0  0  0
   -1.6733   -0.5660   -0.4691 H   0  0  0  0  0  0  0  0  0  0  0  0
    0.3647   -0.7666    1.6580 H   0  0  0  0  0  0  0  0  0  0  0  0
    0.6732   -3.1455    0.8783 H   0  0  0  0  0  0  0  0  0  0  0  0
   -0.7713   -3.9635   -0.6173 H   0  0  0  0  0  0  0  0  0  0  0  0
   -2.2590   -2.4423    1.4289 H   0  0  0  0  0  0  0  0  0  0  0  0
   -1.0139   -2.7773    2.6575 H   0  0  0  0  0  0  0  0  0  0  0  0
   -1.5524   -4.0448    1.5347 H   0  0  0  0  0  0  0  0  0  0  0  0
    1.3448   -1.6777   -1.2977 N   0  0  0  0  0  0  0  0  0  0  0  0
    2.3118   -1.5392   -2.3613 C   0  0  2  0  0  0  0  0  0  0  0  0
    3.6881   -1.8520   -1.7891 C   0  0  0  0  0  0  0  0  0  0  0  0
    3.9511   -1.7699   -0.5912 O   0  0  0  0  0  0  0  0  0  0  0  0
    2.2774   -0.1426   -2.9620 C   0  0  0  0  0  0  0  0  0  0  0  0
    0.7840   -2.5236   -1.2550 H   0  0  0  0  0  0  0  0  0  0  0  0
    2.0540   -2.2841   -3.1220 H   0  0  0  0  0  0  0  0  0  0  0  0
    2.5331    0.6173   -2.2145 H   0  0  0  0  0  0  0  0  0  0  0  0
    2.9911   -0.0479   -3.7870 H   0  0  0  0  0  0  0  0  0  0  0  0
    1.2788    0.0919   -3.3462 H   0  0  0  0  0  0  0  0  0  0  0  0
    4.5998   -2.1919   -2.7789 N   0  0  0  0  0  0  0  0  0  0  0  0
    5.9767   -2.5197   -2.4913 C   0  0  0  0  0  0  0  0  0  0  0  0
    4.2897   -2.2532   -3.7442 H   0  0  0  0  0  0  0  0  0  0  0  0
    6.5937   -1.6122   -2.5669 H   0  0  0  0  0  0  0  0  0  0  0  0
    6.0509   -2.9297   -1.4732 H   0  0  0  0  0  0  0  0  0  0  0  0
    6.3342   -3.2674   -3.2146 H   0  0  0  0  0  0  0  0  0  0  0  0
  1  3  1  0  0  0  0
  1  7  1  0  0  0  0
  1  2  2  0  0  0  0
 32 33  1  0  0  0  0
 33 41  1  0  0  0  0
 33 34  2  0  0  0  0
  8  9  1  0  0  0  0
  9 17  1  0  0  0  0
  9 10  2  0  0  0  0
 18 19  1  0  0  0  0
 19 31  1  0  0  0  0
 19 20  2  0  0  0  0
 32 35  1  0  0  0  0
  8 11  1  0  0  0  0
 21 23  1  0  0  0  0
 41 42  1  0  0  0  0
 31 32  1  0  0  0  0
  7  8  1  0  0  0  0
 18 21  1  0  0  0  0
 17 18  1  0  0  0  0
 21 22  1  0  0  0  0
  3  4  1  0  0  0  0
  3  5  1  0  0  0  0
  3  6  1  0  0  0  0
 35 38  1  0  0  0  0
 35 39  1  0  0  0  0
 35 40  1  0  0  0  0
 11 14  1  0  0  0  0
 11 15  1  0  0  0  0
 11 16  1  0  0  0  0
 23 28  1  0  0  0  0
 23 29  1  0  0  0  0
 23 30  1  0  0  0  0
 42 44  1  0  0  0  0
 42 45  1  0  0  0  0
 42 46  1  0  0  0  0
 32 37  1  0  0  0  0
  8 13  1  0  0  0  0
 18 25  1  0  0  0  0
 21 26  1  0  0  0  0
 41 43  1  0  0  0  0
  7 12  1  0  0  0  0
 31 36  1  0  0  0  0
 17 24  1  0  0  0  0
 22 27  1  0  0  0  0
M  END
$$$$

  -OEChem-05262214473D

 46 45  0     1  0  0  0  0  0999 V2000
   -4.6700    2.7214    1.5150 C   0  0  0  0  0  0  0  0  0  0  0  0
   -5.4532    2.5715    0.5845 O   0  0  0  0  0  0  0  0  0  0  0  0
   -5.0996    3.4865    2.7226 C   0  0  0  0  0  0  0  0  0  0  0  0
   -4.8796    4.5629    2.6387 H   0  0  0  0  0  0  0  0  0  0  0  0
   -6.1861    3.4241    2.8954 H   0  0  0  0  0  0  0  0  0  0  0  0
   -4.6369    3.1693    3.6708 H   0  0  0  0  0  0  0  0  0  0  0  0
   -3.3731    2.2391    1.5790 N   0  0  0  0  0  0  0  0  0  0  0  0
   -2.7599    1.4751    0.5247 C   0  0  2  0  0  0  0  0  0  0  0  0
   -1.5143    0.8067    1.0915 C   0  0  0  0  0  0  0  0  0  0  0  0
   -0.9247    1.2213    2.0872 O   0  0  0  0  0  0  0  0  0  0  0  0
   -2.4106    2.3553   -0.6653 C   0  0  0  0  0  0  0  0  0  0  0  0
   -2.8254    2.4352    2.4150 H   0  0  0  0  0  0  0  0  0  0  0  0
   -3.4836    0.7082    0.2278 H   0  0  0  0  0  0  0  0  0  0  0  0
   -1.6866    3.1298   -0.3871 H   0  0  0  0  0  0  0  0  0  0  0  0
   -1.9704    1.7677   -1.4777 H   0  0  0  0  0  0  0  0  0  0  0  0
   -3.3030    2.8584   -1.0531 H   0  0  0  0  0  0  0  0  0  0  0  0
   -1.1107   -0.2839    0.3303 N   0  0  0  0  0  0  0  0  0  0  0  0
    0.0490   -1.0750    0.6539 C   0  0  2  0  0  0  0  0  0  0  0  0
    1.1519   -0.7002   -0.3318 C   0  0  0  0  0  0  0  0  0  0  0  0
    1.9353    0.2276   -0.1401 O   0  0  0  0  0  0  0  0  0  0  0  0
   -0.2362   -2.5838    0.6353 C   0  0  2  0  0  0  0  0  0  0  0  0
   -0.6575   -3.0020   -0.6621 O   0  0  0  0  0  0  0  0  0  0  0  0
   -1.3240   -2.9772    1.6274 C   0  0  0  0  0  0  0  0  0  0  0  0
   -1.6733   -0.5660   -0.4691 H   0  0  0  0  0  0  0  0  0  0  0  0
    0.3647   -0.7666    1.6580 H   0  0  0  0  0  0  0  0  0  0  0  0
    0.6732   -3.1455    0.8783 H   0  0  0  0  0  0  0  0  0  0  0  0
   -0.7713   -3.9635   -0.6173 H   0  0  0  0  0  0  0  0  0  0  0  0
   -2.2590   -2.4423    1.4289 H   0  0  0  0  0  0  0  0  0  0  0  0
   -1.0139   -2.7773    2.6575 H   0  0  0  0  0  0  0  0  0  0  0  0
   -1.5524   -4.0448    1.5347 H   0  0  0  0  0  0  0  0  0  0  0  0
    1.1263   -1.4916   -1.4714 N   0  0  0  0  0  0  0  0  0  0  0  0
    2.0508   -1.3087   -2.5656 C   0  0  2  0  0  0  0  0  0  0  0  0
    3.3779   -1.9433   -2.1710 C   0  0  0  0  0  0  0  0  0  0  0  0
    3.7079   -2.1368   -1.0028 O   0  0  0  0  0  0  0  0  0  0  0  0
    2.2303    0.1644   -2.8979 C   0  0  0  0  0  0  0  0  0  0  0  0
    0.4301   -2.2282   -1.5386 H   0  0  0  0  0  0  0  0  0  0  0  0
    1.6320   -1.8417   -3.4261 H   0  0  0  0  0  0  0  0  0  0  0  0
    2.6491    0.7149   -2.0476 H   0  0  0  0  0  0  0  0  0  0  0  0
    2.9095    0.2999   -3.7461 H   0  0  0  0  0  0  0  0  0  0  0  0
    1.2703    0.6263   -3.1525 H   0  0  0  0  0  0  0  0  0  0  0  0
    4.1687   -2.2287   -3.2753 N   0  0  0  0  0  0  0  0  0  0  0  0
    5.4800   -2.8233   -3.1624 C   0  0  0  0  0  0  0  0  0  0  0  0
    3.8069   -2.0523   -4.2079 H   0  0  0  0  0  0  0  0  0  0  0  0
    6.2406   -2.0297   -3.1207 H   0  0  0  0  0  0  0  0  0  0  0  0
    5.5306   -3.4280   -2.2449 H   0  0  0  0  0  0  0  0  0  0  0  0
    5.6678   -3.4654   -4.0356 H   0  0  0  0  0  0  0  0  0  0  0  0
  1  3  1  0  0  0  0
  1  7  1  0  0  0  0
  1  2  2  0  0  0  0
 32 33  1  0  0  0  0
 33 41  1  0  0  0  0
 33 34  2  0  0  0  0
  8  9  1  0  0  0  0
  9 17  1  0  0  0  0
  9 10  2  0  0  0  0
 18 19  1  0  0  0  0
 19 31  1  0  0  0  0
 19 20  2  0  0  0  0
 32 35  1  0  0  0  0
  8 11  1  0  0  0  0
 21 23  1  0  0  0  0
 41 42  1  0  0  0  0
 31 32  1  0  0  0  0
  7  8  1  0  0  0  0
 18 21  1  0  0  0  0
 17 18  1  0  0  0  0
 21 22  1  0  0  0  0
  3  4  1  0  0  0  0
  3  5  1  0  0  0  0
  3  6  1  0  0  0  0
 35 38  1  0  0  0  0
 35 39  1  0  0  0  0
 35 40  1  0  0  0  0
 11 14  1  0  0  0  0
 11 15  1  0  0  0  0
 11 16  1  0  0  0  0
 23 28  1  0  0  0  0
 23 29  1  0  0  0  0
 23 30  1  0  0  0  0
 42 44  1  0  0  0  0
 42 45  1  0  0  0  0
 42 46  1  0  0  0  0
 32 37  1  0  0  0  0
  8 13  1  0  0  0  0
 18 25  1  0  0  0  0
 21 26  1  0  0  0  0
 41 43  1  0  0  0  0
  7 12  1  0  0  0  0
 31 36  1  0  0  0  0
 17 24  1  0  0  0  0
 22 27  1  0  0  0  0
M  END
$$$$

  -OEChem-05262214473D

 46 45  0     1  0  0  0  0  0999 V2000
   -4.6700    2.7214    1.5150 C   0  0  0  0  0  0  0  0  0  0  0  0
   -5.4532    2.5715    0.5845 O   0  0  0  0  0  0  0  0  0  0  0  0
   -5.0996    3.4865    2.7226 C   0  0  0  0  0  0  0  0  0  0  0  0
   -4.8796    4.5629    2.6387 H   0  0  0  0  0  0  0  0  0  0  0  0
   -6.1861    3.4241    2.8954 H   0  0  0  0  0  0  0  0  0  0  0  0
   -4.6369    3.1693    3.6708 H   0  0  0  0  0  0  0  0  0  0  0  0
   -3.3731    2.2391    1.5790 N   0  0  0  0  0  0  0  0  0  0  0  0
   -2.7599    1.4751    0.5247 C   0  0  2  0  0  0  0  0  0  0  0  0
   -1.5143    0.8067    1.0915 C   0  0  0  0  0  0  0  0  0  0  0  0
   -0.9247    1.2213    2.0872 O   0  0  0  0  0  0  0  0  0  0  0  0
   -2.4106    2.3553   -0.6653 C   0  0  0  0  0  0  0  0  0  0  0  0
   -2.8254    2.4352    2.4150 H   0  0  0  0  0  0  0  0  0  0  0  0
   -3.4836    0.7082    0.2278 H   0  0  0  0  0  0  0  0  0  0  0  0
   -1.6866    3.1298   -0.3871 H   0  0  0  0  0  0  0  0  0  0  0  0
   -1.9704    1.7677   -1.4777 H   0  0  0  0  0  0  0  0  0  0  0  0
   -3.3030    2.8584   -1.0531 H   0  0  0  0  0  0  0  0  0  0  0  0
   -1.1107   -0.2839    0.3303 N   0  0  0  0  0  0  0  0  0  0  0  0
    0.0490   -1.0750    0.6539 C   0  0  2  0  0  0  0  0  0  0  0  0
    1.1519   -0.7002   -0.3318 C   0  0  0  0  0  0  0  0  0  0  0  0
    2.0924    0.0347   -0.0376 O   0  0  0  0  0  0  0  0  0  0  0  0
   -0.2362   -2.5838    0.6353 C   0  0  2  0  0  0  0  0  0  0  0  0
   -0.6575   -3.0020   -0.6621 O   0  0  0  0  0  0  0  0  0  0  0  0
   -1.3240   -2.9772    1.6274 C   0  0  0  0  0  0  0  0  0  0  0  0
   -1.6733   -0.5660   -0.4691 H   0  0  0  0  0  0  0  0  0  0  0  0
    0.3647   -0.7666    1.6580 H   0  0  0  0  0  0  0  0  0  0  0  0
    0.6732   -3.1455    0.8783 H   0  0  0  0  0  0  0  0  0  0  0  0
   -0.7713   -3.9635   -0.6173 H   0  0  0  0  0  0  0  0  0  0  0  0
   -2.2590   -2.4423    1.4289 H   0  0  0  0  0  0  0  0  0  0  0  0
   -1.0139   -2.7773    2.6575 H   0  0  0  0  0  0  0  0  0  0  0  0
   -1.5524   -4.0448    1.5347 H   0  0  0  0  0  0  0  0  0  0  0  0
    0.9353   -1.2428   -1.5905 N   0  0  0  0  0  0  0  0  0  0  0  0
    1.8243   -1.0041   -2.7032 C   0  0  2  0  0  0  0  0  0  0  0  0
    3.0387   -1.9082   -2.5372 C   0  0  0  0  0  0  0  0  0  0  0  0
    3.3854   -2.3735   -1.4536 O   0  0  0  0  0  0  0  0  0  0  0  0
    2.2403    0.4569   -2.7756 C   0  0  0  0  0  0  0  0  0  0  0  0
    0.1196   -1.8307   -1.7349 H   0  0  0  0  0  0  0  0  0  0  0  0
    1.2789   -1.2869   -3.6101 H   0  0  0  0  0  0  0  0  0  0  0  0
    2.7881    0.7586   -1.8754 H   0  0  0  0  0  0  0  0  0  0  0  0
    2.8914    0.6419   -3.6363 H   0  0  0  0  0  0  0  0  0  0  0  0
    1.3638    1.1077   -2.8649 H   0  0  0  0  0  0  0  0  0  0  0  0
    3.7145   -2.0993   -3.7343 N   0  0  0  0  0  0  0  0  0  0  0  0
    4.9069   -2.9079   -3.8359 C   0  0  0  0  0  0  0  0  0  0  0  0
    3.3448   -1.6907   -4.5876 H   0  0  0  0  0  0  0  0  0  0  0  0
    5.7946   -2.2704   -3.7112 H   0  0  0  0  0  0  0  0  0  0  0  0
    4.8956   -3.6780   -3.0505 H   0  0  0  0  0  0  0  0  0  0  0  0
    4.9387   -3.3916   -4.8233 H   0  0  0  0  0  0  0  0  0  0  0  0
  1  3  1  0  0  0  0
  1  7  1  0  0  0  0
  1  2  2  0  0  0  0
 32 33  1  0  0  0  0
 33 41  1  0  0  0  0
 33 34  2  0  0  0  0
  8  9  1  0  0  0  0
  9 17  1  0  0  0  0
  9 10  2  0  0  0  0
 18 19  1  0  0  0  0
 19 31  1  0  0  0  0
 19 20  2  0  0  0  0
 32 35  1  0  0  0  0
  8 11  1  0  0  0  0
 21 23  1  0  0  0  0
 41 42  1  0  0  0  0
 31 32  1  0  0  0  0
  7  8  1  0  0  0  0
 18 21  1  0  0  0  0
 17 18  1  0  0  0  0
 21 22  1  0  0  0  0
  3  4  1  0  0  0  0
  3  5  1  0  0  0  0
  3  6  1  0  0  0  0
 35 38  1  0  0  0  0
 35 39  1  0  0  0  0
 35 40  1  0  0  0  0
 11 14  1  0  0  0  0
 11 15  1  0  0  0  0
 11 16  1  0  0  0  0
 23 28  1  0  0  0  0
 23 29  1  0  0  0  0
 23 30  1  0  0  0  0
 42 44  1  0  0  0  0
 42 45  1  0  0  0  0
 42 46  1  0  0  0  0
 32 37  1  0  0  0  0
  8 13  1  0  0  0  0
 18 25  1  0  0  0  0
 21 26  1  0  0  0  0
 41 43  1  0  0  0  0
  7 12  1  0  0  0  0
 31 36  1  0  0  0  0
 17 24  1  0  0  0  0
 22 27  1  0  0  0  0
M  END
$$$$

  -OEChem-05262214473D

 46 45  0     1  0  0  0  0  0999 V2000
   -4.6700    2.7214    1.5150 C   0  0  0  0  0  0  0  0  0  0  0  0
   -5.4532    2.5715    0.5845 O   0  0  0  0  0  0  0  0  0  0  0  0
   -5.0996    3.4865    2.7226 C   0  0  0  0  0  0  0  0  0  0  0  0
   -4.8796    4.5629    2.6387 H   0  0  0  0  0  0  0  0  0  0  0  0
   -6.1861    3.4241    2.8954 H   0  0  0  0  0  0  0  0  0  0  0  0
   -4.6369    3.1693    3.6708 H   0  0  0  0  0  0  0  0  0  0  0  0
   -3.3731    2.2391    1.5790 N   0  0  0  0  0  0  0  0  0  0  0  0
   -2.7599    1.4751    0.5247 C   0  0  2  0  0  0  0  0  0  0  0  0
   -1.5143    0.8067    1.0915 C   0  0  0  0  0  0  0  0  0  0  0  0
   -0.9247    1.2213    2.0872 O   0  0  0  0  0  0  0  0  0  0  0  0
   -2.4106    2.3553   -0.6653 C   0  0  0  0  0  0  0  0  0  0  0  0
   -2.8254    2.4352    2.4150 H   0  0  0  0  0  0  0  0  0  0  0  0
   -3.4836    0.7082    0.2278 H   0  0  0  0  0  0  0  0  0  0  0  0
   -1.6866    3.1298   -0.3871 H   0  0  0  0  0  0  0  0  0  0  0  0
   -1.9704    1.7677   -1.4777 H   0  0  0  0  0  0  0  0  0  0  0  0
   -3.3030    2.8584   -1.0531 H   0  0  0  0  0  0  0  0  0  0  0  0
   -1.1107   -0.2839    0.3303 N   0  0  0  0  0  0  0  0  0  0  0  0
    0.0490   -1.0750    0.6539 C   0  0  2  0  0  0  0  0  0  0  0  0
    1.1519   -0.7002   -0.3318 C   0  0  0  0  0  0  0  0  0  0  0  0
    2.2185   -0.1970    0.0153 O   0  0  0  0  0  0  0  0  0  0  0  0
   -0.2362   -2.5838    0.6353 C   0  0  2  0  0  0  0  0  0  0  0  0
   -0.6575   -3.0020   -0.6621 O   0  0  0  0  0  0  0  0  0  0  0  0
   -1.3240   -2.9772    1.6274 C   0  0  0  0  0  0  0  0  0  0  0  0
   -1.6733   -0.5660   -0.4691 H   0  0  0  0  0  0  0  0  0  0  0  0
    0.3647   -0.7666    1.6580 H   0  0  0  0  0  0  0  0  0  0  0  0
    0.6732   -3.1455    0.8783 H   0  0  0  0  0  0  0  0  0  0  0  0
   -0.7713   -3.9635   -0.6173 H   0  0  0  0  0  0  0  0  0  0  0  0
   -2.2590   -2.4423    1.4289 H   0  0  0  0  0  0  0  0  0  0  0  0
   -1.0139   -2.7773    2.6575 H   0  0  0  0  0  0  0  0  0  0  0  0
   -1.5524   -4.0448    1.5347 H   0  0  0  0  0  0  0  0  0  0  0  0
    0.7849   -0.9482   -1.6469 N   0  0  0  0  0  0  0  0  0  0  0  0
    1.6477   -0.6463   -2.7647 C   0  0  2  0  0  0  0  0  0  0  0  0
    2.6936   -1.7490   -2.8628 C   0  0  0  0  0  0  0  0  0  0  0  0
    3.0058   -2.4639   -1.9128 O   0  0  0  0  0  0  0  0  0  0  0  0
    2.3065    0.7148   -2.6033 C   0  0  0  0  0  0  0  0  0  0  0  0
   -0.1263   -1.3581   -1.8304 H   0  0  0  0  0  0  0  0  0  0  0  0
    1.0190   -0.6576   -3.6617 H   0  0  0  0  0  0  0  0  0  0  0  0
    2.9406    0.7454   -1.7098 H   0  0  0  0  0  0  0  0  0  0  0  0
    2.9381    0.9546   -3.4651 H   0  0  0  0  0  0  0  0  0  0  0  0
    1.5528    1.5032   -2.5031 H   0  0  0  0  0  0  0  0  0  0  0  0
    3.2683   -1.8126   -4.1245 N   0  0  0  0  0  0  0  0  0  0  0  0
    4.2964   -2.7678   -4.4658 C   0  0  0  0  0  0  0  0  0  0  0  0
    2.9347   -1.1933   -4.8573 H   0  0  0  0  0  0  0  0  0  0  0  0
    5.2860   -2.3177   -4.2984 H   0  0  0  0  0  0  0  0  0  0  0  0
    4.1892   -3.6626   -3.8350 H   0  0  0  0  0  0  0  0  0  0  0  0
    4.1968   -3.0512   -5.5240 H   0  0  0  0  0  0  0  0  0  0  0  0
  1  3  1  0  0  0  0
  1  7  1  0  0  0  0
  1  2  2  0  0  0  0
 32 33  1  0  0  0  0
 33 41  1  0  0  0  0
 33 34  2  0  0  0  0
  8  9  1  0  0  0  0
  9 17  1  0  0  0  0
  9 10  2  0  0  0  0
 18 19  1  0  0  0  0
 19 31  1  0  0  0  0
 19 20  2  0  0  0  0
 32 35  1  0  0  0  0
  8 11  1  0  0  0  0
 21 23  1  0  0  0  0
 41 42  1  0  0  0  0
 31 32  1  0  0  0  0
  7  8  1  0  0  0  0
 18 21  1  0  0  0  0
 17 18  1  0  0  0  0
 21 22  1  0  0  0  0
  3  4  1  0  0  0  0
  3  5  1  0  0  0  0
  3  6  1  0  0  0  0
 35 38  1  0  0  0  0
 35 39  1  0  0  0  0
 35 40  1  0  0  0  0
 11 14  1  0  0  0  0
 11 15  1  0  0  0  0
 11 16  1  0  0  0  0
 23 28  1  0  0  0  0
 23 29  1  0  0  0  0
 23 30  1  0  0  0  0
 42 44  1  0  0  0  0
 42 45  1  0  0  0  0
 42 46  1  0  0  0  0
 32 37  1  0  0  0  0
  8 13  1  0  0  0  0
 18 25  1  0  0  0  0
 21 26  1  0  0  0  0
 41 43  1  0  0  0  0
  7 12  1  0  0  0  0
 31 36  1  0  0  0  0
 17 24  1  0  0  0  0
 22 27  1  0  0  0  0
M  END
$$$$

  -OEChem-05262214473D

 46 45  0     1  0  0  0  0  0999 V2000
   -4.6700    2.7214    1.5150 C   0  0  0  0  0  0  0  0  0  0  0  0
   -5.4532    2.5715    0.5845 O   0  0  0  0  0  0  0  0  0  0  0  0
   -5.0996    3.4865    2.7226 C   0  0  0  0  0  0  0  0  0  0  0  0
   -4.8796    4.5629    2.6387 H   0  0  0  0  0  0  0  0  0  0  0  0
   -6.1861    3.4241    2.8954 H   0  0  0  0  0  0  0  0  0  0  0  0
   -4.6369    3.1693    3.6708 H   0  0  0  0  0  0  0  0  0  0  0  0
   -3.3731    2.2391    1.5790 N   0  0  0  0  0  0  0  0  0  0  0  0
   -2.7599    1.4751    0.5247 C   0  0  2  0  0  0  0  0  0  0  0  0
   -1.5143    0.8067    1.0915 C   0  0  0  0  0  0  0  0  0  0  0  0
   -0.9247    1.2213    2.0872 O   0  0  0  0  0  0  0  0  0  0  0  0
   -2.4106    2.3553   -0.6653 C   0  0  0  0  0  0  0  0  0  0  0  0
   -2.8254    2.4352    2.4150 H   0  0  0  0  0  0  0  0  0  0  0  0
   -3.4836    0.7082    0.2278 H   0  0  0  0  0  0  0  0  0  0  0  0
   -1.6866    3.1298   -0.3871 H   0  0  0  0  0  0  0  0  0  0  0  0
   -1.9704    1.7677   -1.4777 H   0  0  0  0  0  0  0  0  0  0  0  0
   -3.3030    2.8584   -1.0531 H   0  0  0  0  0  0  0  0  0  0  0  0
   -1.1107   -0.2839    0.3303 N   0  0  0  0  0  0  0  0  0  0  0  0
    0.0490   -1.0750    0.6539 C   0  0  2  0  0  0  0  0  0  0  0  0
    1.1519   -0.7002   -0.3318 C   0  0  0  0  0  0  0  0  0  0  0  0
    2.3048   -0.4518    0.0151 O   0  0  0  0  0  0  0  0  0  0  0  0
   -0.2362   -2.5838    0.6353 C   0  0  2  0  0  0  0  0  0  0  0  0
   -0.6575   -3.0020   -0.6621 O   0  0  0  0  0  0  0  0  0  0  0  0
   -1.3240   -2.9772    1.6274 C   0  0  0  0  0  0  0  0  0  0  0  0
   -1.6733   -0.5660   -0.4691 H   0  0  0  0  0  0  0  0  0  0  0  0
    0.3647   -0.7666    1.6580 H   0  0  0  0  0  0  0  0  0  0  0  0
    0.6732   -3.1455    0.8783 H   0  0  0  0  0  0  0  0  0  0  0  0
   -0.7713   -3.9635   -0.6173 H   0  0  0  0  0  0  0  0  0  0  0  0
   -2.2590   -2.4423    1.4289 H   0  0  0  0  0  0  0  0  0  0  0  0
   -1.0139   -2.7773    2.6575 H   0  0  0  0  0  0  0  0  0  0  0  0
   -1.5524   -4.0448    1.5347 H   0  0  0  0  0  0  0  0  0  0  0  0
    0.6852   -0.6280   -1.6367 N   0  0  0  0  0  0  0  0  0  0  0  0
    1.5331   -0.2596   -2.7460 C   0  0  2  0  0  0  0  0  0  0  0  0
    2.3662   -1.4767   -3.1256 C   0  0  0  0  0  0  0  0  0  0  0  0
    2.5947   -2.4019   -2.3491 O   0  0  0  0  0  0  0  0  0  0  0  0
    2.4246    0.9207   -2.3929 C   0  0  0  0  0  0  0  0  0  0  0  0
   -0.2909   -0.8426   -1.8185 H   0  0  0  0  0  0  0  0  0  0  0  0
    0.8698    0.0034   -3.5773 H   0  0  0  0  0  0  0  0  0  0  0  0
    3.0963    0.6761   -1.5620 H   0  0  0  0  0  0  0  0  0  0  0  0
    3.0464    1.2169   -3.2442 H   0  0  0  0  0  0  0  0  0  0  0  0
    1.8245    1.7860   -2.0915 H   0  0  0  0  0  0  0  0  0  0  0  0
    2.8604   -1.3880   -4.4195 N   0  0  0  0  0  0  0  0  0  0  0  0
    3.6900   -2.4126   -5.0092 C   0  0  0  0  0  0  0  0  0  0  0  0
    2.6046   -0.5937   -4.9987 H   0  0  0  0  0  0  0  0  0  0  0  0
    4.7495   -2.1686   -4.8420 H   0  0  0  0  0  0  0  0  0  0  0  0
    3.4596   -3.3829   -4.5450 H   0  0  0  0  0  0  0  0  0  0  0  0
    3.4925   -2.4672   -6.0900 H   0  0  0  0  0  0  0  0  0  0  0  0
  1  3  1  0  0  0  0
  1  7  1  0  0  0  0
  1  2  2  0  0  0  0
 32 33  1  0  0  0  0
 33 41  1  0  0  0  0
 33 34  2  0  0  0  0
  8  9  1  0  0  0  0
  9 17  1  0  0  0  0
  9 10  2  0  0  0  0
 18 19  1  0  0  0  0
 19 31  1  0  0  0  0
 19 20  2  0  0  0  0
 32 35  1  0  0  0  0
  8 11  1  0  0  0  0
 21 23  1  0  0  0  0
 41 42  1  0  0  0  0
 31 32  1  0  0  0  0
  7  8  1  0  0  0  0
 18 21  1  0  0  0  0
 17 18  1  0  0  0  0
 21 22  1  0  0  0  0
  3  4  1  0  0  0  0
  3  5  1  0  0  0  0
  3  6  1  0  0  0  0
 35 38  1  0  0  0  0
 35 39  1  0  0  0  0
 35 40  1  0  0  0  0
 11 14  1  0  0  0  0
 11 15  1  0  0  0  0
 11 16  1  0  0  0  0
 23 28  1  0  0  0  0
 23 29  1  0  0  0  0
 23 30  1  0  0  0  0
 42 44  1  0  0  0  0
 42 45  1  0  0  0  0
 42 46  1  0  0  0  0
 32 37  1  0  0  0  0
  8 13  1  0  0  0  0
 18 25  1  0  0  0  0
 21 26  1  0  0  0  0
 41 43  1  0  0  0  0
  7 12  1  0  0  0  0
 31 36  1  0  0  0  0
 17 24  1  0  0  0  0
 22 27  1  0  0  0  0
M  END
$$$$

  -OEChem-05262214473D

 46 45  0     1  0  0  0  0  0999 V2000
   -4.6700    2.7214    1.5150 C   0  0  0  0  0  0  0  0  0  0  0  0
   -5.4532    2.5715    0.5845 O   0  0  0  0  0  0  0  0  0  0  0  0
   -5.0996    3.4865    2.7226 C   0  0  0  0  0  0  0  0  0  0  0  0
   -4.8796    4.5629    2.6387 H   0  0  0  0  0  0  0  0  0  0  0  0
   -6.1861    3.4241    2.8954 H   0  0  0  0  0  0  0  0  0  0  0  0
   -4.6369    3.1693    3.6708 H   0  0  0  0  0  0  0  0  0  0  0  0
   -3.3731    2.2391    1.5790 N   0  0  0  0  0  0  0  0  0  0  0  0
   -2.7599    1.4751    0.5247 C   0  0  2  0  0  0  0  0  0  0  0  0
   -1.5143    0.8067    1.0915 C   0  0  0  0  0  0  0  0  0  0  0  0
   -0.9247    1.2213    2.0872 O   0  0  0  0  0  0  0  0  0  0  0  0
   -2.4106    2.3553   -0.6653 C   0  0  0  0  0  0  0  0  0  0  0  0
   -2.8254    2.4352    2.4150 H   0  0  0  0  0  0  0  0  0  0  0  0
   -3.4836    0.7082    0.2278 H   0  0  0  0  0  0  0  0  0  0  0  0
   -1.6866    3.1298   -0.3871 H   0  0  0  0  0  0  0  0  0  0  0  0
   -1.9704    1.7677   -1.4777 H   0  0  0  0  0  0  0  0  0  0  0  0
   -3.3030    2.8584   -1.0531 H   0  0  0  0  0  0  0  0  0  0  0  0
   -1.1107   -0.2839    0.3303 N   0  0  0  0  0  0  0  0  0  0  0  0
    0.0490   -1.0750    0.6539 C   0  0  2  0  0  0  0  0  0  0  0  0
    1.1519   -0.7002   -0.3318 C   0  0  0  0  0  0  0  0  0  0  0  0
    2.3457   -0.7123   -0.0383 O   0  0  0  0  0  0  0  0  0  0  0  0
   -0.2362   -2.5838    0.6353 C   0  0  2  0  0  0  0  0  0  0  0  0
   -0.6575   -3.0020   -0.6621 O   0  0  0  0  0  0  0  0  0  0  0  0
   -1.3240   -2.9772    1.6274 C   0  0  0  0  0  0  0  0  0  0  0  0
   -1.6733   -0.5660   -0.4691 H   0  0  0  0  0  0  0  0  0  0  0  0
    0.3647   -0.7666    1.6580 H   0  0  0  0  0  0  0  0  0  0  0  0
    0.6732   -3.1455    0.8783 H   0  0  0  0  0  0  0  0  0  0  0  0
   -0.7713   -3.9635   -0.6173 H   0  0  0  0  0  0  0  0  0  0  0  0
   -2.2590   -2.4423    1.4289 H   0  0  0  0  0  0  0  0  0  0  0  0
   -1.0139   -2.7773    2.6575 H   0  0  0  0  0  0  0  0  0  0  0  0
   -1.5524   -4.0448    1.5347 H   0  0  0  0  0  0  0  0  0  0  0  0
    0.6431   -0.3040   -1.5605 N   0  0  0  0  0  0  0  0  0  0  0  0
    1.4881    0.1295   -2.6483 C   0  0  2  0  0  0  0  0  0  0  0  0
    2.0787   -1.1098   -3.3077 C   0  0  0  0  0  0  0  0  0  0  0  0
    2.1803   -2.1916   -2.7328 O   0  0  0  0  0  0  0  0  0  0  0  0
    2.5865    1.0604   -2.1587 C   0  0  0  0  0  0  0  0  0  0  0  0
   -0.3629   -0.3194   -1.7002 H   0  0  0  0  0  0  0  0  0  0  0  0
    0.8416    0.6510   -3.3626 H   0  0  0  0  0  0  0  0  0  0  0  0
    3.2445    0.5555   -1.4420 H   0  0  0  0  0  0  0  0  0  0  0  0
    3.2089    1.4108   -2.9887 H   0  0  0  0  0  0  0  0  0  0  0  0
    2.1604    1.9367   -1.6584 H   0  0  0  0  0  0  0  0  0  0  0  0
    2.5186   -0.8545   -4.5990 N   0  0  0  0  0  0  0  0  0  0  0  0
    3.1291   -1.8665   -5.4291 C   0  0  0  0  0  0  0  0  0  0  0  0
    2.3770    0.0671   -5.0021 H   0  0  0  0  0  0  0  0  0  0  0  0
    4.2216   -1.8332   -5.3051 H   0  0  0  0  0  0  0  0  0  0  0  0
    2.7565   -2.8580   -5.1321 H   0  0  0  0  0  0  0  0  0  0  0  0
    2.8739   -1.6794   -6.4826 H   0  0  0  0  0  0  0  0  0  0  0  0
  1  3  1  0  0  0  0
  1  7  1  0  0  0  0
  1  2  2  0  0  0  0
 32 33  1  0  0  0  0
 33 41  1  0  0  0  0
 33 34  2  0  0  0  0
  8  9  1  0  0  0  0
  9 17  1  0  0  0  0
  9 10  2  0  0  0  0
 18 19  1  0  0  0  0
 19 31  1  0  0  0  0
 19 20  2  0  0  0  0
 32 35  1  0  0  0  0
  8 11  1  0  0  0  0
 21 23  1  0  0  0  0
 41 42  1  0  0  0  0
 31 32  1  0  0  0  0
  7  8  1  0  0  0  0
 18 21  1  0  0  0  0
 17 18  1  0  0  0  0
 21 22  1  0  0  0  0
  3  4  1  0  0  0  0
  3  5  1  0  0  0  0
  3  6  1  0  0  0  0
 35 38  1  0  0  0  0
 35 39  1  0  0  0  0
 35 40  1  0  0  0  0
 11 14  1  0  0  0  0
 11 15  1  0  0  0  0
 11 16  1  0  0  0  0
 23 28  1  0  0  0  0
 23 29  1  0  0  0  0
 23 30  1  0  0  0  0
 42 44  1  0  0  0  0
 42 45  1  0  0  0  0
 42 46  1  0  0  0  0
 32 37  1  0  0  0  0
  8 13  1  0  0  0  0
 18 25  1  0  0  0  0
 21 26  1  0  0  0  0
 41 43  1  0  0  0  0
  7 12  1  0  0  0  0
 31 36  1  0  0  0  0
 17 24  1  0  0  0  0
 22 27  1  0  0  0  0
M  END
$$$$

  -OEChem-05262214473D

 46 45  0     1  0  0  0  0  0999 V2000
   -4.6700    2.7214    1.5150 C   0  0  0  0  0  0  0  0  0  0  0  0
   -5.4532    2.5715    0.5845 O   0  0  0  0  0  0  0  0  0  0  0  0
   -5.0996    3.4865    2.7226 C   0  0  0  0  0  0  0  0  0  0  0  0
   -4.8796    4.5629    2.6387 H   0  0  0  0  0  0  0  0  0  0  0  0
   -6.1861    3.4241    2.8954 H   0  0  0  0  0  0  0  0  0  0  0  0
   -4.6369    3.1693    3.6708 H   0  0  0  0  0  0  0  0  0  0  0  0
   -3.3731    2.2391    1.5790 N   0  0  0  0  0  0  0  0  0  0  0  0
   -2.7599    1.4751    0.5247 C   0  0  2  0  0  0  0  0  0  0  0  0
   -1.5143    0.8067    1.0915 C   0  0  0  0  0  0  0  0  0  0  0  0
   -0.9247    1.2213    2.0872 O   0  0  0  0  0  0  0  0  0  0  0  0
   -2.4106    2.3553   -0.6653 C   0  0  0  0  0  0  0  0  0  0  0  0
   -2.8254    2.4352    2.4150 H   0  0  0  0  0  0  0  0  0  0  0  0
   -3.4836    0.7082    0.2278 H   0  0  0  0  0  0  0  0  0  0  0  0
   -1.6866    3.1298   -0.3871 H   0  0  0  0  0  0  0  0  0  0  0  0
   -1.9704    1.7677   -1.4777 H   0  0  0  0  0  0  0  0  0  0  0  0
   -3.3030    2.8584   -1.0531 H   0  0  0  0  0  0  0  0  0  0  0  0
   -1.1107   -0.2839    0.3303 N   0  0  0  0  0  0  0  0  0  0  0  0
    0.0490   -1.0750    0.6539 C   0  0  2  0  0  0  0  0  0  0  0  0
    1.1519   -0.7002   -0.3318 C   0  0  0  0  0  0  0  0  0  0  0  0
    2.3381   -0.9607   -0.1412 O   0  0  0  0  0  0  0  0  0  0  0  0
   -0.2362   -2.5838    0.6353 C   0  0  2  0  0  0  0  0  0  0  0  0
   -0.6575   -3.0020   -0.6621 O   0  0  0  0  0  0  0  0  0  0  0  0
   -1.3240   -2.9772    1.6274 C   0  0  0  0  0  0  0  0  0  0  0  0
   -1.6733   -0.5660   -0.4691 H   0  0  0  0  0  0  0  0  0  0  0  0
    0.3647   -0.7666    1.6580 H   0  0  0  0  0  0  0  0  0  0  0  0
    0.6732   -3.1455    0.8783 H   0  0  0  0  0  0  0  0  0  0  0  0
   -0.7713   -3.9635   -0.6173 H   0  0  0  0  0  0  0  0  0  0  0  0
   -2.2590   -2.4423    1.4289 H   0  0  0  0  0  0  0  0  0  0  0  0
   -1.0139   -2.7773    2.6575 H   0  0  0  0  0  0  0  0  0  0  0  0
   -1.5524   -4.0448    1.5347 H   0  0  0  0  0  0  0  0  0  0  0  0
    0.6615    0.0018   -1.4237 N   0  0  0  0  0  0  0  0  0  0  0  0
    1.5160    0.4947   -2.4783 C   0  0  2  0  0  0  0  0  0  0  0  0
    1.8509   -0.6732   -3.3967 C   0  0  0  0  0  0  0  0  0  0  0  0
    1.7908   -1.8474   -3.0378 O   0  0  0  0  0  0  0  0  0  0  0  0
    2.7811    1.1245   -1.9166 C   0  0  0  0  0  0  0  0  0  0  0  0
   -0.3375    0.1759   -1.4835 H   0  0  0  0  0  0  0  0  0  0  0  0
    0.9363    1.2411   -3.0323 H   0  0  0  0  0  0  0  0  0  0  0  0
    3.3750    0.3918   -1.3582 H   0  0  0  0  0  0  0  0  0  0  0  0
    3.4145    1.5232   -2.7159 H   0  0  0  0  0  0  0  0  0  0  0  0
    2.5376    1.9451   -1.2331 H   0  0  0  0  0  0  0  0  0  0  0  0
    2.2663   -0.2484   -4.6509 N   0  0  0  0  0  0  0  0  0  0  0  0
    2.6519   -1.1667   -5.6969 C   0  0  0  0  0  0  0  0  0  0  0  0
    2.2674    0.7440   -4.8674 H   0  0  0  0  0  0  0  0  0  0  0  0
    3.7383   -1.3343   -5.6562 H   0  0  0  0  0  0  0  0  0  0  0  0
    2.1278   -2.1235   -5.5563 H   0  0  0  0  0  0  0  0  0  0  0  0
    2.3831   -0.7417   -6.6752 H   0  0  0  0  0  0  0  0  0  0  0  0
  1  3  1  0  0  0  0
  1  7  1  0  0  0  0
  1  2  2  0  0  0  0
 32 33  1  0  0  0  0
 33 41  1  0  0  0  0
 33 34  2  0  0  0  0
  8  9  1  0  0  0  0
  9 17  1  0  0  0  0
  9 10  2  0  0  0  0
 18 19  1  0  0  0  0
 19 31  1  0  0  0  0
 19 20  2  0  0  0  0
 32 35  1  0  0  0  0
  8 11  1  0  0  0  0
 21 23  1  0  0  0  0
 41 42  1  0  0  0  0
 31 32  1  0  0  0  0
  7  8  1  0  0  0  0
 18 21  1  0  0  0  0
 17 18  1  0  0  0  0
 21 22  1  0  0  0  0
  3  4  1  0  0  0  0
  3  5  1  0  0  0  0
  3  6  1  0  0  0  0
 35 38  1  0  0  0  0
 35 39  1  0  0  0  0
 35 40  1  0  0  0  0
 11 14  1  0  0  0  0
 11 15  1  0  0  0  0
 11 16  1  0  0  0  0
 23 28  1  0  0  0  0
 23 29  1  0  0  0  0
 23 30  1  0  0  0  0
 42 44  1  0  0  0  0
 42 45  1  0  0  0  0
 42 46  1  0  0  0  0
 32 37  1  0  0  0  0
  8 13  1  0  0  0  0
 18 25  1  0  0  0  0
 21 26  1  0  0  0  0
 41 43  1  0  0  0  0
  7 12  1  0  0  0  0
 31 36  1  0  0  0  0
 17 24  1  0  0  0  0
 22 27  1  0  0  0  0
M  END
$$$$

  -OEChem-05262214473D

 46 45  0     1  0  0  0  0  0999 V2000
   -4.6700    2.7214    1.5150 C   0  0  0  0  0  0  0  0  0  0  0  0
   -5.4532    2.5715    0.5845 O   0  0  0  0  0  0  0  0  0  0  0  0
   -5.0996    3.4865    2.7226 C   0  0  0  0  0  0  0  0  0  0  0  0
   -4.8796    4.5629    2.6387 H   0  0  0  0  0  0  0  0  0  0  0  0
   -6.1861    3.4241    2.8954 H   0  0  0  0  0  0  0  0  0  0  0  0
   -4.6369    3.1693    3.6708 H   0  0  0  0  0  0  0  0  0  0  0  0
   -3.3731    2.2391    1.5790 N   0  0  0  0  0  0  0  0  0  0  0  0
   -2.7599    1.4751    0.5247 C   0  0  2  0  0  0  0  0  0  0  0  0
   -1.5143    0.8067    1.0915 C   0  0  0  0  0  0  0  0  0  0  0  0
   -0.9247    1.2213    2.0872 O   0  0  0  0  0  0  0  0  0  0  0  0
   -2.4106    2.3553   -0.6653 C   0  0  0  0  0  0  0  0  0  0  0  0
   -2.8254    2.4352    2.4150 H   0  0  0  0  0  0  0  0  0  0  0  0
   -3.4836    0.7082    0.2278 H   0  0  0  0  0  0  0  0  0  0  0  0
   -1.6866    3.1298   -0.3871 H   0  0  0  0  0  0  0  0  0  0  0  0
   -1.9704    1.7677   -1.4777 H   0  0  0  0  0  0  0  0  0  0  0  0
   -3.3030    2.8584   -1.0531 H   0  0  0  0  0  0  0  0  0  0  0  0
   -1.1107   -0.2839    0.3303 N   0  0  0  0  0  0  0  0  0  0  0  0
    0.0490   -1.0750    0.6539 C   0  0  2  0  0  0  0  0  0  0  0  0
    1.1519   -0.7002   -0.3318 C   0  0  0  0  0  0  0  0  0  0  0  0
    2.2828   -1.1802   -0.2866 O   0  0  0  0  0  0  0  0  0  0  0  0
   -0.2362   -2.5838    0.6353 C   0  0  2  0  0  0  0  0  0  0  0  0
   -0.6575   -3.0020   -0.6621 O   0  0  0  0  0  0  0  0  0  0  0  0
   -1.3240   -2.9772    1.6274 C   0  0  0  0  0  0  0  0  0  0  0  0
   -1.6733   -0.5660   -0.4691 H   0  0  0  0  0  0  0  0  0  0  0  0
    0.3647   -0.7666    1.6580 H   0  0  0  0  0  0  0  0  0  0  0  0
    0.6732   -3.1455    0.8783 H   0  0  0  0  0  0  0  0  0  0  0  0
   -0.7713   -3.9635   -0.6173 H   0  0  0  0  0  0  0  0  0  0  0  0
   -2.2590   -2.4423    1.4289 H   0  0  0  0  0  0  0  0  0  0  0  0
   -1.0139   -2.7773    2.6575 H   0  0  0  0  0  0  0  0  0  0  0  0
   -1.5524   -4.0448    1.5347 H   0  0  0  0  0  0  0  0  0  0  0  0
    0.7390    0.2685   -1.2355 N   0  0  0  0  0  0  0  0  0  0  0  0
    1.6148    0.8109   -2.2476 C   0  0  2  0  0  0  0  0  0  0  0  0
    1.6981   -0.1968   -3.3865 C   0  0  0  0  0  0  0  0  0  0  0  0
    1.4527   -1.3928   -3.2433 O   0  0  0  0  0  0  0  0  0  0  0  0
    2.9952    1.1086   -1.6831 C   0  0  0  0  0  0  0  0  0  0  0  0
   -0.2164    0.6095   -1.1831 H   0  0  0  0  0  0  0  0  0  0  0  0
    1.1474    1.7334   -2.6089 H   0  0  0  0  0  0  0  0  0  0  0  0
    3.4791    0.1961   -1.3161 H   0  0  0  0  0  0  0  0  0  0  0  0
    3.6492    1.5463   -2.4445 H   0  0  0  0  0  0  0  0  0  0  0  0
    2.9303    1.8106   -0.8448 H   0  0  0  0  0  0  0  0  0  0  0  0
    2.1206    0.3889   -4.5717 N   0  0  0  0  0  0  0  0  0  0  0  0
    2.2910   -0.3608   -5.7943 C   0  0  0  0  0  0  0  0  0  0  0  0
    2.2833    1.3910   -4.6036 H   0  0  0  0  0  0  0  0  0  0  0  0
    3.3326   -0.7060   -5.8712 H   0  0  0  0  0  0  0  0  0  0  0  0
    1.6164   -1.2296   -5.7887 H   0  0  0  0  0  0  0  0  0  0  0  0
    2.0536    0.2822   -6.6547 H   0  0  0  0  0  0  0  0  0  0  0  0
  1  3  1  0  0  0  0
  1  7  1  0  0  0  0
  1  2  2  0  0  0  0
 32 33  1  0  0  0  0
 33 41  1  0  0  0  0
 33 34  2  0  0  0  0
  8  9  1  0  0  0  0
  9 17  1  0  0  0  0
  9 10  2  0  0  0  0
 18 19  1  0  0  0  0
 19 31  1  0  0  0  0
 19 20  2  0  0  0  0
 32 35  1  0  0  0  0
  8 11  1  0  0  0  0
 21 23  1  0  0  0  0
 41 42  1  0  0  0  0
 31 32  1  0  0  0  0
  7  8  1  0  0  0  0
 18 21  1  0  0  0  0
 17 18  1  0  0  0  0
 21 22  1  0  0  0  0
  3  4  1  0  0  0  0
  3  5  1  0  0  0  0
  3  6  1  0  0  0  0
 35 38  1  0  0  0  0
 35 39  1  0  0  0  0
 35 40  1  0  0  0  0
 11 14  1  0  0  0  0
 11 15  1  0  0  0  0
 11 16  1  0  0  0  0
 23 28  1  0  0  0  0
 23 29  1  0  0  0  0
 23 30  1  0  0  0  0
 42 44  1  0  0  0  0
 42 45  1  0  0  0  0
 42 46  1  0  0  0  0
 32 37  1  0  0  0  0
  8 13  1  0  0  0  0
 18 25  1  0  0  0  0
 21 26  1  0  0  0  0
 41 43  1  0  0  0  0
  7 12  1  0  0  0  0
 31 36  1  0  0  0  0
 17 24  1  0  0  0  0
 22 27  1  0  0  0  0
M  END
$$$$

  -OEChem-05262214473D

 46 45  0     1  0  0  0  0  0999 V2000
   -4.6700    2.7214    1.5150 C   0  0  0  0  0  0  0  0  0  0  0  0
   -5.4532    2.5715    0.5845 O   0  0  0  0  0  0  0  0  0  0  0  0
   -5.0996    3.4865    2.7226 C   0  0  0  0  0  0  0  0  0  0  0  0
   -4.8796    4.5629    2.6387 H   0  0  0  0  0  0  0  0  0  0  0  0
   -6.1861    3.4241    2.8954 H   0  0  0  0  0  0  0  0  0  0  0  0
   -4.6369    3.1693    3.6708 H   0  0  0  0  0  0  0  0  0  0  0  0
   -3.3731    2.2391    1.5790 N   0  0  0  0  0  0  0  0  0  0  0  0
   -2.7599    1.4751    0.5247 C   0  0  2  0  0  0  0  0  0  0  0  0
   -1.5143    0.8067    1.0915 C   0  0  0  0  0  0  0  0  0  0  0  0
   -0.9247    1.2213    2.0872 O   0  0  0  0  0  0  0  0  0  0  0  0
   -2.4106    2.3553   -0.6653 C   0  0  0  0  0  0  0  0  0  0  0  0
   -2.8254    2.4352    2.4150 H   0  0  0  0  0  0  0  0  0  0  0  0
   -3.4836    0.7082    0.2278 H   0  0  0  0  0  0  0  0  0  0  0  0
   -1.6866    3.1298   -0.3871 H   0  0  0  0  0  0  0  0  0  0  0  0
   -1.9704    1.7677   -1.4777 H   0  0  0  0  0  0  0  0  0  0  0  0
   -3.3030    2.8584   -1.0531 H   0  0  0  0  0  0  0  0  0  0  0  0
   -1.1107   -0.2839    0.3303 N   0  0  0  0  0  0  0  0  0  0  0  0
    0.0490   -1.0750    0.6539 C   0  0  2  0  0  0  0  0  0  0  0  0
    1.1519   -0.7002   -0.3318 C   0  0  0  0  0  0  0  0  0  0  0  0
    2.1834   -1.3558   -0.4646 O   0  0  0  0  0  0  0  0  0  0  0  0
   -0.2362   -2.5838    0.6353 C   0  0  2  0  0  0  0  0  0  0  0  0
   -0.6575   -3.0020   -0.6621 O   0  0  0  0  0  0  0  0  0  0  0  0
   -1.3240   -2.9772    1.6274 C   0  0  0  0  0  0  0  0  0  0  0  0
   -1.6733   -0.5660   -0.4691 H   0  0  0  0  0  0  0  0  0  0  0  0
    0.3647   -0.7666    1.6580 H   0  0  0  0  0  0  0  0  0  0  0  0
    0.6732   -3.1455    0.8783 H   0  0  0  0  0  0  0  0  0  0  0  0
   -0.7713   -3.9635   -0.6173 H   0  0  0  0  0  0  0  0  0  0  0  0
   -2.2590   -2.4423    1.4289 H   0  0  0  0  0  0  0  0  0  0  0  0
   -1.0139   -2.7773    2.6575 H   0  0  0  0  0  0  0  0  0  0  0  0
   -1.5524   -4.0448    1.5347 H   0  0  0  0  0  0  0  0  0  0  0  0
    0.8705    0.4780   -1.0088 N   0  0  0  0  0  0  0  0  0  0  0  0
    1.7777    1.0567   -1.9718 C   0  0  2  0  0  0  0  0  0  0  0  0
    1.6309    0.2870   -3.2778 C   0  0  0  0  0  0  0  0  0  0  0  0
    1.1891   -0.8587   -3.3352 O   0  0  0  0  0  0  0  0  0  0  0  0
    3.2141    1.0138   -1.4742 C   0  0  0  0  0  0  0  0  0  0  0  0
   -0.0078    0.9519   -0.8195 H   0  0  0  0  0  0  0  0  0  0  0  0
    1.4606    2.0945   -2.1212 H   0  0  0  0  0  0  0  0  0  0  0  0
    3.5496   -0.0181   -1.3187 H   0  0  0  0  0  0  0  0  0  0  0  0
    3.8971    1.4786   -2.1929 H   0  0  0  0  0  0  0  0  0  0  0  0
    3.3119    1.5424   -0.5198 H   0  0  0  0  0  0  0  0  0  0  0  0
    2.0914    1.0140   -4.3666 N   0  0  0  0  0  0  0  0  0  0  0  0
    2.0709    0.4962   -5.7147 C   0  0  0  0  0  0  0  0  0  0  0  0
    2.4235    1.9640   -4.2288 H   0  0  0  0  0  0  0  0  0  0  0  0
    3.0321    0.0090   -5.9356 H   0  0  0  0  0  0  0  0  0  0  0  0
    1.2571   -0.2372   -5.8134 H   0  0  0  0  0  0  0  0  0  0  0  0
    1.9077    1.3225   -6.4223 H   0  0  0  0  0  0  0  0  0  0  0  0
  1  3  1  0  0  0  0
  1  7  1  0  0  0  0
  1  2  2  0  0  0  0
 32 33  1  0  0  0  0
 33 41  1  0  0  0  0
 33 34  2  0  0  0  0
  8  9  1  0  0  0  0
  9 17  1  0  0  0  0
  9 10  2  0  0  0  0
 18 19  1  0  0  0  0
 19 31  1  0  0  0  0
 19 20  2  0  0  0  0
 32 35  1  0  0  0  0
  8 11  1  0  0  0  0
 21 23  1  0  0  0  0
 41 42  1  0  0  0  0
 31 32  1  0  0  0  0
  7  8  1  0  0  0  0
 18 21  1  0  0  0  0
 17 18  1  0  0  0  0
 21 22  1  0  0  0  0
  3  4  1  0  0  0  0
  3  5  1  0  0  0  0
  3  6  1  0  0  0  0
 35 38  1  0  0  0  0
 35 39  1  0  0  0  0
 35 40  1  0  0  0  0
 11 14  1  0  0  0  0
 11 15  1  0  0  0  0
 11 16  1  0  0  0  0
 23 28  1  0  0  0  0
 23 29  1  0  0  0  0
 23 30  1  0  0  0  0
 42 44  1  0  0  0  0
 42 45  1  0  0  0  0
 42 46  1  0  0  0  0
 32 37  1  0  0  0  0
  8 13  1  0  0  0  0
 18 25  1  0  0  0  0
 21 26  1  0  0  0  0
 41 43  1  0  0  0  0
  7 12  1  0  0  0  0
 31 36  1  0  0  0  0
 17 24  1  0  0  0  0
 22 27  1  0  0  0  0
M  END
$$$$

  -OEChem-05262214473D

 46 45  0     1  0  0  0  0  0999 V2000
   -4.6700    2.7214    1.5150 C   0  0  0  0  0  0  0  0  0  0  0  0
   -5.4532    2.5715    0.5845 O   0  0  0  0  0  0  0  0  0  0  0  0
   -5.0996    3.4865    2.7226 C   0  0  0  0  0  0  0  0  0  0  0  0
   -4.8796    4.5629    2.6387 H   0  0  0  0  0  0  0  0  0  0  0  0
   -6.1861    3.4241    2.8954 H   0  0  0  0  0  0  0  0  0  0  0  0
   -4.6369    3.1693    3.6708 H   0  0  0  0  0  0  0  0  0  0  0  0
   -3.3731    2.2391    1.5790 N   0  0  0  0  0  0  0  0  0  0  0  0
   -2.7599    1.4751    0.5247 C   0  0  2  0  0  0  0  0  0  0  0  0
   -1.5143    0.8067    1.0915 C   0  0  0  0  0  0  0  0  0  0  0  0
   -0.9247    1.2213    2.0872 O   0  0  0  0  0  0  0  0  0  0  0  0
   -2.4106    2.3553   -0.6653 C   0  0  0  0  0  0  0  0  0  0  0  0
   -2.8254    2.4352    2.4150 H   0  0  0  0  0  0  0  0  0  0  0  0
   -3.4836    0.7082    0.2278 H   0  0  0  0  0  0  0  0  0  0  0  0
   -1.6866    3.1298   -0.3871 H   0  0  0  0  0  0  0  0  0  0  0  0
   -1.9704    1.7677   -1.4777 H   0  0  0  0  0  0  0  0  0  0  0  0
   -3.3030    2.8584   -1.0531 H   0  0  0  0  0  0  0  0  0  0  0  0
   -1.1107   -0.2839    0.3303 N   0  0  0  0  0  0  0  0  0  0  0  0
    0.0490   -1.0750    0.6539 C   0  0  2  0  0  0  0  0  0  0  0  0
    1.1519   -0.7002   -0.3318 C   0  0  0  0  0  0  0  0  0  0  0  0
    2.0467   -1.4754   -0.6630 O   0  0  0  0  0  0  0  0  0  0  0  0
   -0.2362   -2.5838    0.6353 C   0  0  2  0  0  0  0  0  0  0  0  0
   -0.6575   -3.0020   -0.6621 O   0  0  0  0  0  0  0  0  0  0  0  0
   -1.3240   -2.9772    1.6274 C   0  0  0  0  0  0  0  0  0  0  0  0
   -1.6733   -0.5660   -0.4691 H   0  0  0  0  0  0  0  0  0  0  0  0
    0.3647   -0.7666    1.6580 H   0  0  0  0  0  0  0  0  0  0  0  0
    0.6732   -3.1455    0.8783 H   0  0  0  0  0  0  0  0  0  0  0  0
   -0.7713   -3.9635   -0.6173 H   0  0  0  0  0  0  0  0  0  0  0  0
   -2.2590   -2.4423    1.4289 H   0  0  0  0  0  0  0  0  0  0  0  0
   -1.0139   -2.7773    2.6575 H   0  0  0  0  0  0  0  0  0  0  0  0
   -1.5524   -4.0448    1.5347 H   0  0  0  0  0  0  0  0  0  0  0  0
    1.0469    0.6159   -0.7589 N   0  0  0  0  0  0  0  0  0  0  0  0
    1.9937    1.2152   -1.6698 C   0  0  2  0  0  0  0  0  0  0  0  0
    1.6537    0.7453   -3.0780 C   0  0  0  0  0  0  0  0  0  0  0  0
    1.0179   -0.2815   -3.3073 O   0  0  0  0  0  0  0  0  0  0  0  0
    3.4230    0.8465   -1.3040 C   0  0  0  0  0  0  0  0  0  0  0  0
    0.2740    1.1797   -0.4175 H   0  0  0  0  0  0  0  0  0  0  0  0
    1.8544    2.2997   -1.6025 H   0  0  0  0  0  0  0  0  0  0  0  0
    3.5817   -0.2363   -1.3657 H   0  0  0  0  0  0  0  0  0  0  0  0
    4.1411    1.3247   -1.9783 H   0  0  0  0  0  0  0  0  0  0  0  0
    3.6563    1.1587   -0.2804 H   0  0  0  0  0  0  0  0  0  0  0  0
    2.1808    1.5843   -4.0498 N   0  0  0  0  0  0  0  0  0  0  0  0
    2.0067    1.3459   -5.4636 C   0  0  0  0  0  0  0  0  0  0  0  0
    2.6786    2.4238   -3.7685 H   0  0  0  0  0  0  0  0  0  0  0  0
    2.8573    0.7619   -5.8449 H   0  0  0  0  0  0  0  0  0  0  0  0
    1.0743    0.7861   -5.6288 H   0  0  0  0  0  0  0  0  0  0  0  0
    1.9556    2.3082   -5.9940 H   0  0  0  0  0  0  0  0  0  0  0  0
  1  3  1  0  0  0  0
  1  7  1  0  0  0  0
  1  2  2  0  0  0  0
 32 33  1  0  0  0  0
 33 41  1  0  0  0  0
 33 34  2  0  0  0  0
  8  9  1  0  0  0  0
  9 17  1  0  0  0  0
  9 10  2  0  0  0  0
 18 19  1  0  0  0  0
 19 31  1  0  0  0  0
 19 20  2  0  0  0  0
 32 35  1  0  0  0  0
  8 11  1  0  0  0  0
 21 23  1  0  0  0  0
 41 42  1  0  0  0  0
 31 32  1  0  0  0  0
  7  8  1  0  0  0  0
 18 21  1  0  0  0  0
 17 18  1  0  0  0  0
 21 22  1  0  0  0  0
  3  4  1  0  0  0  0
  3  5  1  0  0  0  0
  3  6  1  0  0  0  0
 35 38  1  0  0  0  0
 35 39  1  0  0  0  0
 35 40  1  0  0  0  0
 11 14  1  0  0  0  0
 11 15  1  0  0  0  0
 11 16  1  0  0  0  0
 23 28  1  0  0  0  0
 23 29  1  0  0  0  0
 23 30  1  0  0  0  0
 42 44  1  0  0  0  0
 42 45  1  0  0  0  0
 42 46  1  0  0  0  0
 32 37  1  0  0  0  0
  8 13  1  0  0  0  0
 18 25  1  0  0  0  0
 21 26  1  0  0  0  0
 41 43  1  0  0  0  0
  7 12  1  0  0  0  0
 31 36  1  0  0  0  0
 17 24  1  0  0  0  0
 22 27  1  0  0  0  0
M  END
$$$$

  -OEChem-05262214473D

 46 45  0     1  0  0  0  0  0999 V2000
   -4.6700    2.7214    1.5150 C   0  0  0  0  0  0  0  0  0  0  0  0
   -5.4532    2.5715    0.5845 O   0  0  0  0  0  0  0  0  0  0  0  0
   -5.0996    3.4865    2.7226 C   0  0  0  0  0  0  0  0  0  0  0  0
   -4.8796    4.5629    2.6387 H   0  0  0  0  0  0  0  0  0  0  0  0
   -6.1861    3.4241    2.8954 H   0  0  0  0  0  0  0  0  0  0  0  0
   -4.6369    3.1693    3.6708 H   0  0  0  0  0  0  0  0  0  0  0  0
   -3.3731    2.2391    1.5790 N   0  0  0  0  0  0  0  0  0  0  0  0
   -2.7599    1.4751    0.5247 C   0  0  2  0  0  0  0  0  0  0  0  0
   -1.5143    0.8067    1.0915 C   0  0  0  0  0  0  0  0  0  0  0  0
   -0.9247    1.2213    2.0872 O   0  0  0  0  0  0  0  0  0  0  0  0
   -2.4106    2.3553   -0.6653 C   0  0  0  0  0  0  0  0  0  0  0  0
   -2.8254    2.4352    2.4150 H   0  0  0  0  0  0  0  0  0  0  0  0
   -3.4836    0.7082    0.2278 H   0  0  0  0  0  0  0  0  0  0  0  0
   -1.6866    3.1298   -0.3871 H   0  0  0  0  0  0  0  0  0  0  0  0
   -1.9704    1.7677   -1.4777 H   0  0  0  0  0  0  0  0  0  0  0  0
   -3.3030    2.8584   -1.0531 H   0  0  0  0  0  0  0  0  0  0  0  0
   -1.1107   -0.2839    0.3303 N   0  0  0  0  0  0  0  0  0  0  0  0
    0.0490   -1.0750    0.6539 C   0  0  2  0  0  0  0  0  0  0  0  0
    1.1519   -0.7002   -0.3318 C   0  0  0  0  0  0  0  0  0  0  0  0
    1.8821   -1.5310   -0.8684 O   0  0  0  0  0  0  0  0  0  0  0  0
   -0.2362   -2.5838    0.6353 C   0  0  2  0  0  0  0  0  0  0  0  0
   -0.6575   -3.0020   -0.6621 O   0  0  0  0  0  0  0  0  0  0  0  0
   -1.3240   -2.9772    1.6274 C   0  0  0  0  0  0  0  0  0  0  0  0
   -1.6733   -0.5660   -0.4691 H   0  0  0  0  0  0  0  0  0  0  0  0
    0.3647   -0.7666    1.6580 H   0  0  0  0  0  0  0  0  0  0  0  0
    0.6732   -3.1455    0.8783 H   0  0  0  0  0  0  0  0  0  0  0  0
   -0.7713   -3.9635   -0.6173 H   0  0  0  0  0  0  0  0  0  0  0  0
   -2.2590   -2.4423    1.4289 H   0  0  0  0  0  0  0  0  0  0  0  0
   -1.0139   -2.7773    2.6575 H   0  0  0  0  0  0  0  0  0  0  0  0
   -1.5524   -4.0448    1.5347 H   0  0  0  0  0  0  0  0  0  0  0  0
    1.2563    0.6729   -0.5030 N   0  0  0  0  0  0  0  0  0  0  0  0
    2.2481    1.2758   -1.3622 C   0  0  2  0  0  0  0  0  0  0  0  0
    1.7650    1.1467   -2.8008 C   0  0  0  0  0  0  0  0  0  0  0  0
    0.9508    0.2994   -3.1615 O   0  0  0  0  0  0  0  0  0  0  0  0
    3.6077    0.6181   -1.1843 C   0  0  0  0  0  0  0  0  0  0  0  0
    0.6099    1.2775   -0.0045 H   0  0  0  0  0  0  0  0  0  0  0  0
    2.3021    2.3350   -1.0881 H   0  0  0  0  0  0  0  0  0  0  0  0
    3.5733   -0.4437   -1.4541 H   0  0  0  0  0  0  0  0  0  0  0  0
    4.3648    1.0951   -1.8154 H   0  0  0  0  0  0  0  0  0  0  0  0
    3.9400    0.6858   -0.1427 H   0  0  0  0  0  0  0  0  0  0  0  0
    2.3826    2.0610   -3.6427 N   0  0  0  0  0  0  0  0  0  0  0  0
    2.1027    2.1304   -5.0579 C   0  0  0  0  0  0  0  0  0  0  0  0
    3.0312    2.7393   -3.2540 H   0  0  0  0  0  0  0  0  0  0  0  0
    2.8201    1.5014   -5.6054 H   0  0  0  0  0  0  0  0  0  0  0  0
    1.0806    1.7706   -5.2474 H   0  0  0  0  0  0  0  0  0  0  0  0
    2.1938    3.1722   -5.3989 H   0  0  0  0  0  0  0  0  0  0  0  0
  1  3  1  0  0  0  0
  1  7  1  0  0  0  0
  1  2  2  0  0  0  0
 32 33  1  0  0  0  0
 33 41  1  0  0  0  0
 33 34  2  0  0  0  0
  8  9  1  0  0  0  0
  9 17  1  0  0  0  0
  9 10  2  0  0  0  0
 18 19  1  0  0  0  0
 19 31  1  0  0  0  0
 19 20  2  0  0  0  0
 32 35  1  0  0  0  0
  8 11  1  0  0  0  0
 21 23  1  0  0  0  0
 41 42  1  0  0  0  0
 31 32  1  0  0  0  0
  7  8  1  0  0  0  0
 18 21  1  0  0  0  0
 17 18  1  0  0  0  0
 21 22  1  0  0  0  0
  3  4  1  0  0  0  0
  3  5  1  0  0  0  0
  3  6  1  0  0  0  0
 35 38  1  0  0  0  0
 35 39  1  0  0  0  0
 35 40  1  0  0  0  0
 11 14  1  0  0  0  0
 11 15  1  0  0  0  0
 11 16  1  0  0  0  0
 23 28  1  0  0  0  0
 23 29  1  0  0  0  0
 23 30  1  0  0  0  0
 42 44  1  0  0  0  0
 42 45  1  0  0  0  0
 42 46  1  0  0  0  0
 32 37  1  0  0  0  0
  8 13  1  0  0  0  0
 18 25  1  0  0  0  0
 21 26  1  0  0  0  0
 41 43  1  0  0  0  0
  7 12  1  0  0  0  0
 31 36  1  0  0  0  0
 17 24  1  0  0  0  0
 22 27  1  0  0  0  0
M  END
$$$$

  -OEChem-05262214473D

 46 45  0     1  0  0  0  0  0999 V2000
   -4.6700    2.7214    1.5150 C   0  0  0  0  0  0  0  0  0  0  0  0
   -5.4532    2.5715    0.5845 O   0  0  0  0  0  0  0  0  0  0  0  0
   -5.0996    3.4865    2.7226 C   0  0  0  0  0  0  0  0  0  0  0  0
   -4.8796    4.5629    2.6387 H   0  0  0  0  0  0  0  0  0  0  0  0
   -6.1861    3.4241    2.8954 H   0  0  0  0  0  0  0  0  0  0  0  0
   -4.6369    3.1693    3.6708 H   0  0  0  0  0  0  0  0  0  0  0  0
   -3.3731    2.2391    1.5790 N   0  0  0  0  0  0  0  0  0  0  0  0
   -2.7599    1.4751    0.5247 C   0  0  2  0  0  0  0  0  0  0  0  0
   -1.5143    0.8067    1.0915 C   0  0  0  0  0  0  0  0  0  0  0  0
   -0.9247    1.2213    2.0872 O   0  0  0  0  0  0  0  0  0  0  0  0
   -2.4106    2.3553   -0.6653 C   0  0  0  0  0  0  0  0  0  0  0  0
   -2.8254    2.4352    2.4150 H   0  0  0  0  0  0  0  0  0  0  0  0
   -3.4836    0.7082    0.2278 H   0  0  0  0  0  0  0  0  0  0  0  0
   -1.6866    3.1298   -0.3871 H   0  0  0  0  0  0  0  0  0  0  0  0
   -1.9704    1.7677   -1.4777 H   0  0  0  0  0  0  0  0  0  0  0  0
   -3.3030    2.8584   -1.0531 H   0  0  0  0  0  0  0  0  0  0  0  0
   -1.1107   -0.2839    0.3303 N   0  0  0  0  0  0  0  0  0  0  0  0
    0.0490   -1.0750    0.6539 C   0  0  2  0  0  0  0  0  0  0  0  0
    1.1519   -0.7002   -0.3318 C   0  0  0  0  0  0  0  0  0  0  0  0
    1.7007   -1.5188   -1.0667 O   0  0  0  0  0  0  0  0  0  0  0  0
   -0.2362   -2.5838    0.6353 C   0  0  2  0  0  0  0  0  0  0  0  0
   -0.6575   -3.0020   -0.6621 O   0  0  0  0  0  0  0  0  0  0  0  0
   -1.3240   -2.9772    1.6274 C   0  0  0  0  0  0  0  0  0  0  0  0
   -1.6733   -0.5660   -0.4691 H   0  0  0  0  0  0  0  0  0  0  0  0
    0.3647   -0.7666    1.6580 H   0  0  0  0  0  0  0  0  0  0  0  0
    0.6732   -3.1455    0.8783 H   0  0  0  0  0  0  0  0  0  0  0  0
   -0.7713   -3.9635   -0.6173 H   0  0  0  0  0  0  0  0  0  0  0  0
   -2.2590   -2.4423    1.4289 H   0  0  0  0  0  0  0  0  0  0  0  0
   -1.0139   -2.7773    2.6575 H   0  0  0  0  0  0  0  0  0  0  0  0
   -1.5524   -4.0448    1.5347 H   0  0  0  0  0  0  0  0  0  0  0  0
    1.4843    0.6451   -0.2584 N   0  0  0  0  0  0  0  0  0  0  0  0
    2.5235    1.2342   -1.0699 C   0  0  2  0  0  0  0  0  0  0  0  0
    1.9574    1.4640   -2.4650 C   0  0  0  0  0  0  0  0  0  0  0  0
    0.9924    0.8444   -2.9077 O   0  0  0  0  0  0  0  0  0  0  0  0
    3.7555    0.3443   -1.1230 C   0  0  0  0  0  0  0  0  0  0  0  0
    0.9769    1.2385    0.3914 H   0  0  0  0  0  0  0  0  0  0  0  0
    2.7732    2.1981   -0.6131 H   0  0  0  0  0  0  0  0  0  0  0  0
    3.5248   -0.6261   -1.5776 H   0  0  0  0  0  0  0  0  0  0  0  0
    4.5528    0.8054   -1.7151 H   0  0  0  0  0  0  0  0  0  0  0  0
    4.1438    0.1557   -0.1163 H   0  0  0  0  0  0  0  0  0  0  0  0
    2.6831    2.4115   -3.1731 N   0  0  0  0  0  0  0  0  0  0  0  0
    2.3523    2.7962   -4.5254 C   0  0  0  0  0  0  0  0  0  0  0  0
    3.4572    2.8888   -2.7206 H   0  0  0  0  0  0  0  0  0  0  0  0
    2.9230    2.1771   -5.2333 H   0  0  0  0  0  0  0  0  0  0  0  0
    1.2755    2.6491   -4.6953 H   0  0  0  0  0  0  0  0  0  0  0  0
    2.6062    3.8556   -4.6776 H   0  0  0  0  0  0  0  0  0  0  0  0
  1  3  1  0  0  0  0
  1  7  1  0  0  0  0
  1  2  2  0  0  0  0
 32 33  1  0  0  0  0
 33 41  1  0  0  0  0
 33 34  2  0  0  0  0
  8  9  1  0  0  0  0
  9 17  1  0  0  0  0
  9 10  2  0  0  0  0
 18 19  1  0  0  0  0
 19 31  1  0  0  0  0
 19 20  2  0  0  0  0
 32 35  1  0  0  0  0
  8 11  1  0  0  0  0
 21 23  1  0  0  0  0
 41 42  1  0  0  0  0
 31 32  1  0  0  0  0
  7  8  1  0  0  0  0
 18 21  1  0  0  0  0
 17 18  1  0  0  0  0
 21 22  1  0  0  0  0
  3  4  1  0  0  0  0
  3  5  1  0  0  0  0
  3  6  1  0  0  0  0
 35 38  1  0  0  0  0
 35 39  1  0  0  0  0
 35 40  1  0  0  0  0
 11 14  1  0  0  0  0
 11 15  1  0  0  0  0
 11 16  1  0  0  0  0
 23 28  1  0  0  0  0
 23 29  1  0  0  0  0
 23 30  1  0  0  0  0
 42 44  1  0  0  0  0
 42 45  1  0  0  0  0
 42 46  1  0  0  0  0
 32 37  1  0  0  0  0
  8 13  1  0  0  0  0
 18 25  1  0  0  0  0
 21 26  1  0  0  0  0
 41 43  1  0  0  0  0
  7 12  1  0  0  0  0
 31 36  1  0  0  0  0
 17 24  1  0  0  0  0
 22 27  1  0  0  0  0
M  END
$$$$

  -OEChem-05262214473D

 46 45  0     1  0  0  0  0  0999 V2000
   -4.6700    2.7214    1.5150 C   0  0  0  0  0  0  0  0  0  0  0  0
   -5.4532    2.5715    0.5845 O   0  0  0  0  0  0  0  0  0  0  0  0
   -5.0996    3.4865    2.7226 C   0  0  0  0  0  0  0  0  0  0  0  0
   -4.8796    4.5629    2.6387 H   0  0  0  0  0  0  0  0  0  0  0  0
   -6.1861    3.4241    2.8954 H   0  0  0  0  0  0  0  0  0  0  0  0
   -4.6369    3.1693    3.6708 H   0  0  0  0  0  0  0  0  0  0  0  0
   -3.3731    2.2391    1.5790 N   0  0  0  0  0  0  0  0  0  0  0  0
   -2.7599    1.4751    0.5247 C   0  0  2  0  0  0  0  0  0  0  0  0
   -1.5143    0.8067    1.0915 C   0  0  0  0  0  0  0  0  0  0  0  0
   -0.9247    1.2213    2.0872 O   0  0  0  0  0  0  0  0  0  0  0  0
   -2.4106    2.3553   -0.6653 C   0  0  0  0  0  0  0  0  0  0  0  0
   -2.8254    2.4352    2.4150 H   0  0  0  0  0  0  0  0  0  0  0  0
   -3.4836    0.7082    0.2278 H   0  0  0  0  0  0  0  0  0  0  0  0
   -1.6866    3.1298   -0.3871 H   0  0  0  0  0  0  0  0  0  0  0  0
   -1.9704    1.7677   -1.4777 H   0  0  0  0  0  0  0  0  0  0  0  0
   -3.3030    2.8584   -1.0531 H   0  0  0  0  0  0  0  0  0  0  0  0
   -1.1107   -0.2839    0.3303 N   0  0  0  0  0  0  0  0  0  0  0  0
    0.0490   -1.0750    0.6539 C   0  0  2  0  0  0  0  0  0  0  0  0
    1.1519   -0.7002   -0.3318 C   0  0  0  0  0  0  0  0  0  0  0  0
    1.5149   -1.4396   -1.2444 O   0  0  0  0  0  0  0  0  0  0  0  0
   -0.2362   -2.5838    0.6353 C   0  0  2  0  0  0  0  0  0  0  0  0
   -0.6575   -3.0020   -0.6621 O   0  0  0  0  0  0  0  0  0  0  0  0
   -1.3240   -2.9772    1.6274 C   0  0  0  0  0  0  0  0  0  0  0  0
   -1.6733   -0.5660   -0.4691 H   0  0  0  0  0  0  0  0  0  0  0  0
    0.3647   -0.7666    1.6580 H   0  0  0  0  0  0  0  0  0  0  0  0
    0.6732   -3.1455    0.8783 H   0  0  0  0  0  0  0  0  0  0  0  0
   -0.7713   -3.9635   -0.6173 H   0  0  0  0  0  0  0  0  0  0  0  0
   -2.2590   -2.4423    1.4289 H   0  0  0  0  0  0  0  0  0  0  0  0
   -1.0139   -2.7773    2.6575 H   0  0  0  0  0  0  0  0  0  0  0  0
   -1.5524   -4.0448    1.5347 H   0  0  0  0  0  0  0  0  0  0  0  0
    1.7155    0.5343   -0.0419 N   0  0  0  0  0  0  0  0  0  0  0  0
    2.8011    1.0933   -0.8128 C   0  0  2  0  0  0  0  0  0  0  0  0
    2.2175    1.6755   -2.0935 C   0  0  0  0  0  0  0  0  0  0  0  0
    1.1398    1.3165   -2.5633 O   0  0  0  0  0  0  0  0  0  0  0  0
    3.8563    0.0436   -1.1245 C   0  0  0  0  0  0  0  0  0  0  0  0
    1.3501    1.0654    0.7431 H   0  0  0  0  0  0  0  0  0  0  0  0
    3.2355    1.8982   -0.2099 H   0  0  0  0  0  0  0  0  0  0  0  0
    3.4397   -0.7710   -1.7280 H   0  0  0  0  0  0  0  0  0  0  0  0
    4.6924    0.4755   -1.6844 H   0  0  0  0  0  0  0  0  0  0  0  0
    4.2536   -0.3953   -0.2029 H   0  0  0  0  0  0  0  0  0  0  0  0
    3.0619    2.6121   -2.6731 N   0  0  0  0  0  0  0  0  0  0  0  0
    2.7386    3.2980   -3.9024 C   0  0  0  0  0  0  0  0  0  0  0  0
    3.9276    2.8622   -2.2044 H   0  0  0  0  0  0  0  0  0  0  0  0
    3.1591    2.7430   -4.7540 H   0  0  0  0  0  0  0  0  0  0  0  0
    1.6458    3.3618   -4.0100 H   0  0  0  0  0  0  0  0  0  0  0  0
    3.1646    4.3119   -3.8793 H   0  0  0  0  0  0  0  0  0  0  0  0
  1  3  1  0  0  0  0
  1  7  1  0  0  0  0
  1  2  2  0  0  0  0
 32 33  1  0  0  0  0
 33 41  1  0  0  0  0
 33 34  2  0  0  0  0
  8  9  1  0  0  0  0
  9 17  1  0  0  0  0
  9 10  2  0  0  0  0
 18 19  1  0  0  0  0
 19 31  1  0  0  0  0
 19 20  2  0  0  0  0
 32 35  1  0  0  0  0
  8 11  1  0  0  0  0
 21 23  1  0  0  0  0
 41 42  1  0  0  0  0
 31 32  1  0  0  0  0
  7  8  1  0  0  0  0
 18 21  1  0  0  0  0
 17 18  1  0  0  0  0
 21 22  1  0  0  0  0
  3  4  1  0  0  0  0
  3  5  1  0  0  0  0
  3  6  1  0  0  0  0
 35 38  1  0  0  0  0
 35 39  1  0  0  0  0
 35 40  1  0  0  0  0
 11 14  1  0  0  0  0
 11 15  1  0  0  0  0
 11 16  1  0  0  0  0
 23 28  1  0  0  0  0
 23 29  1  0  0  0  0
 23 30  1  0  0  0  0
 42 44  1  0  0  0  0
 42 45  1  0  0  0  0
 42 46  1  0  0  0  0
 32 37  1  0  0  0  0
  8 13  1  0  0  0  0
 18 25  1  0  0  0  0
 21 26  1  0  0  0  0
 41 43  1  0  0  0  0
  7 12  1  0  0  0  0
 31 36  1  0  0  0  0
 17 24  1  0  0  0  0
 22 27  1  0  0  0  0
M  END
$$$$

  -OEChem-05262214473D

 46 45  0     1  0  0  0  0  0999 V2000
   -4.6700    2.7214    1.5150 C   0  0  0  0  0  0  0  0  0  0  0  0
   -5.4532    2.5715    0.5845 O   0  0  0  0  0  0  0  0  0  0  0  0
   -5.0996    3.4865    2.7226 C   0  0  0  0  0  0  0  0  0  0  0  0
   -4.8796    4.5629    2.6387 H   0  0  0  0  0  0  0  0  0  0  0  0
   -6.1861    3.4241    2.8954 H   0  0  0  0  0  0  0  0  0  0  0  0
   -4.6369    3.1693    3.6708 H   0  0  0  0  0  0  0  0  0  0  0  0
   -3.3731    2.2391    1.5790 N   0  0  0  0  0  0  0  0  0  0  0  0
   -2.7599    1.4751    0.5247 C   0  0  2  0  0  0  0  0  0  0  0  0
   -1.5143    0.8067    1.0915 C   0  0  0  0  0  0  0  0  0  0  0  0
   -0.9247    1.2213    2.0872 O   0  0  0  0  0  0  0  0  0  0  0  0
   -2.4106    2.3553   -0.6653 C   0  0  0  0  0  0  0  0  0  0  0  0
   -2.8254    2.4352    2.4150 H   0  0  0  0  0  0  0  0  0  0  0  0
   -3.4836    0.7082    0.2278 H   0  0  0  0  0  0  0  0  0  0  0  0
   -1.6866    3.1298   -0.3871 H   0  0  0  0  0  0  0  0  0  0  0  0
   -1.9704    1.7677   -1.4777 H   0  0  0  0  0  0  0  0  0  0  0  0
   -3.3030    2.8584   -1.0531 H   0  0  0  0  0  0  0  0  0  0  0  0
   -1.1107   -0.2839    0.3303 N   0  0  0  0  0  0  0  0  0  0  0  0
    0.0490   -1.0750    0.6539 C   0  0  2  0  0  0  0  0  0  0  0  0
    1.1519   -0.7002   -0.3318 C   0  0  0  0  0  0  0  0  0  0  0  0
    1.3375   -1.2988   -1.3894 O   0  0  0  0  0  0  0  0  0  0  0  0
   -0.2362   -2.5838    0.6353 C   0  0  2  0  0  0  0  0  0  0  0  0
   -0.6575   -3.0020   -0.6621 O   0  0  0  0  0  0  0  0  0  0  0  0
   -1.3240   -2.9772    1.6274 C   0  0  0  0  0  0  0  0  0  0  0  0
   -1.6733   -0.5660   -0.4691 H   0  0  0  0  0  0  0  0  0  0  0  0
    0.3647   -0.7666    1.6580 H   0  0  0  0  0  0  0  0  0  0  0  0
    0.6732   -3.1455    0.8783 H   0  0  0  0  0  0  0  0  0  0  0  0
   -0.7713   -3.9635   -0.6173 H   0  0  0  0  0  0  0  0  0  0  0  0
   -2.2590   -2.4423    1.4289 H   0  0  0  0  0  0  0  0  0  0  0  0
   -1.0139   -2.7773    2.6575 H   0  0  0  0  0  0  0  0  0  0  0  0
   -1.5524   -4.0448    1.5347 H   0  0  0  0  0  0  0  0  0  0  0  0
    1.9340    0.3482    0.1318 N   0  0  0  0  0  0  0  0  0  0  0  0
    3.0620    0.8627   -0.6085 C   0  0  2  0  0  0  0  0  0  0  0  0
    2.5278    1.7668   -1.7116 C   0  0  0  0  0  0  0  0  0  0  0  0
    1.3830    1.6834   -2.1516 O   0  0  0  0  0  0  0  0  0  0  0  0
    3.9034   -0.2635   -1.1886 C   0  0  0  0  0  0  0  0  0  0  0  0
    1.7040    0.7701    1.0268 H   0  0  0  0  0  0  0  0  0  0  0  0
    3.6575    1.4558    0.0941 H   0  0  0  0  0  0  0  0  0  0  0  0
    3.3236   -0.8687   -1.8950 H   0  0  0  0  0  0  0  0  0  0  0  0
    4.7740    0.1277   -1.7254 H   0  0  0  0  0  0  0  0  0  0  0  0
    4.2621   -0.9297   -0.3965 H   0  0  0  0  0  0  0  0  0  0  0  0
    3.4930    2.6489   -2.1767 N   0  0  0  0  0  0  0  0  0  0  0  0
    3.2353    3.6015   -3.2313 C   0  0  0  0  0  0  0  0  0  0  0  0
    4.4103    2.6612   -1.7406 H   0  0  0  0  0  0  0  0  0  0  0  0
    3.5121    3.1605   -4.2002 H   0  0  0  0  0  0  0  0  0  0  0  0
    2.1661    3.8601   -3.2383 H   0  0  0  0  0  0  0  0  0  0  0  0
    3.8311    4.5099   -3.0583 H   0  0  0  0  0  0  0  0  0  0  0  0
  1  3  1  0  0  0  0
  1  7  1  0  0  0  0
  1  2  2  0  0  0  0
 32 33  1  0  0  0  0
 33 41  1  0  0  0  0
 33 34  2  0  0  0  0
  8  9  1  0  0  0  0
  9 17  1  0  0  0  0
  9 10  2  0  0  0  0
 18 19  1  0  0  0  0
 19 31  1  0  0  0  0
 19 20  2  0  0  0  0
 32 35  1  0  0  0  0
  8 11  1  0  0  0  0
 21 23  1  0  0  0  0
 41 42  1  0  0  0  0
 31 32  1  0  0  0  0
  7  8  1  0  0  0  0
 18 21  1  0  0  0  0
 17 18  1  0  0  0  0
 21 22  1  0  0  0  0
  3  4  1  0  0  0  0
  3  5  1  0  0  0  0
  3  6  1  0  0  0  0
 35 38  1  0  0  0  0
 35 39  1  0  0  0  0
 35 40  1  0  0  0  0
 11 14  1  0  0  0  0
 11 15  1  0  0  0  0
 11 16  1  0  0  0  0
 23 28  1  0  0  0  0
 23 29  1  0  0  0  0
 23 30  1  0  0  0  0
 42 44  1  0  0  0  0
 42 45  1  0  0  0  0
 42 46  1  0  0  0  0
 32 37  1  0  0  0  0
  8 13  1  0  0  0  0
 18 25  1  0  0  0  0
 21 26  1  0  0  0  0
 41 43  1  0  0  0  0
  7 12  1  0  0  0  0
 31 36  1  0  0  0  0
 17 24  1  0  0  0  0
 22 27  1  0  0  0  0
M  END
$$$$

  -OEChem-05262214473D

 46 45  0     1  0  0  0  0  0999 V2000
   -4.6700    2.7214    1.5150 C   0  0  0  0  0  0  0  0  0  0  0  0
   -5.4532    2.5715    0.5845 O   0  0  0  0  0  0  0  0  0  0  0  0
   -5.0996    3.4865    2.7226 C   0  0  0  0  0  0  0  0  0  0  0  0
   -4.8796    4.5629    2.6387 H   0  0  0  0  0  0  0  0  0  0  0  0
   -6.1861    3.4241    2.8954 H   0  0  0  0  0  0  0  0  0  0  0  0
   -4.6369    3.1693    3.6708 H   0  0  0  0  0  0  0  0  0  0  0  0
   -3.3731    2.2391    1.5790 N   0  0  0  0  0  0  0  0  0  0  0  0
   -2.7599    1.4751    0.5247 C   0  0  2  0  0  0  0  0  0  0  0  0
   -1.5143    0.8067    1.0915 C   0  0  0  0  0  0  0  0  0  0  0  0
   -0.9247    1.2213    2.0872 O   0  0  0  0  0  0  0  0  0  0  0  0
   -2.4106    2.3553   -0.6653 C   0  0  0  0  0  0  0  0  0  0  0  0
   -2.8254    2.4352    2.4150 H   0  0  0  0  0  0  0  0  0  0  0  0
   -3.4836    0.7082    0.2278 H   0  0  0  0  0  0  0  0  0  0  0  0
   -1.6866    3.1298   -0.3871 H   0  0  0  0  0  0  0  0  0  0  0  0
   -1.9704    1.7677   -1.4777 H   0  0  0  0  0  0  0  0  0  0  0  0
   -3.3030    2.8584   -1.0531 H   0  0  0  0  0  0  0  0  0  0  0  0
   -1.1107   -0.2839    0.3303 N   0  0  0  0  0  0  0  0  0  0  0  0
    0.0490   -1.0750    0.6539 C   0  0  2  0  0  0  0  0  0  0  0  0
    1.1519   -0.7002   -0.3318 C   0  0  0  0  0  0  0  0  0  0  0  0
    1.1803   -1.1059   -1.4919 O   0  0  0  0  0  0  0  0  0  0  0  0
   -0.2362   -2.5838    0.6353 C   0  0  2  0  0  0  0  0  0  0  0  0
   -0.6575   -3.0020   -0.6621 O   0  0  0  0  0  0  0  0  0  0  0  0
   -1.3240   -2.9772    1.6274 C   0  0  0  0  0  0  0  0  0  0  0  0
   -1.6733   -0.5660   -0.4691 H   0  0  0  0  0  0  0  0  0  0  0  0
    0.3647   -0.7666    1.6580 H   0  0  0  0  0  0  0  0  0  0  0  0
    0.6732   -3.1455    0.8783 H   0  0  0  0  0  0  0  0  0  0  0  0
   -0.7713   -3.9635   -0.6173 H   0  0  0  0  0  0  0  0  0  0  0  0
   -2.2590   -2.4423    1.4289 H   0  0  0  0  0  0  0  0  0  0  0  0
   -1.0139   -2.7773    2.6575 H   0  0  0  0  0  0  0  0  0  0  0  0
   -1.5524   -4.0448    1.5347 H   0  0  0  0  0  0  0  0  0  0  0  0
    2.1250    0.0994    0.2509 N   0  0  0  0  0  0  0  0  0  0  0  0
    3.2885    0.5582   -0.4709 C   0  0  2  0  0  0  0  0  0  0  0  0
    2.8670    1.7317   -1.3454 C   0  0  0  0  0  0  0  0  0  0  0  0
    1.7054    1.9201   -1.7008 O   0  0  0  0  0  0  0  0  0  0  0  0
    3.8935   -0.5559   -1.3109 C   0  0  0  0  0  0  0  0  0  0  0  0
    2.0145    0.3726    1.2230 H   0  0  0  0  0  0  0  0  0  0  0  0
    4.0105    0.9010    0.2782 H   0  0  0  0  0  0  0  0  0  0  0  0
    3.1846   -0.9124   -2.0671 H   0  0  0  0  0  0  0  0  0  0  0  0
    4.7920   -0.2143   -1.8352 H   0  0  0  0  0  0  0  0  0  0  0  0
    4.1687   -1.4110   -0.6841 H   0  0  0  0  0  0  0  0  0  0  0  0
    3.9472    2.5195   -1.7177 N   0  0  0  0  0  0  0  0  0  0  0  0
    3.8084    3.6861   -2.5578 C   0  0  0  0  0  0  0  0  0  0  0  0
    4.8725    2.2997   -1.3610 H   0  0  0  0  0  0  0  0  0  0  0  0
    3.9582    3.4011   -3.6096 H   0  0  0  0  0  0  0  0  0  0  0  0
    2.8011    4.1101   -2.4328 H   0  0  0  0  0  0  0  0  0  0  0  0
    4.5601    4.4361   -2.2706 H   0  0  0  0  0  0  0  0  0  0  0  0
  1  3  1  0  0  0  0
  1  7  1  0  0  0  0
  1  2  2  0  0  0  0
 32 33  1  0  0  0  0
 33 41  1  0  0  0  0
 33 34  2  0  0  0  0
  8  9  1  0  0  0  0
  9 17  1  0  0  0  0
  9 10  2  0  0  0  0
 18 19  1  0  0  0  0
 19 31  1  0  0  0  0
 19 20  2  0  0  0  0
 32 35  1  0  0  0  0
  8 11  1  0  0  0  0
 21 23  1  0  0  0  0
 41 42  1  0  0  0  0
 31 32  1  0  0  0  0
  7  8  1  0  0  0  0
 18 21  1  0  0  0  0
 17 18  1  0  0  0  0
 21 22  1  0  0  0  0
  3  4  1  0  0  0  0
  3  5  1  0  0  0  0
  3  6  1  0  0  0  0
 35 38  1  0  0  0  0
 35 39  1  0  0  0  0
 35 40  1  0  0  0  0
 11 14  1  0  0  0  0
 11 15  1  0  0  0  0
 11 16  1  0  0  0  0
 23 28  1  0  0  0  0
 23 29  1  0  0  0  0
 23 30  1  0  0  0  0
 42 44  1  0  0  0  0
 42 45  1  0  0  0  0
 42 46  1  0  0  0  0
 32 37  1  0  0  0  0
  8 13  1  0  0  0  0
 18 25  1  0  0  0  0
 21 26  1  0  0  0  0
 41 43  1  0  0  0  0
  7 12  1  0  0  0  0
 31 36  1  0  0  0  0
 17 24  1  0  0  0  0
 22 27  1  0  0  0  0
M  END
$$$$

  -OEChem-05262214473D

 46 45  0     1  0  0  0  0  0999 V2000
   -4.6700    2.7214    1.5150 C   0  0  0  0  0  0  0  0  0  0  0  0
   -5.4532    2.5715    0.5845 O   0  0  0  0  0  0  0  0  0  0  0  0
   -5.0996    3.4865    2.7226 C   0  0  0  0  0  0  0  0  0  0  0  0
   -4.8796    4.5629    2.6387 H   0  0  0  0  0  0  0  0  0  0  0  0
   -6.1861    3.4241    2.8954 H   0  0  0  0  0  0  0  0  0  0  0  0
   -4.6369    3.1693    3.6708 H   0  0  0  0  0  0  0  0  0  0  0  0
   -3.3731    2.2391    1.5790 N   0  0  0  0  0  0  0  0  0  0  0  0
   -2.7599    1.4751    0.5247 C   0  0  2  0  0  0  0  0  0  0  0  0
   -1.5143    0.8067    1.0915 C   0  0  0  0  0  0  0  0  0  0  0  0
   -0.9247    1.2213    2.0872 O   0  0  0  0  0  0  0  0  0  0  0  0
   -2.4106    2.3553   -0.6653 C   0  0  0  0  0  0  0  0  0  0  0  0
   -2.8254    2.4352    2.4150 H   0  0  0  0  0  0  0  0  0  0  0  0
   -3.4836    0.7082    0.2278 H   0  0  0  0  0  0  0  0  0  0  0  0
   -1.6866    3.1298   -0.3871 H   0  0  0  0  0  0  0  0  0  0  0  0
   -1.9704    1.7677   -1.4777 H   0  0  0  0  0  0  0  0  0  0  0  0
   -3.3030    2.8584   -1.0531 H   0  0  0  0  0  0  0  0  0  0  0  0
   -1.1107   -0.2839    0.3303 N   0  0  0  0  0  0  0  0  0  0  0  0
    0.0490   -1.0750    0.6539 C   0  0  2  0  0  0  0  0  0  0  0  0
    1.1519   -0.7002   -0.3318 C   0  0  0  0  0  0  0  0  0  0  0  0
    1.0543   -0.8742   -1.5448 O   0  0  0  0  0  0  0  0  0  0  0  0
   -0.2362   -2.5838    0.6353 C   0  0  2  0  0  0  0  0  0  0  0  0
   -0.6575   -3.0020   -0.6621 O   0  0  0  0  0  0  0  0  0  0  0  0
   -1.3240   -2.9772    1.6274 C   0  0  0  0  0  0  0  0  0  0  0  0
   -1.6733   -0.5660   -0.4691 H   0  0  0  0  0  0  0  0  0  0  0  0
    0.3647   -0.7666    1.6580 H   0  0  0  0  0  0  0  0  0  0  0  0
    0.6732   -3.1455    0.8783 H   0  0  0  0  0  0  0  0  0  0  0  0
   -0.7713   -3.9635   -0.6173 H   0  0  0  0  0  0  0  0  0  0  0  0
   -2.2590   -2.4423    1.4289 H   0  0  0  0  0  0  0  0  0  0  0  0
   -1.0139   -2.7773    2.6575 H   0  0  0  0  0  0  0  0  0  0  0  0
   -1.5524   -4.0448    1.5347 H   0  0  0  0  0  0  0  0  0  0  0  0
    2.2754   -0.1952    0.3072 N   0  0  0  0  0  0  0  0  0  0  0  0
    3.4651    0.2004   -0.4093 C   0  0  2  0  0  0  0  0  0  0  0  0
    3.2121    1.5725   -1.0198 C   0  0  0  0  0  0  0  0  0  0  0  0
    2.0851    2.0105   -1.2416 O   0  0  0  0  0  0  0  0  0  0  0  0
    3.8272   -0.8139   -1.4831 C   0  0  0  0  0  0  0  0  0  0  0  0
    2.2604   -0.1000    1.3185 H   0  0  0  0  0  0  0  0  0  0  0  0
    4.2705    0.2717    0.3298 H   0  0  0  0  0  0  0  0  0  0  0  0
    3.0321   -0.8991   -2.2328 H   0  0  0  0  0  0  0  0  0  0  0  0
    4.7453   -0.5270   -2.0063 H   0  0  0  0  0  0  0  0  0  0  0  0
    3.9797   -1.8066   -1.0460 H   0  0  0  0  0  0  0  0  0  0  0  0
    4.3934    2.2327   -1.3275 N   0  0  0  0  0  0  0  0  0  0  0  0
    4.4190    3.5461   -1.9279 C   0  0  0  0  0  0  0  0  0  0  0  0
    5.2826    1.8022   -1.0912 H   0  0  0  0  0  0  0  0  0  0  0  0
    4.4668    3.4485   -3.0225 H   0  0  0  0  0  0  0  0  0  0  0  0
    3.5075    4.0947   -1.6483 H   0  0  0  0  0  0  0  0  0  0  0  0
    5.3020    4.0956   -1.5699 H   0  0  0  0  0  0  0  0  0  0  0  0
  1  3  1  0  0  0  0
  1  7  1  0  0  0  0
  1  2  2  0  0  0  0
 32 33  1  0  0  0  0
 33 41  1  0  0  0  0
 33 34  2  0  0  0  0
  8  9  1  0  0  0  0
  9 17  1  0  0  0  0
  9 10  2  0  0  0  0
 18 19  1  0  0  0  0
 19 31  1  0  0  0  0
 19 20  2  0  0  0  0
 32 35  1  0  0  0  0
  8 11  1  0  0  0  0
 21 23  1  0  0  0  0
 41 42  1  0  0  0  0
 31 32  1  0  0  0  0
  7  8  1  0  0  0  0
 18 21  1  0  0  0  0
 17 18  1  0  0  0  0
 21 22  1  0  0  0  0
  3  4  1  0  0  0  0
  3  5  1  0  0  0  0
  3  6  1  0  0  0  0
 35 38  1  0  0  0  0
 35 39  1  0  0  0  0
 35 40  1  0  0  0  0
 11 14  1  0  0  0  0
 11 15  1  0  0  0  0
 11 16  1  0  0  0  0
 23 28  1  0  0  0  0
 23 29  1  0  0  0  0
 23 30  1  0  0  0  0
 42 44  1  0  0  0  0
 42 45  1  0  0  0  0
 42 46  1  0  0  0  0
 32 37  1  0  0  0  0
  8 13  1  0  0  0  0
 18 25  1  0  0  0  0
 21 26  1  0  0  0  0
 41 43  1  0  0  0  0
  7 12  1  0  0  0  0
 31 36  1  0  0  0  0
 17 24  1  0  0  0  0
 22 27  1  0  0  0  0
M  END
$$$$

  -OEChem-05262214473D

 46 45  0     1  0  0  0  0  0999 V2000
   -4.6700    2.7214    1.5150 C   0  0  0  0  0  0  0  0  0  0  0  0
   -5.4532    2.5715    0.5845 O   0  0  0  0  0  0  0  0  0  0  0  0
   -5.0996    3.4865    2.7226 C   0  0  0  0  0  0  0  0  0  0  0  0
   -4.8796    4.5629    2.6387 H   0  0  0  0  0  0  0  0  0  0  0  0
   -6.1861    3.4241    2.8954 H   0  0  0  0  0  0  0  0  0  0  0  0
   -4.6369    3.1693    3.6708 H   0  0  0  0  0  0  0  0  0  0  0  0
   -3.3731    2.2391    1.5790 N   0  0  0  0  0  0  0  0  0  0  0  0
   -2.7599    1.4751    0.5247 C   0  0  2  0  0  0  0  0  0  0  0  0
   -1.5143    0.8067    1.0915 C   0  0  0  0  0  0  0  0  0  0  0  0
   -0.9247    1.2213    2.0872 O   0  0  0  0  0  0  0  0  0  0  0  0
   -2.4106    2.3553   -0.6653 C   0  0  0  0  0  0  0  0  0  0  0  0
   -2.8254    2.4352    2.4150 H   0  0  0  0  0  0  0  0  0  0  0  0
   -3.4836    0.7082    0.2278 H   0  0  0  0  0  0  0  0  0  0  0  0
   -1.6866    3.1298   -0.3871 H   0  0  0  0  0  0  0  0  0  0  0  0
   -1.9704    1.7677   -1.4777 H   0  0  0  0  0  0  0  0  0  0  0  0
   -3.3030    2.8584   -1.0531 H   0  0  0  0  0  0  0  0  0  0  0  0
   -1.1107   -0.2839    0.3303 N   0  0  0  0  0  0  0  0  0  0  0  0
    0.0490   -1.0750    0.6539 C   0  0  2  0  0  0  0  0  0  0  0  0
    1.1519   -0.7002   -0.3318 C   0  0  0  0  0  0  0  0  0  0  0  0
    0.9679   -0.6195   -1.5446 O   0  0  0  0  0  0  0  0  0  0  0  0
   -0.2362   -2.5838    0.6353 C   0  0  2  0  0  0  0  0  0  0  0  0
   -0.6575   -3.0020   -0.6621 O   0  0  0  0  0  0  0  0  0  0  0  0
   -1.3240   -2.9772    1.6274 C   0  0  0  0  0  0  0  0  0  0  0  0
   -1.6733   -0.5660   -0.4691 H   0  0  0  0  0  0  0  0  0  0  0  0
    0.3647   -0.7666    1.6580 H   0  0  0  0  0  0  0  0  0  0  0  0
    0.6732   -3.1455    0.8783 H   0  0  0  0  0  0  0  0  0  0  0  0
   -0.7713   -3.9635   -0.6173 H   0  0  0  0  0  0  0  0  0  0  0  0
   -2.2590   -2.4423    1.4289 H   0  0  0  0  0  0  0  0  0  0  0  0
   -1.0139   -2.7773    2.6575 H   0  0  0  0  0  0  0  0  0  0  0  0
   -1.5524   -4.0448    1.5347 H   0  0  0  0  0  0  0  0  0  0  0  0
    2.3751   -0.5154    0.2970 N   0  0  0  0  0  0  0  0  0  0  0  0
    3.5798   -0.1863   -0.4280 C   0  0  2  0  0  0  0  0  0  0  0  0
    3.5395    1.3002   -0.7570 C   0  0  0  0  0  0  0  0  0  0  0  0
    2.4962    1.9485   -0.8053 O   0  0  0  0  0  0  0  0  0  0  0  0
    3.7091   -1.0197   -1.6935 C   0  0  0  0  0  0  0  0  0  0  0  0
    2.4250   -0.6155    1.3066 H   0  0  0  0  0  0  0  0  0  0  0  0
    4.4196   -0.3893    0.2454 H   0  0  0  0  0  0  0  0  0  0  0  0
    2.8764   -0.8298   -2.3806 H   0  0  0  0  0  0  0  0  0  0  0  0
    4.6371   -0.7893   -2.2272 H   0  0  0  0  0  0  0  0  0  0  0  0
    3.7080   -2.0893   -1.4576 H   0  0  0  0  0  0  0  0  0  0  0  0
    4.8013    1.8082   -1.0325 N   0  0  0  0  0  0  0  0  0  0  0  0
    5.0253    3.1909   -1.3844 C   0  0  0  0  0  0  0  0  0  0  0  0
    5.6127    1.2027   -0.9498 H   0  0  0  0  0  0  0  0  0  0  0  0
    5.0033    3.2994   -2.4789 H   0  0  0  0  0  0  0  0  0  0  0  0
    4.2370    3.8150   -0.9383 H   0  0  0  0  0  0  0  0  0  0  0  0
    6.0063    3.5116   -1.0039 H   0  0  0  0  0  0  0  0  0  0  0  0
  1  3  1  0  0  0  0
  1  7  1  0  0  0  0
  1  2  2  0  0  0  0
 32 33  1  0  0  0  0
 33 41  1  0  0  0  0
 33 34  2  0  0  0  0
  8  9  1  0  0  0  0
  9 17  1  0  0  0  0
  9 10  2  0  0  0  0
 18 19  1  0  0  0  0
 19 31  1  0  0  0  0
 19 20  2  0  0  0  0
 32 35  1  0  0  0  0
  8 11  1  0  0  0  0
 21 23  1  0  0  0  0
 41 42  1  0  0  0  0
 31 32  1  0  0  0  0
  7  8  1  0  0  0  0
 18 21  1  0  0  0  0
 17 18  1  0  0  0  0
 21 22  1  0  0  0  0
  3  4  1  0  0  0  0
  3  5  1  0  0  0  0
  3  6  1  0  0  0  0
 35 38  1  0  0  0  0
 35 39  1  0  0  0  0
 35 40  1  0  0  0  0
 11 14  1  0  0  0  0
 11 15  1  0  0  0  0
 11 16  1  0  0  0  0
 23 28  1  0  0  0  0
 23 29  1  0  0  0  0
 23 30  1  0  0  0  0
 42 44  1  0  0  0  0
 42 45  1  0  0  0  0
 42 46  1  0  0  0  0
 32 37  1  0  0  0  0
  8 13  1  0  0  0  0
 18 25  1  0  0  0  0
 21 26  1  0  0  0  0
 41 43  1  0  0  0  0
  7 12  1  0  0  0  0
 31 36  1  0  0  0  0
 17 24  1  0  0  0  0
 22 27  1  0  0  0  0
M  END
$$$$

  -OEChem-05262214473D

 46 45  0     1  0  0  0  0  0999 V2000
   -4.6700    2.7214    1.5150 C   0  0  0  0  0  0  0  0  0  0  0  0
   -5.4532    2.5715    0.5845 O   0  0  0  0  0  0  0  0  0  0  0  0
   -5.0996    3.4865    2.7226 C   0  0  0  0  0  0  0  0  0  0  0  0
   -4.8796    4.5629    2.6387 H   0  0  0  0  0  0  0  0  0  0  0  0
   -6.1861    3.4241    2.8954 H   0  0  0  0  0  0  0  0  0  0  0  0
   -4.6369    3.1693    3.6708 H   0  0  0  0  0  0  0  0  0  0  0  0
   -3.3731    2.2391    1.5790 N   0  0  0  0  0  0  0  0  0  0  0  0
   -2.7599    1.4751    0.5247 C   0  0  2  0  0  0  0  0  0  0  0  0
   -1.5143    0.8067    1.0915 C   0  0  0  0  0  0  0  0  0  0  0  0
   -0.9247    1.2213    2.0872 O   0  0  0  0  0  0  0  0  0  0  0  0
   -2.4106    2.3553   -0.6653 C   0  0  0  0  0  0  0  0  0  0  0  0
   -2.8254    2.4352    2.4150 H   0  0  0  0  0  0  0  0  0  0  0  0
   -3.4836    0.7082    0.2278 H   0  0  0  0  0  0  0  0  0  0  0  0
   -1.6866    3.1298   -0.3871 H   0  0  0  0  0  0  0  0  0  0  0  0
   -1.9704    1.7677   -1.4777 H   0  0  0  0  0  0  0  0  0  0  0  0
   -3.3030    2.8584   -1.0531 H   0  0  0  0  0  0  0  0  0  0  0  0
   -1.1107   -0.2839    0.3303 N   0  0  0  0  0  0  0  0  0  0  0  0
    0.0490   -1.0750    0.6539 C   0  0  2  0  0  0  0  0  0  0  0  0
    1.1519   -0.7002   -0.3318 C   0  0  0  0  0  0  0  0  0  0  0  0
    0.9271   -0.3590   -1.4912 O   0  0  0  0  0  0  0  0  0  0  0  0
   -0.2362   -2.5838    0.6353 C   0  0  2  0  0  0  0  0  0  0  0  0
   -0.6575   -3.0020   -0.6621 O   0  0  0  0  0  0  0  0  0  0  0  0
   -1.3240   -2.9772    1.6274 C   0  0  0  0  0  0  0  0  0  0  0  0
   -1.6733   -0.5660   -0.4691 H   0  0  0  0  0  0  0  0  0  0  0  0
    0.3647   -0.7666    1.6580 H   0  0  0  0  0  0  0  0  0  0  0  0
    0.6732   -3.1455    0.8783 H   0  0  0  0  0  0  0  0  0  0  0  0
   -0.7713   -3.9635   -0.6173 H   0  0  0  0  0  0  0  0  0  0  0  0
   -2.2590   -2.4423    1.4289 H   0  0  0  0  0  0  0  0  0  0  0  0
   -1.0139   -2.7773    2.6575 H   0  0  0  0  0  0  0  0  0  0  0  0
   -1.5524   -4.0448    1.5347 H   0  0  0  0  0  0  0  0  0  0  0  0
    2.4172   -0.8395    0.2209 N   0  0  0  0  0  0  0  0  0  0  0  0
    3.6247   -0.5755   -0.5257 C   0  0  2  0  0  0  0  0  0  0  0  0
    3.8269    0.9333   -0.5749 C   0  0  0  0  0  0  0  0  0  0  0  0
    2.9106    1.7382   -0.4216 O   0  0  0  0  0  0  0  0  0  0  0  0
    3.5472   -1.1594   -1.9277 C   0  0  0  0  0  0  0  0  0  0  0  0
    2.4970   -1.1387    1.1883 H   0  0  0  0  0  0  0  0  0  0  0  0
    4.4478   -1.0369    0.0307 H   0  0  0  0  0  0  0  0  0  0  0  0
    2.7283   -0.7092   -2.5005 H   0  0  0  0  0  0  0  0  0  0  0  0
    4.4746   -0.9832   -2.4828 H   0  0  0  0  0  0  0  0  0  0  0  0
    3.3721   -2.2401   -1.8907 H   0  0  0  0  0  0  0  0  0  0  0  0
    5.1431    1.2746   -0.8530 N   0  0  0  0  0  0  0  0  0  0  0  0
    5.5862    2.6447   -0.9645 C   0  0  0  0  0  0  0  0  0  0  0  0
    5.8403    0.5419   -0.9464 H   0  0  0  0  0  0  0  0  0  0  0  0
    5.5312    2.9640   -2.0157 H   0  0  0  0  0  0  0  0  0  0  0  0
    4.9401    3.2900   -0.3512 H   0  0  0  0  0  0  0  0  0  0  0  0
    6.6249    2.7239   -0.6113 H   0  0  0  0  0  0  0  0  0  0  0  0
  1  3  1  0  0  0  0
  1  7  1  0  0  0  0
  1  2  2  0  0  0  0
 32 33  1  0  0  0  0
 33 41  1  0  0  0  0
 33 34  2  0  0  0  0
  8  9  1  0  0  0  0
  9 17  1  0  0  0  0
  9 10  2  0  0  0  0
 18 19  1  0  0  0  0
 19 31  1  0  0  0  0
 19 20  2  0  0  0  0
 32 35  1  0  0  0  0
  8 11  1  0  0  0  0
 21 23  1  0  0  0  0
 41 42  1  0  0  0  0
 31 32  1  0  0  0  0
  7  8  1  0  0  0  0
 18 21  1  0  0  0  0
 17 18  1  0  0  0  0
 21 22  1  0  0  0  0
  3  4  1  0  0  0  0
  3  5  1  0  0  0  0
  3  6  1  0  0  0  0
 35 38  1  0  0  0  0
 35 39  1  0  0  0  0
 35 40  1  0  0  0  0
 11 14  1  0  0  0  0
 11 15  1  0  0  0  0
 11 16  1  0  0  0  0
 23 28  1  0  0  0  0
 23 29  1  0  0  0  0
 23 30  1  0  0  0  0
 42 44  1  0  0  0  0
 42 45  1  0  0  0  0
 42 46  1  0  0  0  0
 32 37  1  0  0  0  0
  8 13  1  0  0  0  0
 18 25  1  0  0  0  0
 21 26  1  0  0  0  0
 41 43  1  0  0  0  0
  7 12  1  0  0  0  0
 31 36  1  0  0  0  0
 17 24  1  0  0  0  0
 22 27  1  0  0  0  0
M  END
$$$$

  -OEChem-05262214473D

 46 45  0     1  0  0  0  0  0999 V2000
   -4.6700    2.7214    1.5150 C   0  0  0  0  0  0  0  0  0  0  0  0
   -5.4532    2.5715    0.5845 O   0  0  0  0  0  0  0  0  0  0  0  0
   -5.0996    3.4865    2.7226 C   0  0  0  0  0  0  0  0  0  0  0  0
   -4.8796    4.5629    2.6387 H   0  0  0  0  0  0  0  0  0  0  0  0
   -6.1861    3.4241    2.8954 H   0  0  0  0  0  0  0  0  0  0  0  0
   -4.6369    3.1693    3.6708 H   0  0  0  0  0  0  0  0  0  0  0  0
   -3.3731    2.2391    1.5790 N   0  0  0  0  0  0  0  0  0  0  0  0
   -2.7599    1.4751    0.5247 C   0  0  2  0  0  0  0  0  0  0  0  0
   -1.5143    0.8067    1.0915 C   0  0  0  0  0  0  0  0  0  0  0  0
   -0.9247    1.2213    2.0872 O   0  0  0  0  0  0  0  0  0  0  0  0
   -2.4106    2.3553   -0.6653 C   0  0  0  0  0  0  0  0  0  0  0  0
   -2.8254    2.4352    2.4150 H   0  0  0  0  0  0  0  0  0  0  0  0
   -3.4836    0.7082    0.2278 H   0  0  0  0  0  0  0  0  0  0  0  0
   -1.6866    3.1298   -0.3871 H   0  0  0  0  0  0  0  0  0  0  0  0
   -1.9704    1.7677   -1.4777 H   0  0  0  0  0  0  0  0  0  0  0  0
   -3.3030    2.8584   -1.0531 H   0  0  0  0  0  0  0  0  0  0  0  0
   -1.1107   -0.2839    0.3303 N   0  0  0  0  0  0  0  0  0  0  0  0
    0.0490   -1.0750    0.6539 C   0  0  2  0  0  0  0  0  0  0  0  0
    1.1519   -0.7002   -0.3318 C   0  0  0  0  0  0  0  0  0  0  0  0
    0.9346   -0.1105   -1.3883 O   0  0  0  0  0  0  0  0  0  0  0  0
   -0.2362   -2.5838    0.6353 C   0  0  2  0  0  0  0  0  0  0  0  0
   -0.6575   -3.0020   -0.6621 O   0  0  0  0  0  0  0  0  0  0  0  0
   -1.3240   -2.9772    1.6274 C   0  0  0  0  0  0  0  0  0  0  0  0
   -1.6733   -0.5660   -0.4691 H   0  0  0  0  0  0  0  0  0  0  0  0
    0.3647   -0.7666    1.6580 H   0  0  0  0  0  0  0  0  0  0  0  0
    0.6732   -3.1455    0.8783 H   0  0  0  0  0  0  0  0  0  0  0  0
   -0.7713   -3.9635   -0.6173 H   0  0  0  0  0  0  0  0  0  0  0  0
   -2.2590   -2.4423    1.4289 H   0  0  0  0  0  0  0  0  0  0  0  0
   -1.0139   -2.7773    2.6575 H   0  0  0  0  0  0  0  0  0  0  0  0
   -1.5524   -4.0448    1.5347 H   0  0  0  0  0  0  0  0  0  0  0  0
    2.3988   -1.1453    0.0841 N   0  0  0  0  0  0  0  0  0  0  0  0
    3.5969   -0.9406   -0.6957 C   0  0  2  0  0  0  0  0  0  0  0  0
    4.0548    0.4967   -0.4859 C   0  0  0  0  0  0  0  0  0  0  0  0
    3.3001    1.3940   -0.1166 O   0  0  0  0  0  0  0  0  0  0  0  0
    3.3526   -1.2235   -2.1699 C   0  0  0  0  0  0  0  0  0  0  0  0
    2.4716   -1.6340    0.9716 H   0  0  0  0  0  0  0  0  0  0  0  0
    4.3532   -1.6270   -0.2996 H   0  0  0  0  0  0  0  0  0  0  0  0
    2.5977   -0.5455   -2.5843 H   0  0  0  0  0  0  0  0  0  0  0  0
    4.2690   -1.0956   -2.7555 H   0  0  0  0  0  0  0  0  0  0  0  0
    2.9949   -2.2485   -2.3159 H   0  0  0  0  0  0  0  0  0  0  0  0
    5.3954    0.6686   -0.8010 N   0  0  0  0  0  0  0  0  0  0  0  0
    6.0634    1.9449   -0.6967 C   0  0  0  0  0  0  0  0  0  0  0  0
    5.9499   -0.1350   -1.0812 H   0  0  0  0  0  0  0  0  0  0  0  0
    6.0145    2.4651   -1.6647 H   0  0  0  0  0  0  0  0  0  0  0  0
    5.5688    2.5556    0.0730 H   0  0  0  0  0  0  0  0  0  0  0  0
    7.1157    1.7862   -0.4187 H   0  0  0  0  0  0  0  0  0  0  0  0
  1  3  1  0  0  0  0
  1  7  1  0  0  0  0
  1  2  2  0  0  0  0
 32 33  1  0  0  0  0
 33 41  1  0  0  0  0
 33 34  2  0  0  0  0
  8  9  1  0  0  0  0
  9 17  1  0  0  0  0
  9 10  2  0  0  0  0
 18 19  1  0  0  0  0
 19 31  1  0  0  0  0
 19 20  2  0  0  0  0
 32 35  1  0  0  0  0
  8 11  1  0  0  0  0
 21 23  1  0  0  0  0
 41 42  1  0  0  0  0
 31 32  1  0  0  0  0
  7  8  1  0  0  0  0
 18 21  1  0  0  0  0
 17 18  1  0  0  0  0
 21 22  1  0  0  0  0
  3  4  1  0  0  0  0
  3  5  1  0  0  0  0
  3  6  1  0  0  0  0
 35 38  1  0  0  0  0
 35 39  1  0  0  0  0
 35 40  1  0  0  0  0
 11 14  1  0  0  0  0
 11 15  1  0  0  0  0
 11 16  1  0  0  0  0
 23 28  1  0  0  0  0
 23 29  1  0  0  0  0
 23 30  1  0  0  0  0
 42 44  1  0  0  0  0
 42 45  1  0  0  0  0
 42 46  1  0  0  0  0
 32 37  1  0  0  0  0
  8 13  1  0  0  0  0
 18 25  1  0  0  0  0
 21 26  1  0  0  0  0
 41 43  1  0  0  0  0
  7 12  1  0  0  0  0
 31 36  1  0  0  0  0
 17 24  1  0  0  0  0
 22 27  1  0  0  0  0
M  END
$$$$

  -OEChem-05262214473D

 46 45  0     1  0  0  0  0  0999 V2000
   -4.6700    2.7214    1.5150 C   0  0  0  0  0  0  0  0  0  0  0  0
   -5.4532    2.5715    0.5845 O   0  0  0  0  0  0  0  0  0  0  0  0
   -5.0996    3.4865    2.7226 C   0  0  0  0  0  0  0  0  0  0  0  0
   -4.8796    4.5629    2.6387 H   0  0  0  0  0  0  0  0  0  0  0  0
   -6.1861    3.4241    2.8954 H   0  0  0  0  0  0  0  0  0  0  0  0
   -4.6369    3.1693    3.6708 H   0  0  0  0  0  0  0  0  0  0  0  0
   -3.3731    2.2391    1.5790 N   0  0  0  0  0  0  0  0  0  0  0  0
   -2.7599    1.4751    0.5247 C   0  0  2  0  0  0  0  0  0  0  0  0
   -1.5143    0.8067    1.0915 C   0  0  0  0  0  0  0  0  0  0  0  0
   -0.9247    1.2213    2.0872 O   0  0  0  0  0  0  0  0  0  0  0  0
   -2.4106    2.3553   -0.6653 C   0  0  0  0  0  0  0  0  0  0  0  0
   -2.8254    2.4352    2.4150 H   0  0  0  0  0  0  0  0  0  0  0  0
   -3.4836    0.7082    0.2278 H   0  0  0  0  0  0  0  0  0  0  0  0
   -1.6866    3.1298   -0.3871 H   0  0  0  0  0  0  0  0  0  0  0  0
   -1.9704    1.7677   -1.4777 H   0  0  0  0  0  0  0  0  0  0  0  0
   -3.3030    2.8584   -1.0531 H   0  0  0  0  0  0  0  0  0  0  0  0
   -1.1107   -0.2839    0.3303 N   0  0  0  0  0  0  0  0  0  0  0  0
    0.0490   -1.0750    0.6539 C   0  0  2  0  0  0  0  0  0  0  0  0
    1.2453   -0.4521   -0.0599 C   0  0  0  0  0  0  0  0  0  0  0  0
    1.1499    0.5245   -0.8003 O   0  0  0  0  0  0  0  0  0  0  0  0
   -0.1198   -2.5562    0.2856 C   0  0  2  0  0  0  0  0  0  0  0  0
   -0.3291   -2.7068   -1.1177 O   0  0  0  0  0  0  0  0  0  0  0  0
   -1.3006   -3.1980    1.0040 C   0  0  0  0  0  0  0  0  0  0  0  0
   -1.6733   -0.5660   -0.4691 H   0  0  0  0  0  0  0  0  0  0  0  0
    0.2018   -0.9737    1.7353 H   0  0  0  0  0  0  0  0  0  0  0  0
    0.7868   -3.1171    0.5409 H   0  0  0  0  0  0  0  0  0  0  0  0
   -0.3772   -3.6599   -1.2875 H   0  0  0  0  0  0  0  0  0  0  0  0
   -2.2366   -2.6739    0.7825 H   0  0  0  0  0  0  0  0  0  0  0  0
   -1.1490   -3.2084    2.0875 H   0  0  0  0  0  0  0  0  0  0  0  0
   -1.4356   -4.2303    0.6625 H   0  0  0  0  0  0  0  0  0  0  0  0
    2.4217   -1.1450    0.1885 N   0  0  0  0  0  0  0  0  0  0  0  0
    3.6849   -0.7680   -0.4010 C   0  0  2  0  0  0  0  0  0  0  0  0
    4.2338    0.4177    0.3813 C   0  0  0  0  0  0  0  0  0  0  0  0
    3.5245    1.1661    1.0506 O   0  0  0  0  0  0  0  0  0  0  0  0
    3.5269   -0.4216   -1.8733 C   0  0  0  0  0  0  0  0  0  0  0  0
    2.3932   -1.9486    0.8093 H   0  0  0  0  0  0  0  0  0  0  0  0
    4.3566   -1.6255   -0.2847 H   0  0  0  0  0  0  0  0  0  0  0  0
    2.8572    0.4354   -2.0097 H   0  0  0  0  0  0  0  0  0  0  0  0
    4.4901   -0.1636   -2.3258 H   0  0  0  0  0  0  0  0  0  0  0  0
    3.1041   -1.2655   -2.4291 H   0  0  0  0  0  0  0  0  0  0  0  0
    5.6029    0.5676    0.2096 N   0  0  0  0  0  0  0  0  0  0  0  0
    6.3562    1.6273    0.8386 C   0  0  0  0  0  0  0  0  0  0  0  0
    6.1137   -0.1107   -0.3478 H   0  0  0  0  0  0  0  0  0  0  0  0
    6.4166    2.4890    0.1576 H   0  0  0  0  0  0  0  0  0  0  0  0
    5.8550    1.9304    1.7697 H   0  0  0  0  0  0  0  0  0  0  0  0
    7.3707    1.2694    1.0680 H   0  0  0  0  0  0  0  0  0  0  0  0
  1  3  1  0  0  0  0
  1  7  1  0  0  0  0
  1  2  2  0  0  0  0
 32 33  1  0  0  0  0
 33 41  1  0  0  0  0
 33 34  2  0  0  0  0
  8  9  1  0  0  0  0
  9 17  1  0  0  0  0
  9 10  2  0  0  0  0
 18 19  1  0  0  0  0
 19 31  1  0  0  0  0
 19 20  2  0  0  0  0
 32 35  1  0  0  0  0
  8 11  1  0  0  0  0
 21 23  1  0  0  0  0
 41 42  1  0  0  0  0
 31 32  1  0  0  0  0
  7  8  1  0  0  0  0
 18 21  1  0  0  0  0
 17 18  1  0  0  0  0
 21 22  1  0  0  0  0
  3  4  1  0  0  0  0
  3  5  1  0  0  0  0
  3  6  1  0  0  0  0
 35 38  1  0  0  0  0
 35 39  1  0  0  0  0
 35 40  1  0  0  0  0
 11 14  1  0  0  0  0
 11 15  1  0  0  0  0
 11 16  1  0  0  0  0
 23 28  1  0  0  0  0
 23 29  1  0  0  0  0
 23 30  1  0  0  0  0
 42 44  1  0  0  0  0
 42 45  1  0  0  0  0
 42 46  1  0  0  0  0
 32 37  1  0  0  0  0
  8 13  1  0  0  0  0
 18 25  1  0  0  0  0
 21 26  1  0  0  0  0
 41 43  1  0  0  0  0
  7 12  1  0  0  0  0
 31 36  1  0  0  0  0
 17 24  1  0  0  0  0
 22 27  1  0  0  0  0
M  END
$$$$

  -OEChem-05262214473D

 46 45  0     1  0  0  0  0  0999 V2000
   -4.6700    2.7214    1.5150 C   0  0  0  0  0  0  0  0  0  0  0  0
   -5.4532    2.5715    0.5845 O   0  0  0  0  0  0  0  0  0  0  0  0
   -5.0996    3.4865    2.7226 C   0  0  0  0  0  0  0  0  0  0  0  0
   -4.8796    4.5629    2.6387 H   0  0  0  0  0  0  0  0  0  0  0  0
   -6.1861    3.4241    2.8954 H   0  0  0  0  0  0  0  0  0  0  0  0
   -4.6369    3.1693    3.6708 H   0  0  0  0  0  0  0  0  0  0  0  0
   -3.3731    2.2391    1.5790 N   0  0  0  0  0  0  0  0  0  0  0  0
   -2.7599    1.4751    0.5247 C   0  0  2  0  0  0  0  0  0  0  0  0
   -1.5143    0.8067    1.0915 C   0  0  0  0  0  0  0  0  0  0  0  0
   -0.9247    1.2213    2.0872 O   0  0  0  0  0  0  0  0  0  0  0  0
   -2.4106    2.3553   -0.6653 C   0  0  0  0  0  0  0  0  0  0  0  0
   -2.8254    2.4352    2.4150 H   0  0  0  0  0  0  0  0  0  0  0  0
   -3.4836    0.7082    0.2278 H   0  0  0  0  0  0  0  0  0  0  0  0
   -1.6866    3.1298   -0.3871 H   0  0  0  0  0  0  0  0  0  0  0  0
   -1.9704    1.7677   -1.4777 H   0  0  0  0  0  0  0  0  0  0  0  0
   -3.3030    2.8584   -1.0531 H   0  0  0  0  0  0  0  0  0  0  0  0
   -1.1107   -0.2839    0.3303 N   0  0  0  0  0  0  0  0  0  0  0  0
    0.0490   -1.0750    0.6539 C   0  0  2  0  0  0  0  0  0  0  0  0
    1.2453   -0.4521   -0.0599 C   0  0  0  0  0  0  0  0  0  0  0  0
    1.2111    0.6624   -0.5776 O   0  0  0  0  0  0  0  0  0  0  0  0
   -0.1198   -2.5562    0.2856 C   0  0  2  0  0  0  0  0  0  0  0  0
   -0.3291   -2.7068   -1.1177 O   0  0  0  0  0  0  0  0  0  0  0  0
   -1.3006   -3.1980    1.0040 C   0  0  0  0  0  0  0  0  0  0  0  0
   -1.6733   -0.5660   -0.4691 H   0  0  0  0  0  0  0  0  0  0  0  0
    0.2018   -0.9737    1.7353 H   0  0  0  0  0  0  0  0  0  0  0  0
    0.7868   -3.1171    0.5409 H   0  0  0  0  0  0  0  0  0  0  0  0
   -0.3772   -3.6599   -1.2875 H   0  0  0  0  0  0  0  0  0  0  0  0
   -2.2366   -2.6739    0.7825 H   0  0  0  0  0  0  0  0  0  0  0  0
   -1.1490   -3.2084    2.0875 H   0  0  0  0  0  0  0  0  0  0  0  0
   -1.4356   -4.2303    0.6625 H   0  0  0  0  0  0  0  0  0  0  0  0
    2.3380   -1.3069   -0.0931 N   0  0  0  0  0  0  0  0  0  0  0  0
    3.5794   -0.9564   -0.7422 C   0  0  2  0  0  0  0  0  0  0  0  0
    4.3505   -0.0286    0.1874 C   0  0  0  0  0  0  0  0  0  0  0  0
    3.8116    0.6365    1.0696 O   0  0  0  0  0  0  0  0  0  0  0  0
    3.3320   -0.2940   -2.0886 C   0  0  0  0  0  0  0  0  0  0  0  0
    2.2616   -2.2145    0.3566 H   0  0  0  0  0  0  0  0  0  0  0  0
    4.1400   -1.8878   -0.8768 H   0  0  0  0  0  0  0  0  0  0  0  0
    2.7715    0.6409   -1.9740 H   0  0  0  0  0  0  0  0  0  0  0  0
    4.2745   -0.0547   -2.5922 H   0  0  0  0  0  0  0  0  0  0  0  0
    2.7517   -0.9510   -2.7454 H   0  0  0  0  0  0  0  0  0  0  0  0
    5.7053    0.0022   -0.1121 N   0  0  0  0  0  0  0  0  0  0  0  0
    6.6471    0.8171    0.6192 C   0  0  0  0  0  0  0  0  0  0  0  0
    6.0680   -0.5964   -0.8483 H   0  0  0  0  0  0  0  0  0  0  0  0
    6.7571    1.7903    0.1185 H   0  0  0  0  0  0  0  0  0  0  0  0
    6.2793    0.9718    1.6443 H   0  0  0  0  0  0  0  0  0  0  0  0
    7.6225    0.3096    0.6524 H   0  0  0  0  0  0  0  0  0  0  0  0
  1  3  1  0  0  0  0
  1  7  1  0  0  0  0
  1  2  2  0  0  0  0
 32 33  1  0  0  0  0
 33 41  1  0  0  0  0
 33 34  2  0  0  0  0
  8  9  1  0  0  0  0
  9 17  1  0  0  0  0
  9 10  2  0  0  0  0
 18 19  1  0  0  0  0
 19 31  1  0  0  0  0
 19 20  2  0  0  0  0
 32 35  1  0  0  0  0
  8 11  1  0  0  0  0
 21 23  1  0  0  0  0
 41 42  1  0  0  0  0
 31 32  1  0  0  0  0
  7  8  1  0  0  0  0
 18 21  1  0  0  0  0
 17 18  1  0  0  0  0
 21 22  1  0  0  0  0
  3  4  1  0  0  0  0
  3  5  1  0  0  0  0
  3  6  1  0  0  0  0
 35 38  1  0  0  0  0
 35 39  1  0  0  0  0
 35 40  1  0  0  0  0
 11 14  1  0  0  0  0
 11 15  1  0  0  0  0
 11 16  1  0  0  0  0
 23 28  1  0  0  0  0
 23 29  1  0  0  0  0
 23 30  1  0  0  0  0
 42 44  1  0  0  0  0
 42 45  1  0  0  0  0
 42 46  1  0  0  0  0
 32 37  1  0  0  0  0
  8 13  1  0  0  0  0
 18 25  1  0  0  0  0
 21 26  1  0  0  0  0
 41 43  1  0  0  0  0
  7 12  1  0  0  0  0
 31 36  1  0  0  0  0
 17 24  1  0  0  0  0
 22 27  1  0  0  0  0
M  END
$$$$

  -OEChem-05262214473D

 46 45  0     1  0  0  0  0  0999 V2000
   -4.6700    2.7214    1.5150 C   0  0  0  0  0  0  0  0  0  0  0  0
   -5.4532    2.5715    0.5845 O   0  0  0  0  0  0  0  0  0  0  0  0
   -5.0996    3.4865    2.7226 C   0  0  0  0  0  0  0  0  0  0  0  0
   -4.8796    4.5629    2.6387 H   0  0  0  0  0  0  0  0  0  0  0  0
   -6.1861    3.4241    2.8954 H   0  0  0  0  0  0  0  0  0  0  0  0
   -4.6369    3.1693    3.6708 H   0  0  0  0  0  0  0  0  0  0  0  0
   -3.3731    2.2391    1.5790 N   0  0  0  0  0  0  0  0  0  0  0  0
   -2.7599    1.4751    0.5247 C   0  0  2  0  0  0  0  0  0  0  0  0
   -1.5143    0.8067    1.0915 C   0  0  0  0  0  0  0  0  0  0  0  0
   -0.9247    1.2213    2.0872 O   0  0  0  0  0  0  0  0  0  0  0  0
   -2.4106    2.3553   -0.6653 C   0  0  0  0  0  0  0  0  0  0  0  0
   -2.8254    2.4352    2.4150 H   0  0  0  0  0  0  0  0  0  0  0  0
   -3.4836    0.7082    0.2278 H   0  0  0  0  0  0  0  0  0  0  0  0
   -1.6866    3.1298   -0.3871 H   0  0  0  0  0  0  0  0  0  0  0  0
   -1.9704    1.7677   -1.4777 H   0  0  0  0  0  0  0  0  0  0  0  0
   -3.3030    2.8584   -1.0531 H   0  0  0  0  0  0  0  0  0  0  0  0
   -1.1107   -0.2839    0.3303 N   0  0  0  0  0  0  0  0  0  0  0  0
    0.0490   -1.0750    0.6539 C   0  0  2  0  0  0  0  0  0  0  0  0
    1.2453   -0.4521   -0.0599 C   0  0  0  0  0  0  0  0  0  0  0  0
    1.3104    0.7429   -0.3409 O   0  0  0  0  0  0  0  0  0  0  0  0
   -0.1198   -2.5562    0.2856 C   0  0  2  0  0  0  0  0  0  0  0  0
   -0.3291   -2.7068   -1.1177 O   0  0  0  0  0  0  0  0  0  0  0  0
   -1.3006   -3.1980    1.0040 C   0  0  0  0  0  0  0  0  0  0  0  0
   -1.6733   -0.5660   -0.4691 H   0  0  0  0  0  0  0  0  0  0  0  0
    0.2018   -0.9737    1.7353 H   0  0  0  0  0  0  0  0  0  0  0  0
    0.7868   -3.1171    0.5409 H   0  0  0  0  0  0  0  0  0  0  0  0
   -0.3772   -3.6599   -1.2875 H   0  0  0  0  0  0  0  0  0  0  0  0
   -2.2366   -2.6739    0.7825 H   0  0  0  0  0  0  0  0  0  0  0  0
   -1.1490   -3.2084    2.0875 H   0  0  0  0  0  0  0  0  0  0  0  0
   -1.4356   -4.2303    0.6625 H   0  0  0  0  0  0  0  0  0  0  0  0
    2.2077   -1.3960   -0.3892 N   0  0  0  0  0  0  0  0  0  0  0  0
    3.4186   -1.0563   -1.0988 C   0  0  2  0  0  0  0  0  0  0  0  0
    4.3886   -0.4344   -0.1029 C   0  0  0  0  0  0  0  0  0  0  0  0
    4.0268    0.0864    0.9501 O   0  0  0  0  0  0  0  0  0  0  0  0
    3.1365   -0.1035   -2.2501 C   0  0  0  0  0  0  0  0  0  0  0  0
    2.0545   -2.3636   -0.1207 H   0  0  0  0  0  0  0  0  0  0  0  0
    3.8364   -1.9949   -1.4790 H   0  0  0  0  0  0  0  0  0  0  0  0
    2.7174    0.8426   -1.8887 H   0  0  0  0  0  0  0  0  0  0  0  0
    4.0512    0.1306   -2.8046 H   0  0  0  0  0  0  0  0  0  0  0  0
    2.4159   -0.5404   -2.9499 H   0  0  0  0  0  0  0  0  0  0  0  0
    5.7018   -0.4910   -0.5484 N   0  0  0  0  0  0  0  0  0  0  0  0
    6.8070    0.0438    0.2122 C   0  0  0  0  0  0  0  0  0  0  0  0
    5.9122   -0.9584   -1.4254 H   0  0  0  0  0  0  0  0  0  0  0  0
    6.9973    1.0821   -0.0971 H   0  0  0  0  0  0  0  0  0  0  0  0
    6.5599    0.0200    1.2839 H   0  0  0  0  0  0  0  0  0  0  0  0
    7.7057   -0.5637    0.0296 H   0  0  0  0  0  0  0  0  0  0  0  0
  1  3  1  0  0  0  0
  1  7  1  0  0  0  0
  1  2  2  0  0  0  0
 32 33  1  0  0  0  0
 33 41  1  0  0  0  0
 33 34  2  0  0  0  0
  8  9  1  0  0  0  0
  9 17  1  0  0  0  0
  9 10  2  0  0  0  0
 18 19  1  0  0  0  0
 19 31  1  0  0  0  0
 19 20  2  0  0  0  0
 32 35  1  0  0  0  0
  8 11  1  0  0  0  0
 21 23  1  0  0  0  0
 41 42  1  0  0  0  0
 31 32  1  0  0  0  0
  7  8  1  0  0  0  0
 18 21  1  0  0  0  0
 17 18  1  0  0  0  0
 21 22  1  0  0  0  0
  3  4  1  0  0  0  0
  3  5  1  0  0  0  0
  3  6  1  0  0  0  0
 35 38  1  0  0  0  0
 35 39  1  0  0  0  0
 35 40  1  0  0  0  0
 11 14  1  0  0  0  0
 11 15  1  0  0  0  0
 11 16  1  0  0  0  0
 23 28  1  0  0  0  0
 23 29  1  0  0  0  0
 23 30  1  0  0  0  0
 42 44  1  0  0  0  0
 42 45  1  0  0  0  0
 42 46  1  0  0  0  0
 32 37  1  0  0  0  0
  8 13  1  0  0  0  0
 18 25  1  0  0  0  0
 21 26  1  0  0  0  0
 41 43  1  0  0  0  0
  7 12  1  0  0  0  0
 31 36  1  0  0  0  0
 17 24  1  0  0  0  0
 22 27  1  0  0  0  0
M  END
$$$$

  -OEChem-05262214473D

 46 45  0     1  0  0  0  0  0999 V2000
   -4.6700    2.7214    1.5150 C   0  0  0  0  0  0  0  0  0  0  0  0
   -5.4532    2.5715    0.5845 O   0  0  0  0  0  0  0  0  0  0  0  0
   -5.0996    3.4865    2.7226 C   0  0  0  0  0  0  0  0  0  0  0  0
   -4.8796    4.5629    2.6387 H   0  0  0  0  0  0  0  0  0  0  0  0
   -6.1861    3.4241    2.8954 H   0  0  0  0  0  0  0  0  0  0  0  0
   -4.6369    3.1693    3.6708 H   0  0  0  0  0  0  0  0  0  0  0  0
   -3.3731    2.2391    1.5790 N   0  0  0  0  0  0  0  0  0  0  0  0
   -2.7599    1.4751    0.5247 C   0  0  2  0  0  0  0  0  0  0  0  0
   -1.5143    0.8067    1.0915 C   0  0  0  0  0  0  0  0  0  0  0  0
   -0.9247    1.2213    2.0872 O   0  0  0  0  0  0  0  0  0  0  0  0
   -2.4106    2.3553   -0.6653 C   0  0  0  0  0  0  0  0  0  0  0  0
   -2.8254    2.4352    2.4150 H   0  0  0  0  0  0  0  0  0  0  0  0
   -3.4836    0.7082    0.2278 H   0  0  0  0  0  0  0  0  0  0  0  0
   -1.6866    3.1298   -0.3871 H   0  0  0  0  0  0  0  0  0  0  0  0
   -1.9704    1.7677   -1.4777 H   0  0  0  0  0  0  0  0  0  0  0  0
   -3.3030    2.8584   -1.0531 H   0  0  0  0  0  0  0  0  0  0  0  0
   -1.1107   -0.2839    0.3303 N   0  0  0  0  0  0  0  0  0  0  0  0
    0.0490   -1.0750    0.6539 C   0  0  2  0  0  0  0  0  0  0  0  0
    1.2453   -0.4521   -0.0599 C   0  0  0  0  0  0  0  0  0  0  0  0
    1.4411    0.7606   -0.1064 O   0  0  0  0  0  0  0  0  0  0  0  0
   -0.1198   -2.5562    0.2856 C   0  0  2  0  0  0  0  0  0  0  0  0
   -0.3291   -2.7068   -1.1177 O   0  0  0  0  0  0  0  0  0  0  0  0
   -1.3006   -3.1980    1.0040 C   0  0  0  0  0  0  0  0  0  0  0  0
   -1.6733   -0.5660   -0.4691 H   0  0  0  0  0  0  0  0  0  0  0  0
    0.2018   -0.9737    1.7353 H   0  0  0  0  0  0  0  0  0  0  0  0
    0.7868   -3.1171    0.5409 H   0  0  0  0  0  0  0  0  0  0  0  0
   -0.3772   -3.6599   -1.2875 H   0  0  0  0  0  0  0  0  0  0  0  0
   -2.2366   -2.6739    0.7825 H   0  0  0  0  0  0  0  0  0  0  0  0
   -1.1490   -3.2084    2.0875 H   0  0  0  0  0  0  0  0  0  0  0  0
   -1.4356   -4.2303    0.6625 H   0  0  0  0  0  0  0  0  0  0  0  0
    2.0398   -1.4063   -0.6795 N   0  0  0  0  0  0  0  0  0  0  0  0
    3.2136   -1.0609   -1.4466 C   0  0  2  0  0  0  0  0  0  0  0  0
    4.3457   -0.7722   -0.4696 C   0  0  0  0  0  0  0  0  0  0  0  0
    4.1554   -0.4468    0.7004 O   0  0  0  0  0  0  0  0  0  0  0  0
    2.9536    0.1369   -2.3468 C   0  0  0  0  0  0  0  0  0  0  0  0
    1.7859   -2.3858   -0.5901 H   0  0  0  0  0  0  0  0  0  0  0  0
    3.4666   -1.9393   -2.0503 H   0  0  0  0  0  0  0  0  0  0  0  0
    2.6986    1.0266   -1.7596 H   0  0  0  0  0  0  0  0  0  0  0  0
    3.8356    0.3797   -2.9486 H   0  0  0  0  0  0  0  0  0  0  0  0
    2.1197   -0.0617   -3.0286 H   0  0  0  0  0  0  0  0  0  0  0  0
    5.5926   -0.8785   -1.0696 N   0  0  0  0  0  0  0  0  0  0  0  0
    6.8247   -0.6399   -0.3547 C   0  0  0  0  0  0  0  0  0  0  0  0
    5.6569   -1.1722   -2.0398 H   0  0  0  0  0  0  0  0  0  0  0  0
    7.1207    0.4127   -0.4743 H   0  0  0  0  0  0  0  0  0  0  0  0
    6.6775   -0.8602    0.7129 H   0  0  0  0  0  0  0  0  0  0  0  0
    7.6144   -1.2909   -0.7579 H   0  0  0  0  0  0  0  0  0  0  0  0
  1  3  1  0  0  0  0
  1  7  1  0  0  0  0
  1  2  2  0  0  0  0
 32 33  1  0  0  0  0
 33 41  1  0  0  0  0
 33 34  2  0  0  0  0
  8  9  1  0  0  0  0
  9 17  1  0  0  0  0
  9 10  2  0  0  0  0
 18 19  1  0  0  0  0
 19 31  1  0  0  0  0
 19 20  2  0  0  0  0
 32 35  1  0  0  0  0
  8 11  1  0  0  0  0
 21 23  1  0  0  0  0
 41 42  1  0  0  0  0
 31 32  1  0  0  0  0
  7  8  1  0  0  0  0
 18 21  1  0  0  0  0
 17 18  1  0  0  0  0
 21 22  1  0  0  0  0
  3  4  1  0  0  0  0
  3  5  1  0  0  0  0
  3  6  1  0  0  0  0
 35 38  1  0  0  0  0
 35 39  1  0  0  0  0
 35 40  1  0  0  0  0
 11 14  1  0  0  0  0
 11 15  1  0  0  0  0
 11 16  1  0  0  0  0
 23 28  1  0  0  0  0
 23 29  1  0  0  0  0
 23 30  1  0  0  0  0
 42 44  1  0  0  0  0
 42 45  1  0  0  0  0
 42 46  1  0  0  0  0
 32 37  1  0  0  0  0
  8 13  1  0  0  0  0
 18 25  1  0  0  0  0
 21 26  1  0  0  0  0
 41 43  1  0  0  0  0
  7 12  1  0  0  0  0
 31 36  1  0  0  0  0
 17 24  1  0  0  0  0
 22 27  1  0  0  0  0
M  END
$$$$

  -OEChem-05262214473D

 46 45  0     1  0  0  0  0  0999 V2000
   -4.6700    2.7214    1.5150 C   0  0  0  0  0  0  0  0  0  0  0  0
   -5.4532    2.5715    0.5845 O   0  0  0  0  0  0  0  0  0  0  0  0
   -5.0996    3.4865    2.7226 C   0  0  0  0  0  0  0  0  0  0  0  0
   -4.8796    4.5629    2.6387 H   0  0  0  0  0  0  0  0  0  0  0  0
   -6.1861    3.4241    2.8954 H   0  0  0  0  0  0  0  0  0  0  0  0
   -4.6369    3.1693    3.6708 H   0  0  0  0  0  0  0  0  0  0  0  0
   -3.3731    2.2391    1.5790 N   0  0  0  0  0  0  0  0  0  0  0  0
   -2.7599    1.4751    0.5247 C   0  0  2  0  0  0  0  0  0  0  0  0
   -1.5143    0.8067    1.0915 C   0  0  0  0  0  0  0  0  0  0  0  0
   -0.9247    1.2213    2.0872 O   0  0  0  0  0  0  0  0  0  0  0  0
   -2.4106    2.3553   -0.6653 C   0  0  0  0  0  0  0  0  0  0  0  0
   -2.8254    2.4352    2.4150 H   0  0  0  0  0  0  0  0  0  0  0  0
   -3.4836    0.7082    0.2278 H   0  0  0  0  0  0  0  0  0  0  0  0
   -1.6866    3.1298   -0.3871 H   0  0  0  0  0  0  0  0  0  0  0  0
   -1.9704    1.7677   -1.4777 H   0  0  0  0  0  0  0  0  0  0  0  0
   -3.3030    2.8584   -1.0531 H   0  0  0  0  0  0  0  0  0  0  0  0
   -1.1107   -0.2839    0.3303 N   0  0  0  0  0  0  0  0  0  0  0  0
    0.0490   -1.0750    0.6539 C   0  0  2  0  0  0  0  0  0  0  0  0
    1.2453   -0.4521   -0.0599 C   0  0  0  0  0  0  0  0  0  0  0  0
    1.5942    0.7144    0.1099 O   0  0  0  0  0  0  0  0  0  0  0  0
   -0.1198   -2.5562    0.2856 C   0  0  2  0  0  0  0  0  0  0  0  0
   -0.3291   -2.7068   -1.1177 O   0  0  0  0  0  0  0  0  0  0  0  0
   -1.3006   -3.1980    1.0040 C   0  0  0  0  0  0  0  0  0  0  0  0
   -1.6733   -0.5660   -0.4691 H   0  0  0  0  0  0  0  0  0  0  0  0
    0.2018   -0.9737    1.7353 H   0  0  0  0  0  0  0  0  0  0  0  0
    0.7868   -3.1171    0.5409 H   0  0  0  0  0  0  0  0  0  0  0  0
   -0.3772   -3.6599   -1.2875 H   0  0  0  0  0  0  0  0  0  0  0  0
   -2.2366   -2.6739    0.7825 H   0  0  0  0  0  0  0  0  0  0  0  0
   -1.1490   -3.2084    2.0875 H   0  0  0  0  0  0  0  0  0  0  0  0
   -1.4356   -4.2303    0.6625 H   0  0  0  0  0  0  0  0  0  0  0  0
    1.8458   -1.3369   -0.9443 N   0  0  0  0  0  0  0  0  0  0  0  0
    2.9782   -0.9701   -1.7618 C   0  0  2  0  0  0  0  0  0  0  0  0
    4.2246   -1.0188   -0.8879 C   0  0  0  0  0  0  0  0  0  0  0  0
    4.1887   -0.9267    0.3374 O   0  0  0  0  0  0  0  0  0  0  0  0
    2.7959    0.4109   -2.3720 C   0  0  0  0  0  0  0  0  0  0  0  0
    1.4743   -2.2794   -1.0196 H   0  0  0  0  0  0  0  0  0  0  0  0
    3.0557   -1.7249   -2.5518 H   0  0  0  0  0  0  0  0  0  0  0  0
    2.7163    1.1805   -1.5956 H   0  0  0  0  0  0  0  0  0  0  0  0
    3.6423    0.6757   -3.0144 H   0  0  0  0  0  0  0  0  0  0  0  0
    1.8832    0.4526   -2.9762 H   0  0  0  0  0  0  0  0  0  0  0  0
    5.3852   -1.1339   -1.6401 N   0  0  0  0  0  0  0  0  0  0  0  0
    6.6992   -1.1875   -1.0429 C   0  0  0  0  0  0  0  0  0  0  0  0
    5.3195   -1.2231   -2.6497 H   0  0  0  0  0  0  0  0  0  0  0  0
    7.1191   -0.1723   -0.9876 H   0  0  0  0  0  0  0  0  0  0  0  0
    6.6243   -1.6089   -0.0296 H   0  0  0  0  0  0  0  0  0  0  0  0
    7.3551   -1.8225   -1.6565 H   0  0  0  0  0  0  0  0  0  0  0  0
  1  3  1  0  0  0  0
  1  7  1  0  0  0  0
  1  2  2  0  0  0  0
 32 33  1  0  0  0  0
 33 41  1  0  0  0  0
 33 34  2  0  0  0  0
  8  9  1  0  0  0  0
  9 17  1  0  0  0  0
  9 10  2  0  0  0  0
 18 19  1  0  0  0  0
 19 31  1  0  0  0  0
 19 20  2  0  0  0  0
 32 35  1  0  0  0  0
  8 11  1  0  0  0  0
 21 23  1  0  0  0  0
 41 42  1  0  0  0  0
 31 32  1  0  0  0  0
  7  8  1  0  0  0  0
 18 21  1  0  0  0  0
 17 18  1  0  0  0  0
 21 22  1  0  0  0  0
  3  4  1  0  0  0  0
  3  5  1  0  0  0  0
  3  6  1  0  0  0  0
 35 38  1  0  0  0  0
 35 39  1  0  0  0  0
 35 40  1  0  0  0  0
 11 14  1  0  0  0  0
 11 15  1  0  0  0  0
 11 16  1  0  0  0  0
 23 28  1  0  0  0  0
 23 29  1  0  0  0  0
 23 30  1  0  0  0  0
 42 44  1  0  0  0  0
 42 45  1  0  0  0  0
 42 46  1  0  0  0  0
 32 37  1  0  0  0  0
  8 13  1  0  0  0  0
 18 25  1  0  0  0  0
 21 26  1  0  0  0  0
 41 43  1  0  0  0  0
  7 12  1  0  0  0  0
 31 36  1  0  0  0  0
 17 24  1  0  0  0  0
 22 27  1  0  0  0  0
M  END
$$$$

  -OEChem-05262214473D

 46 45  0     1  0  0  0  0  0999 V2000
   -4.6700    2.7214    1.5150 C   0  0  0  0  0  0  0  0  0  0  0  0
   -5.4532    2.5715    0.5845 O   0  0  0  0  0  0  0  0  0  0  0  0
   -5.0996    3.4865    2.7226 C   0  0  0  0  0  0  0  0  0  0  0  0
   -4.8796    4.5629    2.6387 H   0  0  0  0  0  0  0  0  0  0  0  0
   -6.1861    3.4241    2.8954 H   0  0  0  0  0  0  0  0  0  0  0  0
   -4.6369    3.1693    3.6708 H   0  0  0  0  0  0  0  0  0  0  0  0
   -3.3731    2.2391    1.5790 N   0  0  0  0  0  0  0  0  0  0  0  0
   -2.7599    1.4751    0.5247 C   0  0  2  0  0  0  0  0  0  0  0  0
   -1.5143    0.8067    1.0915 C   0  0  0  0  0  0  0  0  0  0  0  0
   -0.9247    1.2213    2.0872 O   0  0  0  0  0  0  0  0  0  0  0  0
   -2.4106    2.3553   -0.6653 C   0  0  0  0  0  0  0  0  0  0  0  0
   -2.8254    2.4352    2.4150 H   0  0  0  0  0  0  0  0  0  0  0  0
   -3.4836    0.7082    0.2278 H   0  0  0  0  0  0  0  0  0  0  0  0
   -1.6866    3.1298   -0.3871 H   0  0  0  0  0  0  0  0  0  0  0  0
   -1.9704    1.7677   -1.4777 H   0  0  0  0  0  0  0  0  0  0  0  0
   -3.3030    2.8584   -1.0531 H   0  0  0  0  0  0  0  0  0  0  0  0
   -1.1107   -0.2839    0.3303 N   0  0  0  0  0  0  0  0  0  0  0  0
    0.0490   -1.0750    0.6539 C   0  0  2  0  0  0  0  0  0  0  0  0
    1.2453   -0.4521   -0.0599 C   0  0  0  0  0  0  0  0  0  0  0  0
    1.7594    0.6072    0.2933 O   0  0  0  0  0  0  0  0  0  0  0  0
   -0.1198   -2.5562    0.2856 C   0  0  2  0  0  0  0  0  0  0  0  0
   -0.3291   -2.7068   -1.1177 O   0  0  0  0  0  0  0  0  0  0  0  0
   -1.3006   -3.1980    1.0040 C   0  0  0  0  0  0  0  0  0  0  0  0
   -1.6733   -0.5660   -0.4691 H   0  0  0  0  0  0  0  0  0  0  0  0
    0.2018   -0.9737    1.7353 H   0  0  0  0  0  0  0  0  0  0  0  0
    0.7868   -3.1171    0.5409 H   0  0  0  0  0  0  0  0  0  0  0  0
   -0.3772   -3.6599   -1.2875 H   0  0  0  0  0  0  0  0  0  0  0  0
   -2.2366   -2.6739    0.7825 H   0  0  0  0  0  0  0  0  0  0  0  0
   -1.1490   -3.2084    2.0875 H   0  0  0  0  0  0  0  0  0  0  0  0
   -1.4356   -4.2303    0.6625 H   0  0  0  0  0  0  0  0  0  0  0  0
    1.6387   -1.1928   -1.1655 N   0  0  0  0  0  0  0  0  0  0  0  0
    2.7286   -0.7899   -2.0229 C   0  0  2  0  0  0  0  0  0  0  0  0
    4.0335   -1.1575   -1.3291 C   0  0  0  0  0  0  0  0  0  0  0  0
    4.1244   -1.3207   -0.1141 O   0  0  0  0  0  0  0  0  0  0  0  0
    2.6740    0.6997   -2.3242 C   0  0  0  0  0  0  0  0  0  0  0  0
    1.1407   -2.0517   -1.3800 H   0  0  0  0  0  0  0  0  0  0  0  0
    2.6318   -1.3664   -2.9494 H   0  0  0  0  0  0  0  0  0  0  0  0
    2.7694    1.2937   -1.4079 H   0  0  0  0  0  0  0  0  0  0  0  0
    3.4844    0.9983   -2.9974 H   0  0  0  0  0  0  0  0  0  0  0  0
    1.7225    0.9673   -2.7962 H   0  0  0  0  0  0  0  0  0  0  0  0
    5.0937   -1.2397   -2.2210 N   0  0  0  0  0  0  0  0  0  0  0  0
    6.4389   -1.5615   -1.8055 C   0  0  0  0  0  0  0  0  0  0  0  0
    4.9230   -1.1077   -3.2136 H   0  0  0  0  0  0  0  0  0  0  0  0
    6.9925   -0.6330   -1.6019 H   0  0  0  0  0  0  0  0  0  0  0  0
    6.4039   -2.1749   -0.8930 H   0  0  0  0  0  0  0  0  0  0  0  0
    6.9453   -2.1222   -2.6050 H   0  0  0  0  0  0  0  0  0  0  0  0
  1  3  1  0  0  0  0
  1  7  1  0  0  0  0
  1  2  2  0  0  0  0
 32 33  1  0  0  0  0
 33 41  1  0  0  0  0
 33 34  2  0  0  0  0
  8  9  1  0  0  0  0
  9 17  1  0  0  0  0
  9 10  2  0  0  0  0
 18 19  1  0  0  0  0
 19 31  1  0  0  0  0
 19 20  2  0  0  0  0
 32 35  1  0  0  0  0
  8 11  1  0  0  0  0
 21 23  1  0  0  0  0
 41 42  1  0  0  0  0
 31 32  1  0  0  0  0
  7  8  1  0  0  0  0
 18 21  1  0  0  0  0
 17 18  1  0  0  0  0
 21 22  1  0  0  0  0
  3  4  1  0  0  0  0
  3  5  1  0  0  0  0
  3  6  1  0  0  0  0
 35 38  1  0  0  0  0
 35 39  1  0  0  0  0
 35 40  1  0  0  0  0
 11 14  1  0  0  0  0
 11 15  1  0  0  0  0
 11 16  1  0  0  0  0
 23 28  1  0  0  0  0
 23 29  1  0  0  0  0
 23 30  1  0  0  0  0
 42 44  1  0  0  0  0
 42 45  1  0  0  0  0
 42 46  1  0  0  0  0
 32 37  1  0  0  0  0
  8 13  1  0  0  0  0
 18 25  1  0  0  0  0
 21 26  1  0  0  0  0
 41 43  1  0  0  0  0
  7 12  1  0  0  0  0
 31 36  1  0  0  0  0
 17 24  1  0  0  0  0
 22 27  1  0  0  0  0
M  END
$$$$

  -OEChem-05262214473D

 46 45  0     1  0  0  0  0  0999 V2000
   -4.6700    2.7214    1.5150 C   0  0  0  0  0  0  0  0  0  0  0  0
   -5.4532    2.5715    0.5845 O   0  0  0  0  0  0  0  0  0  0  0  0
   -5.0996    3.4865    2.7226 C   0  0  0  0  0  0  0  0  0  0  0  0
   -4.8796    4.5629    2.6387 H   0  0  0  0  0  0  0  0  0  0  0  0
   -6.1861    3.4241    2.8954 H   0  0  0  0  0  0  0  0  0  0  0  0
   -4.6369    3.1693    3.6708 H   0  0  0  0  0  0  0  0  0  0  0  0
   -3.3731    2.2391    1.5790 N   0  0  0  0  0  0  0  0  0  0  0  0
   -2.7599    1.4751    0.5247 C   0  0  2  0  0  0  0  0  0  0  0  0
   -1.5143    0.8067    1.0915 C   0  0  0  0  0  0  0  0  0  0  0  0
   -0.9247    1.2213    2.0872 O   0  0  0  0  0  0  0  0  0  0  0  0
   -2.4106    2.3553   -0.6653 C   0  0  0  0  0  0  0  0  0  0  0  0
   -2.8254    2.4352    2.4150 H   0  0  0  0  0  0  0  0  0  0  0  0
   -3.4836    0.7082    0.2278 H   0  0  0  0  0  0  0  0  0  0  0  0
   -1.6866    3.1298   -0.3871 H   0  0  0  0  0  0  0  0  0  0  0  0
   -1.9704    1.7677   -1.4777 H   0  0  0  0  0  0  0  0  0  0  0  0
   -3.3030    2.8584   -1.0531 H   0  0  0  0  0  0  0  0  0  0  0  0
   -1.1107   -0.2839    0.3303 N   0  0  0  0  0  0  0  0  0  0  0  0
    0.0490   -1.0750    0.6539 C   0  0  2  0  0  0  0  0  0  0  0  0
    1.2453   -0.4521   -0.0599 C   0  0  0  0  0  0  0  0  0  0  0  0
    1.9253    0.4466    0.4312 O   0  0  0  0  0  0  0  0  0  0  0  0
   -0.1198   -2.5562    0.2856 C   0  0  2  0  0  0  0  0  0  0  0  0
   -0.3291   -2.7068   -1.1177 O   0  0  0  0  0  0  0  0  0  0  0  0
   -1.3006   -3.1980    1.0040 C   0  0  0  0  0  0  0  0  0  0  0  0
   -1.6733   -0.5660   -0.4691 H   0  0  0  0  0  0  0  0  0  0  0  0
    0.2018   -0.9737    1.7353 H   0  0  0  0  0  0  0  0  0  0  0  0
    0.7868   -3.1171    0.5409 H   0  0  0  0  0  0  0  0  0  0  0  0
   -0.3772   -3.6599   -1.2875 H   0  0  0  0  0  0  0  0  0  0  0  0
   -2.2366   -2.6739    0.7825 H   0  0  0  0  0  0  0  0  0  0  0  0
   -1.1490   -3.2084    2.0875 H   0  0  0  0  0  0  0  0  0  0  0  0
   -1.4356   -4.2303    0.6625 H   0  0  0  0  0  0  0  0  0  0  0  0
    1.4328   -0.9835   -1.3280 N   0  0  0  0  0  0  0  0  0  0  0  0
    2.4817   -0.5326   -2.2122 C   0  0  2  0  0  0  0  0  0  0  0  0
    3.7856   -1.1788   -1.7633 C   0  0  0  0  0  0  0  0  0  0  0  0
    3.9669   -1.6018   -0.6234 O   0  0  0  0  0  0  0  0  0  0  0  0
    2.5964    0.9838   -2.2065 C   0  0  0  0  0  0  0  0  0  0  0  0
    0.8080   -1.7183   -1.6466 H   0  0  0  0  0  0  0  0  0  0  0  0
    2.2238   -0.8881   -3.2158 H   0  0  0  0  0  0  0  0  0  0  0  0
    2.8542    1.3585   -1.2092 H   0  0  0  0  0  0  0  0  0  0  0  0
    3.3728    1.3256   -2.8989 H   0  0  0  0  0  0  0  0  0  0  0  0
    1.6487    1.4475   -2.5010 H   0  0  0  0  0  0  0  0  0  0  0  0
    4.7379   -1.1887   -2.7728 N   0  0  0  0  0  0  0  0  0  0  0  0
    6.0617   -1.7366   -2.5905 C   0  0  0  0  0  0  0  0  0  0  0  0
    4.4944   -0.8338   -3.6929 H   0  0  0  0  0  0  0  0  0  0  0  0
    6.7495   -0.9380   -2.2753 H   0  0  0  0  0  0  0  0  0  0  0  0
    6.0312   -2.5198   -1.8187 H   0  0  0  0  0  0  0  0  0  0  0  0
    6.4129   -2.1697   -3.5387 H   0  0  0  0  0  0  0  0  0  0  0  0
  1  3  1  0  0  0  0
  1  7  1  0  0  0  0
  1  2  2  0  0  0  0
 32 33  1  0  0  0  0
 33 41  1  0  0  0  0
 33 34  2  0  0  0  0
  8  9  1  0  0  0  0
  9 17  1  0  0  0  0
  9 10  2  0  0  0  0
 18 19  1  0  0  0  0
 19 31  1  0  0  0  0
 19 20  2  0  0  0  0
 32 35  1  0  0  0  0
  8 11  1  0  0  0  0
 21 23  1  0  0  0  0
 41 42  1  0  0  0  0
 31 32  1  0  0  0  0
  7  8  1  0  0  0  0
 18 21  1  0  0  0  0
 17 18  1  0  0  0  0
 21 22  1  0  0  0  0
  3  4  1  0  0  0  0
  3  5  1  0  0  0  0
  3  6  1  0  0  0  0
 35 38  1  0  0  0  0
 35 39  1  0  0  0  0
 35 40  1  0  0  0  0
 11 14  1  0  0  0  0
 11 15  1  0  0  0  0
 11 16  1  0  0  0  0
 23 28  1  0  0  0  0
 23 29  1  0  0  0  0
 23 30  1  0  0  0  0
 42 44  1  0  0  0  0
 42 45  1  0  0  0  0
 42 46  1  0  0  0  0
 32 37  1  0  0  0  0
  8 13  1  0  0  0  0
 18 25  1  0  0  0  0
 21 26  1  0  0  0  0
 41 43  1  0  0  0  0
  7 12  1  0  0  0  0
 31 36  1  0  0  0  0
 17 24  1  0  0  0  0
 22 27  1  0  0  0  0
M  END
$$$$

  -OEChem-05262214473D

 46 45  0     1  0  0  0  0  0999 V2000
   -4.6700    2.7214    1.5150 C   0  0  0  0  0  0  0  0  0  0  0  0
   -5.4532    2.5715    0.5845 O   0  0  0  0  0  0  0  0  0  0  0  0
   -5.0996    3.4865    2.7226 C   0  0  0  0  0  0  0  0  0  0  0  0
   -4.8796    4.5629    2.6387 H   0  0  0  0  0  0  0  0  0  0  0  0
   -6.1861    3.4241    2.8954 H   0  0  0  0  0  0  0  0  0  0  0  0
   -4.6369    3.1693    3.6708 H   0  0  0  0  0  0  0  0  0  0  0  0
   -3.3731    2.2391    1.5790 N   0  0  0  0  0  0  0  0  0  0  0  0
   -2.7599    1.4751    0.5247 C   0  0  2  0  0  0  0  0  0  0  0  0
   -1.5143    0.8067    1.0915 C   0  0  0  0  0  0  0  0  0  0  0  0
   -0.9247    1.2213    2.0872 O   0  0  0  0  0  0  0  0  0  0  0  0
   -2.4106    2.3553   -0.6653 C   0  0  0  0  0  0  0  0  0  0  0  0
   -2.8254    2.4352    2.4150 H   0  0  0  0  0  0  0  0  0  0  0  0
   -3.4836    0.7082    0.2278 H   0  0  0  0  0  0  0  0  0  0  0  0
   -1.6866    3.1298   -0.3871 H   0  0  0  0  0  0  0  0  0  0  0  0
   -1.9704    1.7677   -1.4777 H   0  0  0  0  0  0  0  0  0  0  0  0
   -3.3030    2.8584   -1.0531 H   0  0  0  0  0  0  0  0  0  0  0  0
   -1.1107   -0.2839    0.3303 N   0  0  0  0  0  0  0  0  0  0  0  0
    0.0490   -1.0750    0.6539 C   0  0  2  0  0  0  0  0  0  0  0  0
    1.2453   -0.4521   -0.0599 C   0  0  0  0  0  0  0  0  0  0  0  0
    2.0807    0.2433    0.5143 O   0  0  0  0  0  0  0  0  0  0  0  0
   -0.1198   -2.5562    0.2856 C   0  0  2  0  0  0  0  0  0  0  0  0
   -0.3291   -2.7068   -1.1177 O   0  0  0  0  0  0  0  0  0  0  0  0
   -1.3006   -3.1980    1.0040 C   0  0  0  0  0  0  0  0  0  0  0  0
   -1.6733   -0.5660   -0.4691 H   0  0  0  0  0  0  0  0  0  0  0  0
    0.2018   -0.9737    1.7353 H   0  0  0  0  0  0  0  0  0  0  0  0
    0.7868   -3.1171    0.5409 H   0  0  0  0  0  0  0  0  0  0  0  0
   -0.3772   -3.6599   -1.2875 H   0  0  0  0  0  0  0  0  0  0  0  0
   -2.2366   -2.6739    0.7825 H   0  0  0  0  0  0  0  0  0  0  0  0
   -1.1490   -3.2084    2.0875 H   0  0  0  0  0  0  0  0  0  0  0  0
   -1.4356   -4.2303    0.6625 H   0  0  0  0  0  0  0  0  0  0  0  0
    1.2421   -0.7236   -1.4207 N   0  0  0  0  0  0  0  0  0  0  0  0
    2.2543   -0.2158   -2.3168 C   0  0  2  0  0  0  0  0  0  0  0  0
    3.4977   -1.0813   -2.1607 C   0  0  0  0  0  0  0  0  0  0  0  0
    3.7270   -1.7509   -1.1557 O   0  0  0  0  0  0  0  0  0  0  0  0
    2.5681    1.2437   -2.0269 C   0  0  0  0  0  0  0  0  0  0  0  0
    0.4989   -1.3019   -1.8014 H   0  0  0  0  0  0  0  0  0  0  0  0
    1.8594   -0.3226   -3.3330 H   0  0  0  0  0  0  0  0  0  0  0  0
    2.9649    1.3706   -1.0131 H   0  0  0  0  0  0  0  0  0  0  0  0
    3.3150    1.6353   -2.7255 H   0  0  0  0  0  0  0  0  0  0  0  0
    1.6667    1.8603   -2.1105 H   0  0  0  0  0  0  0  0  0  0  0  0
    4.3421   -0.9844   -3.2578 N   0  0  0  0  0  0  0  0  0  0  0  0
    5.5932   -1.7008   -3.3444 C   0  0  0  0  0  0  0  0  0  0  0  0
    4.0630   -0.4201   -4.0550 H   0  0  0  0  0  0  0  0  0  0  0  0
    6.4067   -1.0666   -2.9621 H   0  0  0  0  0  0  0  0  0  0  0  0
    5.5316   -2.6200   -2.7434 H   0  0  0  0  0  0  0  0  0  0  0  0
    5.7943   -1.9617   -4.3939 H   0  0  0  0  0  0  0  0  0  0  0  0
  1  3  1  0  0  0  0
  1  7  1  0  0  0  0
  1  2  2  0  0  0  0
 32 33  1  0  0  0  0
 33 41  1  0  0  0  0
 33 34  2  0  0  0  0
  8  9  1  0  0  0  0
  9 17  1  0  0  0  0
  9 10  2  0  0  0  0
 18 19  1  0  0  0  0
 19 31  1  0  0  0  0
 19 20  2  0  0  0  0
 32 35  1  0  0  0  0
  8 11  1  0  0  0  0
 21 23  1  0  0  0  0
 41 42  1  0  0  0  0
 31 32  1  0  0  0  0
  7  8  1  0  0  0  0
 18 21  1  0  0  0  0
 17 18  1  0  0  0  0
 21 22  1  0  0  0  0
  3  4  1  0  0  0  0
  3  5  1  0  0  0  0
  3  6  1  0  0  0  0
 35 38  1  0  0  0  0
 35 39  1  0  0  0  0
 35 40  1  0  0  0  0
 11 14  1  0  0  0  0
 11 15  1  0  0  0  0
 11 16  1  0  0  0  0
 23 28  1  0  0  0  0
 23 29  1  0  0  0  0
 23 30  1  0  0  0  0
 42 44  1  0  0  0  0
 42 45  1  0  0  0  0
 42 46  1  0  0  0  0
 32 37  1  0  0  0  0
  8 13  1  0  0  0  0
 18 25  1  0  0  0  0
 21 26  1  0  0  0  0
 41 43  1  0  0  0  0
  7 12  1  0  0  0  0
 31 36  1  0  0  0  0
 17 24  1  0  0  0  0
 22 27  1  0  0  0  0
M  END
$$$$

  -OEChem-05262214473D

 46 45  0     1  0  0  0  0  0999 V2000
   -4.6700    2.7214    1.5150 C   0  0  0  0  0  0  0  0  0  0  0  0
   -5.4532    2.5715    0.5845 O   0  0  0  0  0  0  0  0  0  0  0  0
   -5.0996    3.4865    2.7226 C   0  0  0  0  0  0  0  0  0  0  0  0
   -4.8796    4.5629    2.6387 H   0  0  0  0  0  0  0  0  0  0  0  0
   -6.1861    3.4241    2.8954 H   0  0  0  0  0  0  0  0  0  0  0  0
   -4.6369    3.1693    3.6708 H   0  0  0  0  0  0  0  0  0  0  0  0
   -3.3731    2.2391    1.5790 N   0  0  0  0  0  0  0  0  0  0  0  0
   -2.7599    1.4751    0.5247 C   0  0  2  0  0  0  0  0  0  0  0  0
   -1.5143    0.8067    1.0915 C   0  0  0  0  0  0  0  0  0  0  0  0
   -0.9247    1.2213    2.0872 O   0  0  0  0  0  0  0  0  0  0  0  0
   -2.4106    2.3553   -0.6653 C   0  0  0  0  0  0  0  0  0  0  0  0
   -2.8254    2.4352    2.4150 H   0  0  0  0  0  0  0  0  0  0  0  0
   -3.4836    0.7082    0.2278 H   0  0  0  0  0  0  0  0  0  0  0  0
   -1.6866    3.1298   -0.3871 H   0  0  0  0  0  0  0  0  0  0  0  0
   -1.9704    1.7677   -1.4777 H   0  0  0  0  0  0  0  0  0  0  0  0
   -3.3030    2.8584   -1.0531 H   0  0  0  0  0  0  0  0  0  0  0  0
   -1.1107   -0.2839    0.3303 N   0  0  0  0  0  0  0  0  0  0  0  0
    0.0490   -1.0750    0.6539 C   0  0  2  0  0  0  0  0  0  0  0  0
    1.2453   -0.4521   -0.0599 C   0  0  0  0  0  0  0  0  0  0  0  0
    2.2150    0.0113    0.5369 O   0  0  0  0  0  0  0  0  0  0  0  0
   -0.1198   -2.5562    0.2856 C   0  0  2  0  0  0  0  0  0  0  0  0
   -0.3291   -2.7068   -1.1177 O   0  0  0  0  0  0  0  0  0  0  0  0
   -1.3006   -3.1980    1.0040 C   0  0  0  0  0  0  0  0  0  0  0  0
   -1.6733   -0.5660   -0.4691 H   0  0  0  0  0  0  0  0  0  0  0  0
    0.2018   -0.9737    1.7353 H   0  0  0  0  0  0  0  0  0  0  0  0
    0.7868   -3.1171    0.5409 H   0  0  0  0  0  0  0  0  0  0  0  0
   -0.3772   -3.6599   -1.2875 H   0  0  0  0  0  0  0  0  0  0  0  0
   -2.2366   -2.6739    0.7825 H   0  0  0  0  0  0  0  0  0  0  0  0
   -1.1490   -3.2084    2.0875 H   0  0  0  0  0  0  0  0  0  0  0  0
   -1.4356   -4.2303    0.6625 H   0  0  0  0  0  0  0  0  0  0  0  0
    1.0796   -0.4305   -1.4374 N   0  0  0  0  0  0  0  0  0  0  0  0
    2.0620    0.1390   -2.3295 C   0  0  2  0  0  0  0  0  0  0  0  0
    3.1893   -0.8716   -2.4945 C   0  0  0  0  0  0  0  0  0  0  0  0
    3.4209   -1.7580   -1.6748 O   0  0  0  0  0  0  0  0  0  0  0  0
    2.5913    1.4618   -1.7978 C   0  0  0  0  0  0  0  0  0  0  0  0
    0.2343   -0.8309   -1.8338 H   0  0  0  0  0  0  0  0  0  0  0  0
    1.5636    0.2915   -3.2930 H   0  0  0  0  0  0  0  0  0  0  0  0
    3.0941    1.3290   -0.8329 H   0  0  0  0  0  0  0  0  0  0  0  0
    3.3149    1.9063   -2.4891 H   0  0  0  0  0  0  0  0  0  0  0  0
    1.7753    2.1776   -1.6516 H   0  0  0  0  0  0  0  0  0  0  0  0
    3.9333   -0.6407   -3.6431 N   0  0  0  0  0  0  0  0  0  0  0  0
    5.0654   -1.4564   -4.0159 C   0  0  0  0  0  0  0  0  0  0  0  0
    3.6580    0.1052   -4.2752 H   0  0  0  0  0  0  0  0  0  0  0  0
    5.9875   -1.0100   -3.6153 H   0  0  0  0  0  0  0  0  0  0  0  0
    4.9393   -2.4686   -3.6041 H   0  0  0  0  0  0  0  0  0  0  0  0
    5.1316   -1.5124   -5.1125 H   0  0  0  0  0  0  0  0  0  0  0  0
  1  3  1  0  0  0  0
  1  7  1  0  0  0  0
  1  2  2  0  0  0  0
 32 33  1  0  0  0  0
 33 41  1  0  0  0  0
 33 34  2  0  0  0  0
  8  9  1  0  0  0  0
  9 17  1  0  0  0  0
  9 10  2  0  0  0  0
 18 19  1  0  0  0  0
 19 31  1  0  0  0  0
 19 20  2  0  0  0  0
 32 35  1  0  0  0  0
  8 11  1  0  0  0  0
 21 23  1  0  0  0  0
 41 42  1  0  0  0  0
 31 32  1  0  0  0  0
  7  8  1  0  0  0  0
 18 21  1  0  0  0  0
 17 18  1  0  0  0  0
 21 22  1  0  0  0  0
  3  4  1  0  0  0  0
  3  5  1  0  0  0  0
  3  6  1  0  0  0  0
 35 38  1  0  0  0  0
 35 39  1  0  0  0  0
 35 40  1  0  0  0  0
 11 14  1  0  0  0  0
 11 15  1  0  0  0  0
 11 16  1  0  0  0  0
 23 28  1  0  0  0  0
 23 29  1  0  0  0  0
 23 30  1  0  0  0  0
 42 44  1  0  0  0  0
 42 45  1  0  0  0  0
 42 46  1  0  0  0  0
 32 37  1  0  0  0  0
  8 13  1  0  0  0  0
 18 25  1  0  0  0  0
 21 26  1  0  0  0  0
 41 43  1  0  0  0  0
  7 12  1  0  0  0  0
 31 36  1  0  0  0  0
 17 24  1  0  0  0  0
 22 27  1  0  0  0  0
M  END
$$$$

  -OEChem-05262214473D

 46 45  0     1  0  0  0  0  0999 V2000
   -4.6700    2.7214    1.5150 C   0  0  0  0  0  0  0  0  0  0  0  0
   -5.4532    2.5715    0.5845 O   0  0  0  0  0  0  0  0  0  0  0  0
   -5.0996    3.4865    2.7226 C   0  0  0  0  0  0  0  0  0  0  0  0
   -4.8796    4.5629    2.6387 H   0  0  0  0  0  0  0  0  0  0  0  0
   -6.1861    3.4241    2.8954 H   0  0  0  0  0  0  0  0  0  0  0  0
   -4.6369    3.1693    3.6708 H   0  0  0  0  0  0  0  0  0  0  0  0
   -3.3731    2.2391    1.5790 N   0  0  0  0  0  0  0  0  0  0  0  0
   -2.7599    1.4751    0.5247 C   0  0  2  0  0  0  0  0  0  0  0  0
   -1.5143    0.8067    1.0915 C   0  0  0  0  0  0  0  0  0  0  0  0
   -0.9247    1.2213    2.0872 O   0  0  0  0  0  0  0  0  0  0  0  0
   -2.4106    2.3553   -0.6653 C   0  0  0  0  0  0  0  0  0  0  0  0
   -2.8254    2.4352    2.4150 H   0  0  0  0  0  0  0  0  0  0  0  0
   -3.4836    0.7082    0.2278 H   0  0  0  0  0  0  0  0  0  0  0  0
   -1.6866    3.1298   -0.3871 H   0  0  0  0  0  0  0  0  0  0  0  0
   -1.9704    1.7677   -1.4777 H   0  0  0  0  0  0  0  0  0  0  0  0
   -3.3030    2.8584   -1.0531 H   0  0  0  0  0  0  0  0  0  0  0  0
   -1.1107   -0.2839    0.3303 N   0  0  0  0  0  0  0  0  0  0  0  0
    0.0490   -1.0750    0.6539 C   0  0  2  0  0  0  0  0  0  0  0  0
    1.2453   -0.4521   -0.0599 C   0  0  0  0  0  0  0  0  0  0  0  0
    2.3190   -0.2336    0.4975 O   0  0  0  0  0  0  0  0  0  0  0  0
   -0.1198   -2.5562    0.2856 C   0  0  2  0  0  0  0  0  0  0  0  0
   -0.3291   -2.7068   -1.1177 O   0  0  0  0  0  0  0  0  0  0  0  0
   -1.3006   -3.1980    1.0040 C   0  0  0  0  0  0  0  0  0  0  0  0
   -1.6733   -0.5660   -0.4691 H   0  0  0  0  0  0  0  0  0  0  0  0
    0.2018   -0.9737    1.7353 H   0  0  0  0  0  0  0  0  0  0  0  0
    0.7868   -3.1171    0.5409 H   0  0  0  0  0  0  0  0  0  0  0  0
   -0.3772   -3.6599   -1.2875 H   0  0  0  0  0  0  0  0  0  0  0  0
   -2.2366   -2.6739    0.7825 H   0  0  0  0  0  0  0  0  0  0  0  0
   -1.1490   -3.2084    2.0875 H   0  0  0  0  0  0  0  0  0  0  0  0
   -1.4356   -4.2303    0.6625 H   0  0  0  0  0  0  0  0  0  0  0  0
    0.9563   -0.1244   -1.3769 N   0  0  0  0  0  0  0  0  0  0  0  0
    1.9179    0.5075   -2.2495 C   0  0  2  0  0  0  0  0  0  0  0  0
    2.8817   -0.5640   -2.7418 C   0  0  0  0  0  0  0  0  0  0  0  0
    3.0696   -1.6223   -2.1453 O   0  0  0  0  0  0  0  0  0  0  0  0
    2.6643    1.6231   -1.5347 C   0  0  0  0  0  0  0  0  0  0  0  0
    0.0323   -0.3373   -1.7415 H   0  0  0  0  0  0  0  0  0  0  0  0
    1.3563    0.9124   -3.0985 H   0  0  0  0  0  0  0  0  0  0  0  0
    3.2329    1.2366   -0.6809 H   0  0  0  0  0  0  0  0  0  0  0  0
    3.3727    2.1200   -2.2058 H   0  0  0  0  0  0  0  0  0  0  0  0
    1.9671    2.3779   -1.1553 H   0  0  0  0  0  0  0  0  0  0  0  0
    3.5393   -0.1811   -3.9023 N   0  0  0  0  0  0  0  0  0  0  0  0
    4.5142   -1.0203   -4.5591 C   0  0  0  0  0  0  0  0  0  0  0  0
    3.3072    0.7064   -4.3386 H   0  0  0  0  0  0  0  0  0  0  0  0
    5.5204   -0.7720   -4.1904 H   0  0  0  0  0  0  0  0  0  0  0  0
    4.2945   -2.0761   -4.3422 H   0  0  0  0  0  0  0  0  0  0  0  0
    4.4700   -0.8523   -5.6453 H   0  0  0  0  0  0  0  0  0  0  0  0
  1  3  1  0  0  0  0
  1  7  1  0  0  0  0
  1  2  2  0  0  0  0
 32 33  1  0  0  0  0
 33 41  1  0  0  0  0
 33 34  2  0  0  0  0
  8  9  1  0  0  0  0
  9 17  1  0  0  0  0
  9 10  2  0  0  0  0
 18 19  1  0  0  0  0
 19 31  1  0  0  0  0
 19 20  2  0  0  0  0
 32 35  1  0  0  0  0
  8 11  1  0  0  0  0
 21 23  1  0  0  0  0
 41 42  1  0  0  0  0
 31 32  1  0  0  0  0
  7  8  1  0  0  0  0
 18 21  1  0  0  0  0
 17 18  1  0  0  0  0
 21 22  1  0  0  0  0
  3  4  1  0  0  0  0
  3  5  1  0  0  0  0
  3  6  1  0  0  0  0
 35 38  1  0  0  0  0
 35 39  1  0  0  0  0
 35 40  1  0  0  0  0
 11 14  1  0  0  0  0
 11 15  1  0  0  0  0
 11 16  1  0  0  0  0
 23 28  1  0  0  0  0
 23 29  1  0  0  0  0
 23 30  1  0  0  0  0
 42 44  1  0  0  0  0
 42 45  1  0  0  0  0
 42 46  1  0  0  0  0
 32 37  1  0  0  0  0
  8 13  1  0  0  0  0
 18 25  1  0  0  0  0
 21 26  1  0  0  0  0
 41 43  1  0  0  0  0
  7 12  1  0  0  0  0
 31 36  1  0  0  0  0
 17 24  1  0  0  0  0
 22 27  1  0  0  0  0
M  END
$$$$

  -OEChem-05262214473D

 46 45  0     1  0  0  0  0  0999 V2000
   -4.6700    2.7214    1.5150 C   0  0  0  0  0  0  0  0  0  0  0  0
   -5.4532    2.5715    0.5845 O   0  0  0  0  0  0  0  0  0  0  0  0
   -5.0996    3.4865    2.7226 C   0  0  0  0  0  0  0  0  0  0  0  0
   -4.8796    4.5629    2.6387 H   0  0  0  0  0  0  0  0  0  0  0  0
   -6.1861    3.4241    2.8954 H   0  0  0  0  0  0  0  0  0  0  0  0
   -4.6369    3.1693    3.6708 H   0  0  0  0  0  0  0  0  0  0  0  0
   -3.3731    2.2391    1.5790 N   0  0  0  0  0  0  0  0  0  0  0  0
   -2.7599    1.4751    0.5247 C   0  0  2  0  0  0  0  0  0  0  0  0
   -1.5143    0.8067    1.0915 C   0  0  0  0  0  0  0  0  0  0  0  0
   -0.9247    1.2213    2.0872 O   0  0  0  0  0  0  0  0  0  0  0  0
   -2.4106    2.3553   -0.6653 C   0  0  0  0  0  0  0  0  0  0  0  0
   -2.8254    2.4352    2.4150 H   0  0  0  0  0  0  0  0  0  0  0  0
   -3.4836    0.7082    0.2278 H   0  0  0  0  0  0  0  0  0  0  0  0
   -1.6866    3.1298   -0.3871 H   0  0  0  0  0  0  0  0  0  0  0  0
   -1.9704    1.7677   -1.4777 H   0  0  0  0  0  0  0  0  0  0  0  0
   -3.3030    2.8584   -1.0531 H   0  0  0  0  0  0  0  0  0  0  0  0
   -1.1107   -0.2839    0.3303 N   0  0  0  0  0  0  0  0  0  0  0  0
    0.0490   -1.0750    0.6539 C   0  0  2  0  0  0  0  0  0  0  0  0
    1.2453   -0.4521   -0.0599 C   0  0  0  0  0  0  0  0  0  0  0  0
    2.3857   -0.4748    0.3987 O   0  0  0  0  0  0  0  0  0  0  0  0
   -0.1198   -2.5562    0.2856 C   0  0  2  0  0  0  0  0  0  0  0  0
   -0.3291   -2.7068   -1.1177 O   0  0  0  0  0  0  0  0  0  0  0  0
   -1.3006   -3.1980    1.0040 C   0  0  0  0  0  0  0  0  0  0  0  0
   -1.6733   -0.5660   -0.4691 H   0  0  0  0  0  0  0  0  0  0  0  0
    0.2018   -0.9737    1.7353 H   0  0  0  0  0  0  0  0  0  0  0  0
    0.7868   -3.1171    0.5409 H   0  0  0  0  0  0  0  0  0  0  0  0
   -0.3772   -3.6599   -1.2875 H   0  0  0  0  0  0  0  0  0  0  0  0
   -2.2366   -2.6739    0.7825 H   0  0  0  0  0  0  0  0  0  0  0  0
   -1.1490   -3.2084    2.0875 H   0  0  0  0  0  0  0  0  0  0  0  0
   -1.4356   -4.2303    0.6625 H   0  0  0  0  0  0  0  0  0  0  0  0
    0.8806    0.1739   -1.2434 N   0  0  0  0  0  0  0  0  0  0  0  0
    1.8317    0.8647   -2.0822 C   0  0  2  0  0  0  0  0  0  0  0  0
    2.5956   -0.1795   -2.8857 C   0  0  0  0  0  0  0  0  0  0  0  0
    2.6969   -1.3534   -2.5352 O   0  0  0  0  0  0  0  0  0  0  0  0
    2.7822    1.7167   -1.2555 C   0  0  0  0  0  0  0  0  0  0  0  0
   -0.0932    0.1452   -1.5309 H   0  0  0  0  0  0  0  0  0  0  0  0
    1.2519    1.4977   -2.7628 H   0  0  0  0  0  0  0  0  0  0  0  0
    3.3718    1.0998   -0.5675 H   0  0  0  0  0  0  0  0  0  0  0  0
    3.4843    2.2620   -1.8948 H   0  0  0  0  0  0  0  0  0  0  0  0
    2.2290    2.4474   -0.6556 H   0  0  0  0  0  0  0  0  0  0  0  0
    3.1870    0.3632   -4.0178 N   0  0  0  0  0  0  0  0  0  0  0  0
    3.9771   -0.4221   -4.9372 C   0  0  0  0  0  0  0  0  0  0  0  0
    3.0345    1.3423   -4.2408 H   0  0  0  0  0  0  0  0  0  0  0  0
    5.0372   -0.3689   -4.6484 H   0  0  0  0  0  0  0  0  0  0  0  0
    3.6412   -1.4691   -4.9074 H   0  0  0  0  0  0  0  0  0  0  0  0
    3.8546   -0.0265   -5.9562 H   0  0  0  0  0  0  0  0  0  0  0  0
  1  3  1  0  0  0  0
  1  7  1  0  0  0  0
  1  2  2  0  0  0  0
 32 33  1  0  0  0  0
 33 41  1  0  0  0  0
 33 34  2  0  0  0  0
  8  9  1  0  0  0  0
  9 17  1  0  0  0  0
  9 10  2  0  0  0  0
 18 19  1  0  0  0  0
 19 31  1  0  0  0  0
 19 20  2  0  0  0  0
 32 35  1  0  0  0  0
  8 11  1  0  0  0  0
 21 23  1  0  0  0  0
 41 42  1  0  0  0  0
 31 32  1  0  0  0  0
  7  8  1  0  0  0  0
 18 21  1  0  0  0  0
 17 18  1  0  0  0  0
 21 22  1  0  0  0  0
  3  4  1  0  0  0  0
  3  5  1  0  0  0  0
  3  6  1  0  0  0  0
 35 38  1  0  0  0  0
 35 39  1  0  0  0  0
 35 40  1  0  0  0  0
 11 14  1  0  0  0  0
 11 15  1  0  0  0  0
 11 16  1  0  0  0  0
 23 28  1  0  0  0  0
 23 29  1  0  0  0  0
 23 30  1  0  0  0  0
 42 44  1  0  0  0  0
 42 45  1  0  0  0  0
 42 46  1  0  0  0  0
 32 37  1  0  0  0  0
  8 13  1  0  0  0  0
 18 25  1  0  0  0  0
 21 26  1  0  0  0  0
 41 43  1  0  0  0  0
  7 12  1  0  0  0  0
 31 36  1  0  0  0  0
 17 24  1  0  0  0  0
 22 27  1  0  0  0  0
M  END
$$$$

  -OEChem-05262214473D

 46 45  0     1  0  0  0  0  0999 V2000
   -4.6700    2.7214    1.5150 C   0  0  0  0  0  0  0  0  0  0  0  0
   -5.4532    2.5715    0.5845 O   0  0  0  0  0  0  0  0  0  0  0  0
   -5.0996    3.4865    2.7226 C   0  0  0  0  0  0  0  0  0  0  0  0
   -4.8796    4.5629    2.6387 H   0  0  0  0  0  0  0  0  0  0  0  0
   -6.1861    3.4241    2.8954 H   0  0  0  0  0  0  0  0  0  0  0  0
   -4.6369    3.1693    3.6708 H   0  0  0  0  0  0  0  0  0  0  0  0
   -3.3731    2.2391    1.5790 N   0  0  0  0  0  0  0  0  0  0  0  0
   -2.7599    1.4751    0.5247 C   0  0  2  0  0  0  0  0  0  0  0  0
   -1.5143    0.8067    1.0915 C   0  0  0  0  0  0  0  0  0  0  0  0
   -0.9247    1.2213    2.0872 O   0  0  0  0  0  0  0  0  0  0  0  0
   -2.4106    2.3553   -0.6653 C   0  0  0  0  0  0  0  0  0  0  0  0
   -2.8254    2.4352    2.4150 H   0  0  0  0  0  0  0  0  0  0  0  0
   -3.4836    0.7082    0.2278 H   0  0  0  0  0  0  0  0  0  0  0  0
   -1.6866    3.1298   -0.3871 H   0  0  0  0  0  0  0  0  0  0  0  0
   -1.9704    1.7677   -1.4777 H   0  0  0  0  0  0  0  0  0  0  0  0
   -3.3030    2.8584   -1.0531 H   0  0  0  0  0  0  0  0  0  0  0  0
   -1.1107   -0.2839    0.3303 N   0  0  0  0  0  0  0  0  0  0  0  0
    0.0490   -1.0750    0.6539 C   0  0  2  0  0  0  0  0  0  0  0  0
    1.2453   -0.4521   -0.0599 C   0  0  0  0  0  0  0  0  0  0  0  0
    2.4104   -0.6958    0.2473 O   0  0  0  0  0  0  0  0  0  0  0  0
   -0.1198   -2.5562    0.2856 C   0  0  2  0  0  0  0  0  0  0  0  0
   -0.3291   -2.7068   -1.1177 O   0  0  0  0  0  0  0  0  0  0  0  0
   -1.3006   -3.1980    1.0040 C   0  0  0  0  0  0  0  0  0  0  0  0
   -1.6733   -0.5660   -0.4691 H   0  0  0  0  0  0  0  0  0  0  0  0
    0.2018   -0.9737    1.7353 H   0  0  0  0  0  0  0  0  0  0  0  0
    0.7868   -3.1171    0.5409 H   0  0  0  0  0  0  0  0  0  0  0  0
   -0.3772   -3.6599   -1.2875 H   0  0  0  0  0  0  0  0  0  0  0  0
   -2.2366   -2.6739    0.7825 H   0  0  0  0  0  0  0  0  0  0  0  0
   -1.1490   -3.2084    2.0875 H   0  0  0  0  0  0  0  0  0  0  0  0
   -1.4356   -4.2303    0.6625 H   0  0  0  0  0  0  0  0  0  0  0  0
    0.8578    0.4442   -1.0458 N   0  0  0  0  0  0  0  0  0  0  0  0
    1.8094    1.1862   -1.8390 C   0  0  2  0  0  0  0  0  0  0  0  0
    2.3506    0.2558   -2.9164 C   0  0  0  0  0  0  0  0  0  0  0  0
    2.3284   -0.9693   -2.8178 O   0  0  0  0  0  0  0  0  0  0  0  0
    2.9368    1.7362   -0.9793 C   0  0  0  0  0  0  0  0  0  0  0  0
   -0.1338    0.5837   -1.2163 H   0  0  0  0  0  0  0  0  0  0  0  0
    1.2573    2.0077   -2.3086 H   0  0  0  0  0  0  0  0  0  0  0  0
    3.5013    0.9278   -0.5005 H   0  0  0  0  0  0  0  0  0  0  0  0
    3.6421    2.3225   -1.5774 H   0  0  0  0  0  0  0  0  0  0  0  0
    2.5432    2.3815   -0.1865 H   0  0  0  0  0  0  0  0  0  0  0  0
    2.9004    0.9550   -3.9818 N   0  0  0  0  0  0  0  0  0  0  0  0
    3.4909    0.2975   -5.1242 C   0  0  0  0  0  0  0  0  0  0  0  0
    2.8583    1.9698   -3.9884 H   0  0  0  0  0  0  0  0  0  0  0  0
    4.5710    0.1719   -4.9579 H   0  0  0  0  0  0  0  0  0  0  0  0
    3.0240   -0.6890   -5.2611 H   0  0  0  0  0  0  0  0  0  0  0  0
    3.3272    0.9087   -6.0240 H   0  0  0  0  0  0  0  0  0  0  0  0
  1  3  1  0  0  0  0
  1  7  1  0  0  0  0
  1  2  2  0  0  0  0
 32 33  1  0  0  0  0
 33 41  1  0  0  0  0
 33 34  2  0  0  0  0
  8  9  1  0  0  0  0
  9 17  1  0  0  0  0
  9 10  2  0  0  0  0
 18 19  1  0  0  0  0
 19 31  1  0  0  0  0
 19 20  2  0  0  0  0
 32 35  1  0  0  0  0
  8 11  1  0  0  0  0
 21 23  1  0  0  0  0
 41 42  1  0  0  0  0
 31 32  1  0  0  0  0
  7  8  1  0  0  0  0
 18 21  1  0  0  0  0
 17 18  1  0  0  0  0
 21 22  1  0  0  0  0
  3  4  1  0  0  0  0
  3  5  1  0  0  0  0
  3  6  1  0  0  0  0
 35 38  1  0  0  0  0
 35 39  1  0  0  0  0
 35 40  1  0  0  0  0
 11 14  1  0  0  0  0
 11 15  1  0  0  0  0
 11 16  1  0  0  0  0
 23 28  1  0  0  0  0
 23 29  1  0  0  0  0
 23 30  1  0  0  0  0
 42 44  1  0  0  0  0
 42 45  1  0  0  0  0
 42 46  1  0  0  0  0
 32 37  1  0  0  0  0
  8 13  1  0  0  0  0
 18 25  1  0  0  0  0
 21 26  1  0  0  0  0
 41 43  1  0  0  0  0
  7 12  1  0  0  0  0
 31 36  1  0  0  0  0
 17 24  1  0  0  0  0
 22 27  1  0  0  0  0
M  END
$$$$

  -OEChem-05262214473D

 46 45  0     1  0  0  0  0  0999 V2000
   -4.6700    2.7214    1.5150 C   0  0  0  0  0  0  0  0  0  0  0  0
   -5.4532    2.5715    0.5845 O   0  0  0  0  0  0  0  0  0  0  0  0
   -5.0996    3.4865    2.7226 C   0  0  0  0  0  0  0  0  0  0  0  0
   -4.8796    4.5629    2.6387 H   0  0  0  0  0  0  0  0  0  0  0  0
   -6.1861    3.4241    2.8954 H   0  0  0  0  0  0  0  0  0  0  0  0
   -4.6369    3.1693    3.6708 H   0  0  0  0  0  0  0  0  0  0  0  0
   -3.3731    2.2391    1.5790 N   0  0  0  0  0  0  0  0  0  0  0  0
   -2.7599    1.4751    0.5247 C   0  0  2  0  0  0  0  0  0  0  0  0
   -1.5143    0.8067    1.0915 C   0  0  0  0  0  0  0  0  0  0  0  0
   -0.9247    1.2213    2.0872 O   0  0  0  0  0  0  0  0  0  0  0  0
   -2.4106    2.3553   -0.6653 C   0  0  0  0  0  0  0  0  0  0  0  0
   -2.8254    2.4352    2.4150 H   0  0  0  0  0  0  0  0  0  0  0  0
   -3.4836    0.7082    0.2278 H   0  0  0  0  0  0  0  0  0  0  0  0
   -1.6866    3.1298   -0.3871 H   0  0  0  0  0  0  0  0  0  0  0  0
   -1.9704    1.7677   -1.4777 H   0  0  0  0  0  0  0  0  0  0  0  0
   -3.3030    2.8584   -1.0531 H   0  0  0  0  0  0  0  0  0  0  0  0
   -1.1107   -0.2839    0.3303 N   0  0  0  0  0  0  0  0  0  0  0  0
    0.0490   -1.0750    0.6539 C   0  0  2  0  0  0  0  0  0  0  0  0
    1.2453   -0.4521   -0.0599 C   0  0  0  0  0  0  0  0  0  0  0  0
    2.3916   -0.8816    0.0536 O   0  0  0  0  0  0  0  0  0  0  0  0
   -0.1198   -2.5562    0.2856 C   0  0  2  0  0  0  0  0  0  0  0  0
   -0.3291   -2.7068   -1.1177 O   0  0  0  0  0  0  0  0  0  0  0  0
   -1.3006   -3.1980    1.0040 C   0  0  0  0  0  0  0  0  0  0  0  0
   -1.6733   -0.5660   -0.4691 H   0  0  0  0  0  0  0  0  0  0  0  0
    0.2018   -0.9737    1.7353 H   0  0  0  0  0  0  0  0  0  0  0  0
    0.7868   -3.1171    0.5409 H   0  0  0  0  0  0  0  0  0  0  0  0
   -0.3772   -3.6599   -1.2875 H   0  0  0  0  0  0  0  0  0  0  0  0
   -2.2366   -2.6739    0.7825 H   0  0  0  0  0  0  0  0  0  0  0  0
   -1.1490   -3.2084    2.0875 H   0  0  0  0  0  0  0  0  0  0  0  0
   -1.4356   -4.2303    0.6625 H   0  0  0  0  0  0  0  0  0  0  0  0
    0.8893    0.6679   -0.7978 N   0  0  0  0  0  0  0  0  0  0  0  0
    1.8525    1.4501   -1.5365 C   0  0  2  0  0  0  0  0  0  0  0  0
    2.1634    0.7121   -2.8319 C   0  0  0  0  0  0  0  0  0  0  0  0
    1.9890   -0.4964   -2.9739 O   0  0  0  0  0  0  0  0  0  0  0  0
    3.1177    1.6803   -0.7249 C   0  0  0  0  0  0  0  0  0  0  0  0
   -0.0868    0.9484   -0.8191 H   0  0  0  0  0  0  0  0  0  0  0  0
    1.3723    2.4074   -1.7671 H   0  0  0  0  0  0  0  0  0  0  0  0
    3.6128    0.7323   -0.4843 H   0  0  0  0  0  0  0  0  0  0  0  0
    3.8354    2.2975   -1.2753 H   0  0  0  0  0  0  0  0  0  0  0  0
    2.8883    2.1846    0.2200 H   0  0  0  0  0  0  0  0  0  0  0  0
    2.6991    1.5540   -3.7966 N   0  0  0  0  0  0  0  0  0  0  0  0
    3.0886    1.0894   -5.1074 C   0  0  0  0  0  0  0  0  0  0  0  0
    2.7908    2.5460   -3.5987 H   0  0  0  0  0  0  0  0  0  0  0  0
    4.1534    0.8136   -5.0978 H   0  0  0  0  0  0  0  0  0  0  0  0
    2.4849    0.2109   -5.3793 H   0  0  0  0  0  0  0  0  0  0  0  0
    2.9239    1.8897   -5.8439 H   0  0  0  0  0  0  0  0  0  0  0  0
  1  3  1  0  0  0  0
  1  7  1  0  0  0  0
  1  2  2  0  0  0  0
 32 33  1  0  0  0  0
 33 41  1  0  0  0  0
 33 34  2  0  0  0  0
  8  9  1  0  0  0  0
  9 17  1  0  0  0  0
  9 10  2  0  0  0  0
 18 19  1  0  0  0  0
 19 31  1  0  0  0  0
 19 20  2  0  0  0  0
 32 35  1  0  0  0  0
  8 11  1  0  0  0  0
 21 23  1  0  0  0  0
 41 42  1  0  0  0  0
 31 32  1  0  0  0  0
  7  8  1  0  0  0  0
 18 21  1  0  0  0  0
 17 18  1  0  0  0  0
 21 22  1  0  0  0  0
  3  4  1  0  0  0  0
  3  5  1  0  0  0  0
  3  6  1  0  0  0  0
 35 38  1  0  0  0  0
 35 39  1  0  0  0  0
 35 40  1  0  0  0  0
 11 14  1  0  0  0  0
 11 15  1  0  0  0  0
 11 16  1  0  0  0  0
 23 28  1  0  0  0  0
 23 29  1  0  0  0  0
 23 30  1  0  0  0  0
 42 44  1  0  0  0  0
 42 45  1  0  0  0  0
 42 46  1  0  0  0  0
 32 37  1  0  0  0  0
  8 13  1  0  0  0  0
 18 25  1  0  0  0  0
 21 26  1  0  0  0  0
 41 43  1  0  0  0  0
  7 12  1  0  0  0  0
 31 36  1  0  0  0  0
 17 24  1  0  0  0  0
 22 27  1  0  0  0  0
M  END
$$$$

  -OEChem-05262214473D

 46 45  0     1  0  0  0  0  0999 V2000
   -4.6700    2.7214    1.5150 C   0  0  0  0  0  0  0  0  0  0  0  0
   -5.4532    2.5715    0.5845 O   0  0  0  0  0  0  0  0  0  0  0  0
   -5.0996    3.4865    2.7226 C   0  0  0  0  0  0  0  0  0  0  0  0
   -4.8796    4.5629    2.6387 H   0  0  0  0  0  0  0  0  0  0  0  0
   -6.1861    3.4241    2.8954 H   0  0  0  0  0  0  0  0  0  0  0  0
   -4.6369    3.1693    3.6708 H   0  0  0  0  0  0  0  0  0  0  0  0
   -3.3731    2.2391    1.5790 N   0  0  0  0  0  0  0  0  0  0  0  0
   -2.7599    1.4751    0.5247 C   0  0  2  0  0  0  0  0  0  0  0  0
   -1.5143    0.8067    1.0915 C   0  0  0  0  0  0  0  0  0  0  0  0
   -0.9247    1.2213    2.0872 O   0  0  0  0  0  0  0  0  0  0  0  0
   -2.4106    2.3553   -0.6653 C   0  0  0  0  0  0  0  0  0  0  0  0
   -2.8254    2.4352    2.4150 H   0  0  0  0  0  0  0  0  0  0  0  0
   -3.4836    0.7082    0.2278 H   0  0  0  0  0  0  0  0  0  0  0  0
   -1.6866    3.1298   -0.3871 H   0  0  0  0  0  0  0  0  0  0  0  0
   -1.9704    1.7677   -1.4777 H   0  0  0  0  0  0  0  0  0  0  0  0
   -3.3030    2.8584   -1.0531 H   0  0  0  0  0  0  0  0  0  0  0  0
   -1.1107   -0.2839    0.3303 N   0  0  0  0  0  0  0  0  0  0  0  0
    0.0490   -1.0750    0.6539 C   0  0  2  0  0  0  0  0  0  0  0  0
    1.2453   -0.4521   -0.0599 C   0  0  0  0  0  0  0  0  0  0  0  0
    2.3304   -1.0194   -0.1692 O   0  0  0  0  0  0  0  0  0  0  0  0
   -0.1198   -2.5562    0.2856 C   0  0  2  0  0  0  0  0  0  0  0  0
   -0.3291   -2.7068   -1.1177 O   0  0  0  0  0  0  0  0  0  0  0  0
   -1.3006   -3.1980    1.0040 C   0  0  0  0  0  0  0  0  0  0  0  0
   -1.6733   -0.5660   -0.4691 H   0  0  0  0  0  0  0  0  0  0  0  0
    0.2018   -0.9737    1.7353 H   0  0  0  0  0  0  0  0  0  0  0  0
    0.7868   -3.1171    0.5409 H   0  0  0  0  0  0  0  0  0  0  0  0
   -0.3772   -3.6599   -1.2875 H   0  0  0  0  0  0  0  0  0  0  0  0
   -2.2366   -2.6739    0.7825 H   0  0  0  0  0  0  0  0  0  0  0  0
   -1.1490   -3.2084    2.0875 H   0  0  0  0  0  0  0  0  0  0  0  0
   -1.4356   -4.2303    0.6625 H   0  0  0  0  0  0  0  0  0  0  0  0
    0.9731    0.8298   -0.5161 N   0  0  0  0  0  0  0  0  0  0  0  0
    1.9580    1.6385   -1.1953 C   0  0  2  0  0  0  0  0  0  0  0  0
    2.0468    1.1584   -2.6380 C   0  0  0  0  0  0  0  0  0  0  0  0
    1.7019    0.0332   -2.9929 O   0  0  0  0  0  0  0  0  0  0  0  0
    3.3126    1.5527   -0.5096 C   0  0  0  0  0  0  0  0  0  0  0  0
    0.0448    1.2144   -0.3664 H   0  0  0  0  0  0  0  0  0  0  0  0
    1.5890    2.6697   -1.1751 H   0  0  0  0  0  0  0  0  0  0  0  0
    3.6985    0.5268   -0.5200 H   0  0  0  0  0  0  0  0  0  0  0  0
    4.0511    2.1886   -1.0089 H   0  0  0  0  0  0  0  0  0  0  0  0
    3.2408    1.8701    0.5363 H   0  0  0  0  0  0  0  0  0  0  0  0
    2.5966    2.1194   -3.4749 N   0  0  0  0  0  0  0  0  0  0  0  0
    2.7976    1.8995   -4.8881 C   0  0  0  0  0  0  0  0  0  0  0  0
    2.8365    3.0317   -3.0983 H   0  0  0  0  0  0  0  0  0  0  0  0
    3.8129    1.5123   -5.0587 H   0  0  0  0  0  0  0  0  0  0  0  0
    2.0606    1.1695   -5.2540 H   0  0  0  0  0  0  0  0  0  0  0  0
    2.6721    2.8495   -5.4283 H   0  0  0  0  0  0  0  0  0  0  0  0
  1  3  1  0  0  0  0
  1  7  1  0  0  0  0
  1  2  2  0  0  0  0
 32 33  1  0  0  0  0
 33 41  1  0  0  0  0
 33 34  2  0  0  0  0
  8  9  1  0  0  0  0
  9 17  1  0  0  0  0
  9 10  2  0  0  0  0
 18 19  1  0  0  0  0
 19 31  1  0  0  0  0
 19 20  2  0  0  0  0
 32 35  1  0  0  0  0
  8 11  1  0  0  0  0
 21 23  1  0  0  0  0
 41 42  1  0  0  0  0
 31 32  1  0  0  0  0
  7  8  1  0  0  0  0
 18 21  1  0  0  0  0
 17 18  1  0  0  0  0
 21 22  1  0  0  0  0
  3  4  1  0  0  0  0
  3  5  1  0  0  0  0
  3  6  1  0  0  0  0
 35 38  1  0  0  0  0
 35 39  1  0  0  0  0
 35 40  1  0  0  0  0
 11 14  1  0  0  0  0
 11 15  1  0  0  0  0
 11 16  1  0  0  0  0
 23 28  1  0  0  0  0
 23 29  1  0  0  0  0
 23 30  1  0  0  0  0
 42 44  1  0  0  0  0
 42 45  1  0  0  0  0
 42 46  1  0  0  0  0
 32 37  1  0  0  0  0
  8 13  1  0  0  0  0
 18 25  1  0  0  0  0
 21 26  1  0  0  0  0
 41 43  1  0  0  0  0
  7 12  1  0  0  0  0
 31 36  1  0  0  0  0
 17 24  1  0  0  0  0
 22 27  1  0  0  0  0
M  END
$$$$

  -OEChem-05262214473D

 46 45  0     1  0  0  0  0  0999 V2000
   -4.6700    2.7214    1.5150 C   0  0  0  0  0  0  0  0  0  0  0  0
   -5.4532    2.5715    0.5845 O   0  0  0  0  0  0  0  0  0  0  0  0
   -5.0996    3.4865    2.7226 C   0  0  0  0  0  0  0  0  0  0  0  0
   -4.8796    4.5629    2.6387 H   0  0  0  0  0  0  0  0  0  0  0  0
   -6.1861    3.4241    2.8954 H   0  0  0  0  0  0  0  0  0  0  0  0
   -4.6369    3.1693    3.6708 H   0  0  0  0  0  0  0  0  0  0  0  0
   -3.3731    2.2391    1.5790 N   0  0  0  0  0  0  0  0  0  0  0  0
   -2.7599    1.4751    0.5247 C   0  0  2  0  0  0  0  0  0  0  0  0
   -1.5143    0.8067    1.0915 C   0  0  0  0  0  0  0  0  0  0  0  0
   -0.9247    1.2213    2.0872 O   0  0  0  0  0  0  0  0  0  0  0  0
   -2.4106    2.3553   -0.6653 C   0  0  0  0  0  0  0  0  0  0  0  0
   -2.8254    2.4352    2.4150 H   0  0  0  0  0  0  0  0  0  0  0  0
   -3.4836    0.7082    0.2278 H   0  0  0  0  0  0  0  0  0  0  0  0
   -1.6866    3.1298   -0.3871 H   0  0  0  0  0  0  0  0  0  0  0  0
   -1.9704    1.7677   -1.4777 H   0  0  0  0  0  0  0  0  0  0  0  0
   -3.3030    2.8584   -1.0531 H   0  0  0  0  0  0  0  0  0  0  0  0
   -1.1107   -0.2839    0.3303 N   0  0  0  0  0  0  0  0  0  0  0  0
    0.0490   -1.0750    0.6539 C   0  0  2  0  0  0  0  0  0  0  0  0
    1.2453   -0.4521   -0.0599 C   0  0  0  0  0  0  0  0  0  0  0  0
    2.2311   -1.1000   -0.4059 O   0  0  0  0  0  0  0  0  0  0  0  0
   -0.1198   -2.5562    0.2856 C   0  0  2  0  0  0  0  0  0  0  0  0
   -0.3291   -2.7068   -1.1177 O   0  0  0  0  0  0  0  0  0  0  0  0
   -1.3006   -3.1980    1.0040 C   0  0  0  0  0  0  0  0  0  0  0  0
   -1.6733   -0.5660   -0.4691 H   0  0  0  0  0  0  0  0  0  0  0  0
    0.2018   -0.9737    1.7353 H   0  0  0  0  0  0  0  0  0  0  0  0
    0.7868   -3.1171    0.5409 H   0  0  0  0  0  0  0  0  0  0  0  0
   -0.3772   -3.6599   -1.2875 H   0  0  0  0  0  0  0  0  0  0  0  0
   -2.2366   -2.6739    0.7825 H   0  0  0  0  0  0  0  0  0  0  0  0
   -1.1490   -3.2084    2.0875 H   0  0  0  0  0  0  0  0  0  0  0  0
   -1.4356   -4.2303    0.6625 H   0  0  0  0  0  0  0  0  0  0  0  0
    1.1033    0.9189   -0.2200 N   0  0  0  0  0  0  0  0  0  0  0  0
    2.1187    1.7384   -0.8387 C   0  0  2  0  0  0  0  0  0  0  0  0
    2.0086    1.5643   -2.3477 C   0  0  0  0  0  0  0  0  0  0  0  0
    1.4867    0.5833   -2.8734 O   0  0  0  0  0  0  0  0  0  0  0  0
    3.5081    1.3622   -0.3481 C   0  0  0  0  0  0  0  0  0  0  0  0
    0.2520    1.3635    0.1108 H   0  0  0  0  0  0  0  0  0  0  0  0
    1.8925    2.7767   -0.5728 H   0  0  0  0  0  0  0  0  0  0  0  0
    3.7526    0.3251   -0.6053 H   0  0  0  0  0  0  0  0  0  0  0  0
    4.2743    2.0033   -0.7965 H   0  0  0  0  0  0  0  0  0  0  0  0
    3.5766    1.4595    0.7408 H   0  0  0  0  0  0  0  0  0  0  0  0
    2.6001    2.6126   -3.0386 N   0  0  0  0  0  0  0  0  0  0  0  0
    2.6378    2.6728   -4.4811 C   0  0  0  0  0  0  0  0  0  0  0  0
    2.9923    3.3938   -2.5212 H   0  0  0  0  0  0  0  0  0  0  0  0
    3.5728    2.2204   -4.8432 H   0  0  0  0  0  0  0  0  0  0  0  0
    1.7800    2.1214   -4.8935 H   0  0  0  0  0  0  0  0  0  0  0  0
    2.5889    3.7228   -4.8055 H   0  0  0  0  0  0  0  0  0  0  0  0
  1  3  1  0  0  0  0
  1  7  1  0  0  0  0
  1  2  2  0  0  0  0
 32 33  1  0  0  0  0
 33 41  1  0  0  0  0
 33 34  2  0  0  0  0
  8  9  1  0  0  0  0
  9 17  1  0  0  0  0
  9 10  2  0  0  0  0
 18 19  1  0  0  0  0
 19 31  1  0  0  0  0
 19 20  2  0  0  0  0
 32 35  1  0  0  0  0
  8 11  1  0  0  0  0
 21 23  1  0  0  0  0
 41 42  1  0  0  0  0
 31 32  1  0  0  0  0
  7  8  1  0  0  0  0
 18 21  1  0  0  0  0
 17 18  1  0  0  0  0
 21 22  1  0  0  0  0
  3  4  1  0  0  0  0
  3  5  1  0  0  0  0
  3  6  1  0  0  0  0
 35 38  1  0  0  0  0
 35 39  1  0  0  0  0
 35 40  1  0  0  0  0
 11 14  1  0  0  0  0
 11 15  1  0  0  0  0
 11 16  1  0  0  0  0
 23 28  1  0  0  0  0
 23 29  1  0  0  0  0
 23 30  1  0  0  0  0
 42 44  1  0  0  0  0
 42 45  1  0  0  0  0
 42 46  1  0  0  0  0
 32 37  1  0  0  0  0
  8 13  1  0  0  0  0
 18 25  1  0  0  0  0
 21 26  1  0  0  0  0
 41 43  1  0  0  0  0
  7 12  1  0  0  0  0
 31 36  1  0  0  0  0
 17 24  1  0  0  0  0
 22 27  1  0  0  0  0
M  END
$$$$

  -OEChem-05262214473D

 46 45  0     1  0  0  0  0  0999 V2000
   -4.6700    2.7214    1.5150 C   0  0  0  0  0  0  0  0  0  0  0  0
   -5.4532    2.5715    0.5845 O   0  0  0  0  0  0  0  0  0  0  0  0
   -5.0996    3.4865    2.7226 C   0  0  0  0  0  0  0  0  0  0  0  0
   -4.8796    4.5629    2.6387 H   0  0  0  0  0  0  0  0  0  0  0  0
   -6.1861    3.4241    2.8954 H   0  0  0  0  0  0  0  0  0  0  0  0
   -4.6369    3.1693    3.6708 H   0  0  0  0  0  0  0  0  0  0  0  0
   -3.3731    2.2391    1.5790 N   0  0  0  0  0  0  0  0  0  0  0  0
   -2.7599    1.4751    0.5247 C   0  0  2  0  0  0  0  0  0  0  0  0
   -1.5143    0.8067    1.0915 C   0  0  0  0  0  0  0  0  0  0  0  0
   -0.9247    1.2213    2.0872 O   0  0  0  0  0  0  0  0  0  0  0  0
   -2.4106    2.3553   -0.6653 C   0  0  0  0  0  0  0  0  0  0  0  0
   -2.8254    2.4352    2.4150 H   0  0  0  0  0  0  0  0  0  0  0  0
   -3.4836    0.7082    0.2278 H   0  0  0  0  0  0  0  0  0  0  0  0
   -1.6866    3.1298   -0.3871 H   0  0  0  0  0  0  0  0  0  0  0  0
   -1.9704    1.7677   -1.4777 H   0  0  0  0  0  0  0  0  0  0  0  0
   -3.3030    2.8584   -1.0531 H   0  0  0  0  0  0  0  0  0  0  0  0
   -1.1107   -0.2839    0.3303 N   0  0  0  0  0  0  0  0  0  0  0  0
    0.0490   -1.0750    0.6539 C   0  0  2  0  0  0  0  0  0  0  0  0
    1.2453   -0.4521   -0.0599 C   0  0  0  0  0  0  0  0  0  0  0  0
    2.1005   -1.1177   -0.6404 O   0  0  0  0  0  0  0  0  0  0  0  0
   -0.1198   -2.5562    0.2856 C   0  0  2  0  0  0  0  0  0  0  0  0
   -0.3291   -2.7068   -1.1177 O   0  0  0  0  0  0  0  0  0  0  0  0
   -1.3006   -3.1980    1.0040 C   0  0  0  0  0  0  0  0  0  0  0  0
   -1.6733   -0.5660   -0.4691 H   0  0  0  0  0  0  0  0  0  0  0  0
    0.2018   -0.9737    1.7353 H   0  0  0  0  0  0  0  0  0  0  0  0
    0.7868   -3.1171    0.5409 H   0  0  0  0  0  0  0  0  0  0  0  0
   -0.3772   -3.6599   -1.2875 H   0  0  0  0  0  0  0  0  0  0  0  0
   -2.2366   -2.6739    0.7825 H   0  0  0  0  0  0  0  0  0  0  0  0
   -1.1490   -3.2084    2.0875 H   0  0  0  0  0  0  0  0  0  0  0  0
   -1.4356   -4.2303    0.6625 H   0  0  0  0  0  0  0  0  0  0  0  0
    1.2712    0.9292    0.0703 N   0  0  0  0  0  0  0  0  0  0  0  0
    2.3238    1.7431   -0.4910 C   0  0  2  0  0  0  0  0  0  0  0  0
    2.0516    1.9020   -1.9810 C   0  0  0  0  0  0  0  0  0  0  0  0
    1.3581    1.1165   -2.6237 O   0  0  0  0  0  0  0  0  0  0  0  0
    3.6910    1.1218   -0.2514 C   0  0  0  0  0  0  0  0  0  0  0  0
    0.5205    1.3856    0.5802 H   0  0  0  0  0  0  0  0  0  0  0  0
    2.2623    2.7212   -0.0015 H   0  0  0  0  0  0  0  0  0  0  0  0
    3.7714    0.1411   -0.7344 H   0  0  0  0  0  0  0  0  0  0  0  0
    4.4899    1.7542   -0.6525 H   0  0  0  0  0  0  0  0  0  0  0  0
    3.8728    0.9808    0.8195 H   0  0  0  0  0  0  0  0  0  0  0  0
    2.7093    3.0001   -2.5174 N   0  0  0  0  0  0  0  0  0  0  0  0
    2.6200    3.3566   -3.9142 C   0  0  0  0  0  0  0  0  0  0  0  0
    3.2476    3.6076   -1.9067 H   0  0  0  0  0  0  0  0  0  0  0  0
    3.4493    2.8898   -4.4660 H   0  0  0  0  0  0  0  0  0  0  0  0
    1.6623    3.0016   -4.3226 H   0  0  0  0  0  0  0  0  0  0  0  0
    2.6802    4.4500   -4.0180 H   0  0  0  0  0  0  0  0  0  0  0  0
  1  3  1  0  0  0  0
  1  7  1  0  0  0  0
  1  2  2  0  0  0  0
 32 33  1  0  0  0  0
 33 41  1  0  0  0  0
 33 34  2  0  0  0  0
  8  9  1  0  0  0  0
  9 17  1  0  0  0  0
  9 10  2  0  0  0  0
 18 19  1  0  0  0  0
 19 31  1  0  0  0  0
 19 20  2  0  0  0  0
 32 35  1  0  0  0  0
  8 11  1  0  0  0  0
 21 23  1  0  0  0  0
 41 42  1  0  0  0  0
 31 32  1  0  0  0  0
  7  8  1  0  0  0  0
 18 21  1  0  0  0  0
 17 18  1  0  0  0  0
 21 22  1  0  0  0  0
  3  4  1  0  0  0  0
  3  5  1  0  0  0  0
  3  6  1  0  0  0  0
 35 38  1  0  0  0  0
 35 39  1  0  0  0  0
 35 40  1  0  0  0  0
 11 14  1  0  0  0  0
 11 15  1  0  0  0  0
 11 16  1  0  0  0  0
 23 28  1  0  0  0  0
 23 29  1  0  0  0  0
 23 30  1  0  0  0  0
 42 44  1  0  0  0  0
 42 45  1  0  0  0  0
 42 46  1  0  0  0  0
 32 37  1  0  0  0  0
  8 13  1  0  0  0  0
 18 25  1  0  0  0  0
 21 26  1  0  0  0  0
 41 43  1  0  0  0  0
  7 12  1  0  0  0  0
 31 36  1  0  0  0  0
 17 24  1  0  0  0  0
 22 27  1  0  0  0  0
M  END
$$$$

  -OEChem-05262214473D

 46 45  0     1  0  0  0  0  0999 V2000
   -4.6700    2.7214    1.5150 C   0  0  0  0  0  0  0  0  0  0  0  0
   -5.4532    2.5715    0.5845 O   0  0  0  0  0  0  0  0  0  0  0  0
   -5.0996    3.4865    2.7226 C   0  0  0  0  0  0  0  0  0  0  0  0
   -4.8796    4.5629    2.6387 H   0  0  0  0  0  0  0  0  0  0  0  0
   -6.1861    3.4241    2.8954 H   0  0  0  0  0  0  0  0  0  0  0  0
   -4.6369    3.1693    3.6708 H   0  0  0  0  0  0  0  0  0  0  0  0
   -3.3731    2.2391    1.5790 N   0  0  0  0  0  0  0  0  0  0  0  0
   -2.7599    1.4751    0.5247 C   0  0  2  0  0  0  0  0  0  0  0  0
   -1.5143    0.8067    1.0915 C   0  0  0  0  0  0  0  0  0  0  0  0
   -0.9247    1.2213    2.0872 O   0  0  0  0  0  0  0  0  0  0  0  0
   -2.4106    2.3553   -0.6653 C   0  0  0  0  0  0  0  0  0  0  0  0
   -2.8254    2.4352    2.4150 H   0  0  0  0  0  0  0  0  0  0  0  0
   -3.4836    0.7082    0.2278 H   0  0  0  0  0  0  0  0  0  0  0  0
   -1.6866    3.1298   -0.3871 H   0  0  0  0  0  0  0  0  0  0  0  0
   -1.9704    1.7677   -1.4777 H   0  0  0  0  0  0  0  0  0  0  0  0
   -3.3030    2.8584   -1.0531 H   0  0  0  0  0  0  0  0  0  0  0  0
   -1.1107   -0.2839    0.3303 N   0  0  0  0  0  0  0  0  0  0  0  0
    0.0490   -1.0750    0.6539 C   0  0  2  0  0  0  0  0  0  0  0  0
    1.2453   -0.4521   -0.0599 C   0  0  0  0  0  0  0  0  0  0  0  0
    1.9473   -1.0714   -0.8567 O   0  0  0  0  0  0  0  0  0  0  0  0
   -0.1198   -2.5562    0.2856 C   0  0  2  0  0  0  0  0  0  0  0  0
   -0.3291   -2.7068   -1.1177 O   0  0  0  0  0  0  0  0  0  0  0  0
   -1.3006   -3.1980    1.0040 C   0  0  0  0  0  0  0  0  0  0  0  0
   -1.6733   -0.5660   -0.4691 H   0  0  0  0  0  0  0  0  0  0  0  0
    0.2018   -0.9737    1.7353 H   0  0  0  0  0  0  0  0  0  0  0  0
    0.7868   -3.1171    0.5409 H   0  0  0  0  0  0  0  0  0  0  0  0
   -0.3772   -3.6599   -1.2875 H   0  0  0  0  0  0  0  0  0  0  0  0
   -2.2366   -2.6739    0.7825 H   0  0  0  0  0  0  0  0  0  0  0  0
   -1.1490   -3.2084    2.0875 H   0  0  0  0  0  0  0  0  0  0  0  0
   -1.4356   -4.2303    0.6625 H   0  0  0  0  0  0  0  0  0  0  0  0
    1.4653    0.8599    0.3351 N   0  0  0  0  0  0  0  0  0  0  0  0
    2.5591    1.6522   -0.1758 C   0  0  2  0  0  0  0  0  0  0  0  0
    2.1727    2.1487   -1.5627 C   0  0  0  0  0  0  0  0  0  0  0  0
    1.3248    1.5964   -2.2607 O   0  0  0  0  0  0  0  0  0  0  0  0
    3.8487    0.8478   -0.2262 C   0  0  0  0  0  0  0  0  0  0  0  0
    0.8322    1.2792    1.0097 H   0  0  0  0  0  0  0  0  0  0  0  0
    2.6732    2.5068    0.5000 H   0  0  0  0  0  0  0  0  0  0  0  0
    3.7537   -0.0128   -0.8984 H   0  0  0  0  0  0  0  0  0  0  0  0
    4.6833    1.4582   -0.5867 H   0  0  0  0  0  0  0  0  0  0  0  0
    4.1093    0.4665    0.7671 H   0  0  0  0  0  0  0  0  0  0  0  0
    2.9167    3.2554   -1.9469 N   0  0  0  0  0  0  0  0  0  0  0  0
    2.7455    3.9041   -3.2260 C   0  0  0  0  0  0  0  0  0  0  0  0
    3.5850    3.6585   -1.2968 H   0  0  0  0  0  0  0  0  0  0  0  0
    3.4510    3.4748   -3.9527 H   0  0  0  0  0  0  0  0  0  0  0  0
    1.7155    3.7502   -3.5801 H   0  0  0  0  0  0  0  0  0  0  0  0
    2.9395    4.9816   -3.1194 H   0  0  0  0  0  0  0  0  0  0  0  0
  1  3  1  0  0  0  0
  1  7  1  0  0  0  0
  1  2  2  0  0  0  0
 32 33  1  0  0  0  0
 33 41  1  0  0  0  0
 33 34  2  0  0  0  0
  8  9  1  0  0  0  0
  9 17  1  0  0  0  0
  9 10  2  0  0  0  0
 18 19  1  0  0  0  0
 19 31  1  0  0  0  0
 19 20  2  0  0  0  0
 32 35  1  0  0  0  0
  8 11  1  0  0  0  0
 21 23  1  0  0  0  0
 41 42  1  0  0  0  0
 31 32  1  0  0  0  0
  7  8  1  0  0  0  0
 18 21  1  0  0  0  0
 17 18  1  0  0  0  0
 21 22  1  0  0  0  0
  3  4  1  0  0  0  0
  3  5  1  0  0  0  0
  3  6  1  0  0  0  0
 35 38  1  0  0  0  0
 35 39  1  0  0  0  0
 35 40  1  0  0  0  0
 11 14  1  0  0  0  0
 11 15  1  0  0  0  0
 11 16  1  0  0  0  0
 23 28  1  0  0  0  0
 23 29  1  0  0  0  0
 23 30  1  0  0  0  0
 42 44  1  0  0  0  0
 42 45  1  0  0  0  0
 42 46  1  0  0  0  0
 32 37  1  0  0  0  0
  8 13  1  0  0  0  0
 18 25  1  0  0  0  0
 21 26  1  0  0  0  0
 41 43  1  0  0  0  0
  7 12  1  0  0  0  0
 31 36  1  0  0  0  0
 17 24  1  0  0  0  0
 22 27  1  0  0  0  0
M  END
$$$$

  -OEChem-05262214473D

 46 45  0     1  0  0  0  0  0999 V2000
   -4.6700    2.7214    1.5150 C   0  0  0  0  0  0  0  0  0  0  0  0
   -5.4532    2.5715    0.5845 O   0  0  0  0  0  0  0  0  0  0  0  0
   -5.0996    3.4865    2.7226 C   0  0  0  0  0  0  0  0  0  0  0  0
   -4.8796    4.5629    2.6387 H   0  0  0  0  0  0  0  0  0  0  0  0
   -6.1861    3.4241    2.8954 H   0  0  0  0  0  0  0  0  0  0  0  0
   -4.6369    3.1693    3.6708 H   0  0  0  0  0  0  0  0  0  0  0  0
   -3.3731    2.2391    1.5790 N   0  0  0  0  0  0  0  0  0  0  0  0
   -2.7599    1.4751    0.5247 C   0  0  2  0  0  0  0  0  0  0  0  0
   -1.5143    0.8067    1.0915 C   0  0  0  0  0  0  0  0  0  0  0  0
   -0.9247    1.2213    2.0872 O   0  0  0  0  0  0  0  0  0  0  0  0
   -2.4106    2.3553   -0.6653 C   0  0  0  0  0  0  0  0  0  0  0  0
   -2.8254    2.4352    2.4150 H   0  0  0  0  0  0  0  0  0  0  0  0
   -3.4836    0.7082    0.2278 H   0  0  0  0  0  0  0  0  0  0  0  0
   -1.6866    3.1298   -0.3871 H   0  0  0  0  0  0  0  0  0  0  0  0
   -1.9704    1.7677   -1.4777 H   0  0  0  0  0  0  0  0  0  0  0  0
   -3.3030    2.8584   -1.0531 H   0  0  0  0  0  0  0  0  0  0  0  0
   -1.1107   -0.2839    0.3303 N   0  0  0  0  0  0  0  0  0  0  0  0
    0.0490   -1.0750    0.6539 C   0  0  2  0  0  0  0  0  0  0  0  0
    1.2453   -0.4521   -0.0599 C   0  0  0  0  0  0  0  0  0  0  0  0
    1.7821   -0.9643   -1.0400 O   0  0  0  0  0  0  0  0  0  0  0  0
   -0.1198   -2.5562    0.2856 C   0  0  2  0  0  0  0  0  0  0  0  0
   -0.3291   -2.7068   -1.1177 O   0  0  0  0  0  0  0  0  0  0  0  0
   -1.3006   -3.1980    1.0040 C   0  0  0  0  0  0  0  0  0  0  0  0
   -1.6733   -0.5660   -0.4691 H   0  0  0  0  0  0  0  0  0  0  0  0
    0.2018   -0.9737    1.7353 H   0  0  0  0  0  0  0  0  0  0  0  0
    0.7868   -3.1171    0.5409 H   0  0  0  0  0  0  0  0  0  0  0  0
   -0.3772   -3.6599   -1.2875 H   0  0  0  0  0  0  0  0  0  0  0  0
   -2.2366   -2.6739    0.7825 H   0  0  0  0  0  0  0  0  0  0  0  0
   -1.1490   -3.2084    2.0875 H   0  0  0  0  0  0  0  0  0  0  0  0
   -1.4356   -4.2303    0.6625 H   0  0  0  0  0  0  0  0  0  0  0  0
    1.6723    0.7157    0.5562 N   0  0  0  0  0  0  0  0  0  0  0  0
    2.8088    1.4720    0.0854 C   0  0  2  0  0  0  0  0  0  0  0  0
    2.3637    2.2874   -1.1215 C   0  0  0  0  0  0  0  0  0  0  0  0
    1.3891    1.9904   -1.8092 O   0  0  0  0  0  0  0  0  0  0  0  0
    3.9706    0.5589   -0.2740 C   0  0  0  0  0  0  0  0  0  0  0  0
    1.1657    1.0516    1.3701 H   0  0  0  0  0  0  0  0  0  0  0  0
    3.0971    2.1483    0.8975 H   0  0  0  0  0  0  0  0  0  0  0  0
    3.7006   -0.1260   -1.0861 H   0  0  0  0  0  0  0  0  0  0  0  0
    4.8411    1.1356   -0.6037 H   0  0  0  0  0  0  0  0  0  0  0  0
    4.2699   -0.0483    0.5871 H   0  0  0  0  0  0  0  0  0  0  0  0
    3.2082    3.3612   -1.3660 N   0  0  0  0  0  0  0  0  0  0  0  0
    3.0058    4.2782   -2.4634 C   0  0  0  0  0  0  0  0  0  0  0  0
    3.9815    3.5430   -0.7330 H   0  0  0  0  0  0  0  0  0  0  0  0
    3.5776    3.9355   -3.3384 H   0  0  0  0  0  0  0  0  0  0  0  0
    1.9360    4.3163   -2.7166 H   0  0  0  0  0  0  0  0  0  0  0  0
    3.3493    5.2814   -2.1709 H   0  0  0  0  0  0  0  0  0  0  0  0
  1  3  1  0  0  0  0
  1  7  1  0  0  0  0
  1  2  2  0  0  0  0
 32 33  1  0  0  0  0
 33 41  1  0  0  0  0
 33 34  2  0  0  0  0
  8  9  1  0  0  0  0
  9 17  1  0  0  0  0
  9 10  2  0  0  0  0
 18 19  1  0  0  0  0
 19 31  1  0  0  0  0
 19 20  2  0  0  0  0
 32 35  1  0  0  0  0
  8 11  1  0  0  0  0
 21 23  1  0  0  0  0
 41 42  1  0  0  0  0
 31 32  1  0  0  0  0
  7  8  1  0  0  0  0
 18 21  1  0  0  0  0
 17 18  1  0  0  0  0
 21 22  1  0  0  0  0
  3  4  1  0  0  0  0
  3  5  1  0  0  0  0
  3  6  1  0  0  0  0
 35 38  1  0  0  0  0
 35 39  1  0  0  0  0
 35 40  1  0  0  0  0
 11 14  1  0  0  0  0
 11 15  1  0  0  0  0
 11 16  1  0  0  0  0
 23 28  1  0  0  0  0
 23 29  1  0  0  0  0
 23 30  1  0  0  0  0
 42 44  1  0  0  0  0
 42 45  1  0  0  0  0
 42 46  1  0  0  0  0
 32 37  1  0  0  0  0
  8 13  1  0  0  0  0
 18 25  1  0  0  0  0
 21 26  1  0  0  0  0
 41 43  1  0  0  0  0
  7 12  1  0  0  0  0
 31 36  1  0  0  0  0
 17 24  1  0  0  0  0
 22 27  1  0  0  0  0
M  END
$$$$

  -OEChem-05262214473D

 46 45  0     1  0  0  0  0  0999 V2000
   -4.6700    2.7214    1.5150 C   0  0  0  0  0  0  0  0  0  0  0  0
   -5.4532    2.5715    0.5845 O   0  0  0  0  0  0  0  0  0  0  0  0
   -5.0996    3.4865    2.7226 C   0  0  0  0  0  0  0  0  0  0  0  0
   -4.8796    4.5629    2.6387 H   0  0  0  0  0  0  0  0  0  0  0  0
   -6.1861    3.4241    2.8954 H   0  0  0  0  0  0  0  0  0  0  0  0
   -4.6369    3.1693    3.6708 H   0  0  0  0  0  0  0  0  0  0  0  0
   -3.3731    2.2391    1.5790 N   0  0  0  0  0  0  0  0  0  0  0  0
   -2.7599    1.4751    0.5247 C   0  0  2  0  0  0  0  0  0  0  0  0
   -1.5143    0.8067    1.0915 C   0  0  0  0  0  0  0  0  0  0  0  0
   -0.9247    1.2213    2.0872 O   0  0  0  0  0  0  0  0  0  0  0  0
   -2.4106    2.3553   -0.6653 C   0  0  0  0  0  0  0  0  0  0  0  0
   -2.8254    2.4352    2.4150 H   0  0  0  0  0  0  0  0  0  0  0  0
   -3.4836    0.7082    0.2278 H   0  0  0  0  0  0  0  0  0  0  0  0
   -1.6866    3.1298   -0.3871 H   0  0  0  0  0  0  0  0  0  0  0  0
   -1.9704    1.7677   -1.4777 H   0  0  0  0  0  0  0  0  0  0  0  0
   -3.3030    2.8584   -1.0531 H   0  0  0  0  0  0  0  0  0  0  0  0
   -1.1107   -0.2839    0.3303 N   0  0  0  0  0  0  0  0  0  0  0  0
    0.0490   -1.0750    0.6539 C   0  0  2  0  0  0  0  0  0  0  0  0
    1.2453   -0.4521   -0.0599 C   0  0  0  0  0  0  0  0  0  0  0  0
    1.6162   -0.8036   -1.1779 O   0  0  0  0  0  0  0  0  0  0  0  0
   -0.1198   -2.5562    0.2856 C   0  0  2  0  0  0  0  0  0  0  0  0
   -0.3291   -2.7068   -1.1177 O   0  0  0  0  0  0  0  0  0  0  0  0
   -1.3006   -3.1980    1.0040 C   0  0  0  0  0  0  0  0  0  0  0  0
   -1.6733   -0.5660   -0.4691 H   0  0  0  0  0  0  0  0  0  0  0  0
    0.2018   -0.9737    1.7353 H   0  0  0  0  0  0  0  0  0  0  0  0
    0.7868   -3.1171    0.5409 H   0  0  0  0  0  0  0  0  0  0  0  0
   -0.3772   -3.6599   -1.2875 H   0  0  0  0  0  0  0  0  0  0  0  0
   -2.2366   -2.6739    0.7825 H   0  0  0  0  0  0  0  0  0  0  0  0
   -1.1490   -3.2084    2.0875 H   0  0  0  0  0  0  0  0  0  0  0  0
   -1.4356   -4.2303    0.6625 H   0  0  0  0  0  0  0  0  0  0  0  0
    1.8782    0.5065    0.7187 N   0  0  0  0  0  0  0  0  0  0  0  0
    3.0557    1.2147    0.2747 C   0  0  2  0  0  0  0  0  0  0  0  0
    2.6116    2.3087   -0.6873 C   0  0  0  0  0  0  0  0  0  0  0  0
    1.5465    2.2715   -1.2999 O   0  0  0  0  0  0  0  0  0  0  0  0
    4.0483    0.2748   -0.3917 C   0  0  0  0  0  0  0  0  0  0  0  0
    1.4984    0.7182    1.6368 H   0  0  0  0  0  0  0  0  0  0  0  0
    3.5051    1.6699    1.1640 H   0  0  0  0  0  0  0  0  0  0  0  0
    3.6158   -0.1908   -1.2848 H   0  0  0  0  0  0  0  0  0  0  0  0
    4.9528    0.8082   -0.7022 H   0  0  0  0  0  0  0  0  0  0  0  0
    4.3438   -0.5284    0.2919 H   0  0  0  0  0  0  0  0  0  0  0  0
    3.5640    3.3102   -0.8142 N   0  0  0  0  0  0  0  0  0  0  0  0
    3.3830    4.4532   -1.6784 C   0  0  0  0  0  0  0  0  0  0  0  0
    4.4101    3.2691   -0.2537 H   0  0  0  0  0  0  0  0  0  0  0  0
    3.8206    4.2406   -2.6650 H   0  0  0  0  0  0  0  0  0  0  0  0
    2.3087    4.6611   -1.7910 H   0  0  0  0  0  0  0  0  0  0  0  0
    3.8817    5.3289   -1.2373 H   0  0  0  0  0  0  0  0  0  0  0  0
  1  3  1  0  0  0  0
  1  7  1  0  0  0  0
  1  2  2  0  0  0  0
 32 33  1  0  0  0  0
 33 41  1  0  0  0  0
 33 34  2  0  0  0  0
  8  9  1  0  0  0  0
  9 17  1  0  0  0  0
  9 10  2  0  0  0  0
 18 19  1  0  0  0  0
 19 31  1  0  0  0  0
 19 20  2  0  0  0  0
 32 35  1  0  0  0  0
  8 11  1  0  0  0  0
 21 23  1  0  0  0  0
 41 42  1  0  0  0  0
 31 32  1  0  0  0  0
  7  8  1  0  0  0  0
 18 21  1  0  0  0  0
 17 18  1  0  0  0  0
 21 22  1  0  0  0  0
  3  4  1  0  0  0  0
  3  5  1  0  0  0  0
  3  6  1  0  0  0  0
 35 38  1  0  0  0  0
 35 39  1  0  0  0  0
 35 40  1  0  0  0  0
 11 14  1  0  0  0  0
 11 15  1  0  0  0  0
 11 16  1  0  0  0  0
 23 28  1  0  0  0  0
 23 29  1  0  0  0  0
 23 30  1  0  0  0  0
 42 44  1  0  0  0  0
 42 45  1  0  0  0  0
 42 46  1  0  0  0  0
 32 37  1  0  0  0  0
  8 13  1  0  0  0  0
 18 25  1  0  0  0  0
 21 26  1  0  0  0  0
 41 43  1  0  0  0  0
  7 12  1  0  0  0  0
 31 36  1  0  0  0  0
 17 24  1  0  0  0  0
 22 27  1  0  0  0  0
M  END
$$$$

  -OEChem-05262214473D

 46 45  0     1  0  0  0  0  0999 V2000
   -4.6700    2.7214    1.5150 C   0  0  0  0  0  0  0  0  0  0  0  0
   -5.4532    2.5715    0.5845 O   0  0  0  0  0  0  0  0  0  0  0  0
   -5.0996    3.4865    2.7226 C   0  0  0  0  0  0  0  0  0  0  0  0
   -4.8796    4.5629    2.6387 H   0  0  0  0  0  0  0  0  0  0  0  0
   -6.1861    3.4241    2.8954 H   0  0  0  0  0  0  0  0  0  0  0  0
   -4.6369    3.1693    3.6708 H   0  0  0  0  0  0  0  0  0  0  0  0
   -3.3731    2.2391    1.5790 N   0  0  0  0  0  0  0  0  0  0  0  0
   -2.7599    1.4751    0.5247 C   0  0  2  0  0  0  0  0  0  0  0  0
   -1.5143    0.8067    1.0915 C   0  0  0  0  0  0  0  0  0  0  0  0
   -0.9247    1.2213    2.0872 O   0  0  0  0  0  0  0  0  0  0  0  0
   -2.4106    2.3553   -0.6653 C   0  0  0  0  0  0  0  0  0  0  0  0
   -2.8254    2.4352    2.4150 H   0  0  0  0  0  0  0  0  0  0  0  0
   -3.4836    0.7082    0.2278 H   0  0  0  0  0  0  0  0  0  0  0  0
   -1.6866    3.1298   -0.3871 H   0  0  0  0  0  0  0  0  0  0  0  0
   -1.9704    1.7677   -1.4777 H   0  0  0  0  0  0  0  0  0  0  0  0
   -3.3030    2.8584   -1.0531 H   0  0  0  0  0  0  0  0  0  0  0  0
   -1.1107   -0.2839    0.3303 N   0  0  0  0  0  0  0  0  0  0  0  0
    0.0490   -1.0750    0.6539 C   0  0  2  0  0  0  0  0  0  0  0  0
    1.2453   -0.4521   -0.0599 C   0  0  0  0  0  0  0  0  0  0  0  0
    1.4608   -0.6004   -1.2610 O   0  0  0  0  0  0  0  0  0  0  0  0
   -0.1198   -2.5562    0.2856 C   0  0  2  0  0  0  0  0  0  0  0  0
   -0.3291   -2.7068   -1.1177 O   0  0  0  0  0  0  0  0  0  0  0  0
   -1.3006   -3.1980    1.0040 C   0  0  0  0  0  0  0  0  0  0  0  0
   -1.6733   -0.5660   -0.4691 H   0  0  0  0  0  0  0  0  0  0  0  0
    0.2018   -0.9737    1.7353 H   0  0  0  0  0  0  0  0  0  0  0  0
    0.7868   -3.1171    0.5409 H   0  0  0  0  0  0  0  0  0  0  0  0
   -0.3772   -3.6599   -1.2875 H   0  0  0  0  0  0  0  0  0  0  0  0
   -2.2366   -2.6739    0.7825 H   0  0  0  0  0  0  0  0  0  0  0  0
   -1.1490   -3.2084    2.0875 H   0  0  0  0  0  0  0  0  0  0  0  0
   -1.4356   -4.2303    0.6625 H   0  0  0  0  0  0  0  0  0  0  0  0
    2.0689    0.2465    0.8115 N   0  0  0  0  0  0  0  0  0  0  0  0
    3.2831    0.8979    0.3793 C   0  0  2  0  0  0  0  0  0  0  0  0
    2.8996    2.2112   -0.2898 C   0  0  0  0  0  0  0  0  0  0  0  0
    1.7865    2.4206   -0.7676 O   0  0  0  0  0  0  0  0  0  0  0  0
    4.0765    0.0149   -0.5713 C   0  0  0  0  0  0  0  0  0  0  0  0
    1.8076    0.3018    1.7916 H   0  0  0  0  0  0  0  0  0  0  0  0
    3.8695    1.1045    1.2812 H   0  0  0  0  0  0  0  0  0  0  0  0
    3.5050   -0.2028   -1.4809 H   0  0  0  0  0  0  0  0  0  0  0  0
    5.0106    0.4986   -0.8756 H   0  0  0  0  0  0  0  0  0  0  0  0
    4.3258   -0.9412   -0.0985 H   0  0  0  0  0  0  0  0  0  0  0  0
    3.9598    3.1059   -0.3292 N   0  0  0  0  0  0  0  0  0  0  0  0
    3.8515    4.4174   -0.9244 C   0  0  0  0  0  0  0  0  0  0  0  0
    4.8416    2.8554    0.1084 H   0  0  0  0  0  0  0  0  0  0  0  0
    4.1634    4.3692   -1.9782 H   0  0  0  0  0  0  0  0  0  0  0  0
    2.8083    4.7613   -0.8663 H   0  0  0  0  0  0  0  0  0  0  0  0
    4.5003    5.1208   -0.3820 H   0  0  0  0  0  0  0  0  0  0  0  0
  1  3  1  0  0  0  0
  1  7  1  0  0  0  0
  1  2  2  0  0  0  0
 32 33  1  0  0  0  0
 33 41  1  0  0  0  0
 33 34  2  0  0  0  0
  8  9  1  0  0  0  0
  9 17  1  0  0  0  0
  9 10  2  0  0  0  0
 18 19  1  0  0  0  0
 19 31  1  0  0  0  0
 19 20  2  0  0  0  0
 32 35  1  0  0  0  0
  8 11  1  0  0  0  0
 21 23  1  0  0  0  0
 41 42  1  0  0  0  0
 31 32  1  0  0  0  0
  7  8  1  0  0  0  0
 18 21  1  0  0  0  0
 17 18  1  0  0  0  0
 21 22  1  0  0  0  0
  3  4  1  0  0  0  0
  3  5  1  0  0  0  0
  3  6  1  0  0  0  0
 35 38  1  0  0  0  0
 35 39  1  0  0  0  0
 35 40  1  0  0  0  0
 11 14  1  0  0  0  0
 11 15  1  0  0  0  0
 11 16  1  0  0  0  0
 23 28  1  0  0  0  0
 23 29  1  0  0  0  0
 23 30  1  0  0  0  0
 42 44  1  0  0  0  0
 42 45  1  0  0  0  0
 42 46  1  0  0  0  0
 32 37  1  0  0  0  0
  8 13  1  0  0  0  0
 18 25  1  0  0  0  0
 21 26  1  0  0  0  0
 41 43  1  0  0  0  0
  7 12  1  0  0  0  0
 31 36  1  0  0  0  0
 17 24  1  0  0  0  0
 22 27  1  0  0  0  0
M  END
$$$$

  -OEChem-05262214473D

 46 45  0     1  0  0  0  0  0999 V2000
   -4.6700    2.7214    1.5150 C   0  0  0  0  0  0  0  0  0  0  0  0
   -5.4532    2.5715    0.5845 O   0  0  0  0  0  0  0  0  0  0  0  0
   -5.0996    3.4865    2.7226 C   0  0  0  0  0  0  0  0  0  0  0  0
   -4.8796    4.5629    2.6387 H   0  0  0  0  0  0  0  0  0  0  0  0
   -6.1861    3.4241    2.8954 H   0  0  0  0  0  0  0  0  0  0  0  0
   -4.6369    3.1693    3.6708 H   0  0  0  0  0  0  0  0  0  0  0  0
   -3.3731    2.2391    1.5790 N   0  0  0  0  0  0  0  0  0  0  0  0
   -2.7599    1.4751    0.5247 C   0  0  2  0  0  0  0  0  0  0  0  0
   -1.5143    0.8067    1.0915 C   0  0  0  0  0  0  0  0  0  0  0  0
   -0.9247    1.2213    2.0872 O   0  0  0  0  0  0  0  0  0  0  0  0
   -2.4106    2.3553   -0.6653 C   0  0  0  0  0  0  0  0  0  0  0  0
   -2.8254    2.4352    2.4150 H   0  0  0  0  0  0  0  0  0  0  0  0
   -3.4836    0.7082    0.2278 H   0  0  0  0  0  0  0  0  0  0  0  0
   -1.6866    3.1298   -0.3871 H   0  0  0  0  0  0  0  0  0  0  0  0
   -1.9704    1.7677   -1.4777 H   0  0  0  0  0  0  0  0  0  0  0  0
   -3.3030    2.8584   -1.0531 H   0  0  0  0  0  0  0  0  0  0  0  0
   -1.1107   -0.2839    0.3303 N   0  0  0  0  0  0  0  0  0  0  0  0
    0.0490   -1.0750    0.6539 C   0  0  2  0  0  0  0  0  0  0  0  0
    1.2453   -0.4521   -0.0599 C   0  0  0  0  0  0  0  0  0  0  0  0
    1.3265   -0.3684   -1.2836 O   0  0  0  0  0  0  0  0  0  0  0  0
   -0.1198   -2.5562    0.2856 C   0  0  2  0  0  0  0  0  0  0  0  0
   -0.3291   -2.7068   -1.1177 O   0  0  0  0  0  0  0  0  0  0  0  0
   -1.3006   -3.1980    1.0040 C   0  0  0  0  0  0  0  0  0  0  0  0
   -1.6733   -0.5660   -0.4691 H   0  0  0  0  0  0  0  0  0  0  0  0
    0.2018   -0.9737    1.7353 H   0  0  0  0  0  0  0  0  0  0  0  0
    0.7868   -3.1171    0.5409 H   0  0  0  0  0  0  0  0  0  0  0  0
   -0.3772   -3.6599   -1.2875 H   0  0  0  0  0  0  0  0  0  0  0  0
   -2.2366   -2.6739    0.7825 H   0  0  0  0  0  0  0  0  0  0  0  0
   -1.1490   -3.2084    2.0875 H   0  0  0  0  0  0  0  0  0  0  0  0
   -1.4356   -4.2303    0.6625 H   0  0  0  0  0  0  0  0  0  0  0  0
    2.2315   -0.0466    0.8282 N   0  0  0  0  0  0  0  0  0  0  0  0
    3.4754    0.5431    0.3920 C   0  0  2  0  0  0  0  0  0  0  0  0
    3.2079    2.0015    0.0439 C   0  0  0  0  0  0  0  0  0  0  0  0
    2.0926    2.4277   -0.2485 O   0  0  0  0  0  0  0  0  0  0  0  0
    4.0533   -0.2031   -0.8004 C   0  0  0  0  0  0  0  0  0  0  0  0
    2.0721   -0.1693    1.8239 H   0  0  0  0  0  0  0  0  0  0  0  0
    4.1653    0.4904    1.2412 H   0  0  0  0  0  0  0  0  0  0  0  0
    3.3759   -0.1613   -1.6611 H   0  0  0  0  0  0  0  0  0  0  0  0
    5.0106    0.2276   -1.1120 H   0  0  0  0  0  0  0  0  0  0  0  0
    4.2172   -1.2586   -0.5575 H   0  0  0  0  0  0  0  0  0  0  0  0
    4.3686    2.7623    0.0561 N   0  0  0  0  0  0  0  0  0  0  0  0
    4.3793    4.1731   -0.2530 C   0  0  0  0  0  0  0  0  0  0  0  0
    5.2465    2.3301    0.3287 H   0  0  0  0  0  0  0  0  0  0  0  0
    4.5826    4.3125   -1.3250 H   0  0  0  0  0  0  0  0  0  0  0  0
    3.4006    4.6100   -0.0056 H   0  0  0  0  0  0  0  0  0  0  0  0
    5.1629    4.6715    0.3365 H   0  0  0  0  0  0  0  0  0  0  0  0
  1  3  1  0  0  0  0
  1  7  1  0  0  0  0
  1  2  2  0  0  0  0
 32 33  1  0  0  0  0
 33 41  1  0  0  0  0
 33 34  2  0  0  0  0
  8  9  1  0  0  0  0
  9 17  1  0  0  0  0
  9 10  2  0  0  0  0
 18 19  1  0  0  0  0
 19 31  1  0  0  0  0
 19 20  2  0  0  0  0
 32 35  1  0  0  0  0
  8 11  1  0  0  0  0
 21 23  1  0  0  0  0
 41 42  1  0  0  0  0
 31 32  1  0  0  0  0
  7  8  1  0  0  0  0
 18 21  1  0  0  0  0
 17 18  1  0  0  0  0
 21 22  1  0  0  0  0
  3  4  1  0  0  0  0
  3  5  1  0  0  0  0
  3  6  1  0  0  0  0
 35 38  1  0  0  0  0
 35 39  1  0  0  0  0
 35 40  1  0  0  0  0
 11 14  1  0  0  0  0
 11 15  1  0  0  0  0
 11 16  1  0  0  0  0
 23 28  1  0  0  0  0
 23 29  1  0  0  0  0
 23 30  1  0  0  0  0
 42 44  1  0  0  0  0
 42 45  1  0  0  0  0
 42 46  1  0  0  0  0
 32 37  1  0  0  0  0
  8 13  1  0  0  0  0
 18 25  1  0  0  0  0
 21 26  1  0  0  0  0
 41 43  1  0  0  0  0
  7 12  1  0  0  0  0
 31 36  1  0  0  0  0
 17 24  1  0  0  0  0
 22 27  1  0  0  0  0
M  END
$$$$

  -OEChem-05262214473D

 46 45  0     1  0  0  0  0  0999 V2000
   -4.6700    2.7214    1.5150 C   0  0  0  0  0  0  0  0  0  0  0  0
   -5.4532    2.5715    0.5845 O   0  0  0  0  0  0  0  0  0  0  0  0
   -5.0996    3.4865    2.7226 C   0  0  0  0  0  0  0  0  0  0  0  0
   -4.8796    4.5629    2.6387 H   0  0  0  0  0  0  0  0  0  0  0  0
   -6.1861    3.4241    2.8954 H   0  0  0  0  0  0  0  0  0  0  0  0
   -4.6369    3.1693    3.6708 H   0  0  0  0  0  0  0  0  0  0  0  0
   -3.3731    2.2391    1.5790 N   0  0  0  0  0  0  0  0  0  0  0  0
   -2.7599    1.4751    0.5247 C   0  0  2  0  0  0  0  0  0  0  0  0
   -1.5143    0.8067    1.0915 C   0  0  0  0  0  0  0  0  0  0  0  0
   -0.9247    1.2213    2.0872 O   0  0  0  0  0  0  0  0  0  0  0  0
   -2.4106    2.3553   -0.6653 C   0  0  0  0  0  0  0  0  0  0  0  0
   -2.8254    2.4352    2.4150 H   0  0  0  0  0  0  0  0  0  0  0  0
   -3.4836    0.7082    0.2278 H   0  0  0  0  0  0  0  0  0  0  0  0
   -1.6866    3.1298   -0.3871 H   0  0  0  0  0  0  0  0  0  0  0  0
   -1.9704    1.7677   -1.4777 H   0  0  0  0  0  0  0  0  0  0  0  0
   -3.3030    2.8584   -1.0531 H   0  0  0  0  0  0  0  0  0  0  0  0
   -1.1107   -0.2839    0.3303 N   0  0  0  0  0  0  0  0  0  0  0  0
    0.0490   -1.0750    0.6539 C   0  0  2  0  0  0  0  0  0  0  0  0
    1.2453   -0.4521   -0.0599 C   0  0  0  0  0  0  0  0  0  0  0  0
    1.2225   -0.1234   -1.2442 O   0  0  0  0  0  0  0  0  0  0  0  0
   -0.1198   -2.5562    0.2856 C   0  0  2  0  0  0  0  0  0  0  0  0
   -0.3291   -2.7068   -1.1177 O   0  0  0  0  0  0  0  0  0  0  0  0
   -1.3006   -3.1980    1.0040 C   0  0  0  0  0  0  0  0  0  0  0  0
   -1.6733   -0.5660   -0.4691 H   0  0  0  0  0  0  0  0  0  0  0  0
    0.2018   -0.9737    1.7353 H   0  0  0  0  0  0  0  0  0  0  0  0
    0.7868   -3.1171    0.5409 H   0  0  0  0  0  0  0  0  0  0  0  0
   -0.3772   -3.6599   -1.2875 H   0  0  0  0  0  0  0  0  0  0  0  0
   -2.2366   -2.6739    0.7825 H   0  0  0  0  0  0  0  0  0  0  0  0
   -1.1490   -3.2084    2.0875 H   0  0  0  0  0  0  0  0  0  0  0  0
   -1.4356   -4.2303    0.6625 H   0  0  0  0  0  0  0  0  0  0  0  0
    2.3548   -0.3527    0.7677 N   0  0  0  0  0  0  0  0  0  0  0  0
    3.6195    0.1746    0.3120 C   0  0  2  0  0  0  0  0  0  0  0  0
    3.5156    1.6939    0.2912 C   0  0  0  0  0  0  0  0  0  0  0  0
    2.4439    2.2920    0.2220 O   0  0  0  0  0  0  0  0  0  0  0  0
    3.9803   -0.3644   -1.0635 C   0  0  0  0  0  0  0  0  0  0  0  0
    2.2741   -0.6629    1.7316 H   0  0  0  0  0  0  0  0  0  0  0  0
    4.3726   -0.1305    1.0467 H   0  0  0  0  0  0  0  0  0  0  0  0
    3.2371   -0.0689   -1.8131 H   0  0  0  0  0  0  0  0  0  0  0  0
    4.9528    0.0139   -1.3953 H   0  0  0  0  0  0  0  0  0  0  0  0
    4.0254   -1.4588   -1.0537 H   0  0  0  0  0  0  0  0  0  0  0  0
    4.7626    2.3027    0.3153 N   0  0  0  0  0  0  0  0  0  0  0  0
    4.9306    3.7369    0.2903 C   0  0  0  0  0  0  0  0  0  0  0  0
    5.5973    1.7290    0.3920 H   0  0  0  0  0  0  0  0  0  0  0  0
    5.0497    4.0746   -0.7498 H   0  0  0  0  0  0  0  0  0  0  0  0
    4.0454    4.2174    0.7325 H   0  0  0  0  0  0  0  0  0  0  0  0
    5.8246    4.0114    0.8694 H   0  0  0  0  0  0  0  0  0  0  0  0
  1  3  1  0  0  0  0
  1  7  1  0  0  0  0
  1  2  2  0  0  0  0
 32 33  1  0  0  0  0
 33 41  1  0  0  0  0
 33 34  2  0  0  0  0
  8  9  1  0  0  0  0
  9 17  1  0  0  0  0
  9 10  2  0  0  0  0
 18 19  1  0  0  0  0
 19 31  1  0  0  0  0
 19 20  2  0  0  0  0
 32 35  1  0  0  0  0
  8 11  1  0  0  0  0
 21 23  1  0  0  0  0
 41 42  1  0  0  0  0
 31 32  1  0  0  0  0
  7  8  1  0  0  0  0
 18 21  1  0  0  0  0
 17 18  1  0  0  0  0
 21 22  1  0  0  0  0
  3  4  1  0  0  0  0
  3  5  1  0  0  0  0
  3  6  1  0  0  0  0
 35 38  1  0  0  0  0
 35 39  1  0  0  0  0
 35 40  1  0  0  0  0
 11 14  1  0  0  0  0
 11 15  1  0  0  0  0
 11 16  1  0  0  0  0
 23 28  1  0  0  0  0
 23 29  1  0  0  0  0
 23 30  1  0  0  0  0
 42 44  1  0  0  0  0
 42 45  1  0  0  0  0
 42 46  1  0  0  0  0
 32 37  1  0  0  0  0
  8 13  1  0  0  0  0
 18 25  1  0  0  0  0
 21 26  1  0  0  0  0
 41 43  1  0  0  0  0
  7 12  1  0  0  0  0
 31 36  1  0  0  0  0
 17 24  1  0  0  0  0
 22 27  1  0  0  0  0
M  END
$$$$

  -OEChem-05262214473D

 46 45  0     1  0  0  0  0  0999 V2000
   -4.6700    2.7214    1.5150 C   0  0  0  0  0  0  0  0  0  0  0  0
   -5.4532    2.5715    0.5845 O   0  0  0  0  0  0  0  0  0  0  0  0
   -5.0996    3.4865    2.7226 C   0  0  0  0  0  0  0  0  0  0  0  0
   -4.8796    4.5629    2.6387 H   0  0  0  0  0  0  0  0  0  0  0  0
   -6.1861    3.4241    2.8954 H   0  0  0  0  0  0  0  0  0  0  0  0
   -4.6369    3.1693    3.6708 H   0  0  0  0  0  0  0  0  0  0  0  0
   -3.3731    2.2391    1.5790 N   0  0  0  0  0  0  0  0  0  0  0  0
   -2.7599    1.4751    0.5247 C   0  0  2  0  0  0  0  0  0  0  0  0
   -1.5143    0.8067    1.0915 C   0  0  0  0  0  0  0  0  0  0  0  0
   -0.9247    1.2213    2.0872 O   0  0  0  0  0  0  0  0  0  0  0  0
   -2.4106    2.3553   -0.6653 C   0  0  0  0  0  0  0  0  0  0  0  0
   -2.8254    2.4352    2.4150 H   0  0  0  0  0  0  0  0  0  0  0  0
   -3.4836    0.7082    0.2278 H   0  0  0  0  0  0  0  0  0  0  0  0
   -1.6866    3.1298   -0.3871 H   0  0  0  0  0  0  0  0  0  0  0  0
   -1.9704    1.7677   -1.4777 H   0  0  0  0  0  0  0  0  0  0  0  0
   -3.3030    2.8584   -1.0531 H   0  0  0  0  0  0  0  0  0  0  0  0
   -1.1107   -0.2839    0.3303 N   0  0  0  0  0  0  0  0  0  0  0  0
    0.0490   -1.0750    0.6539 C   0  0  2  0  0  0  0  0  0  0  0  0
    1.2453   -0.4521   -0.0599 C   0  0  0  0  0  0  0  0  0  0  0  0
    1.1558    0.1178   -1.1454 O   0  0  0  0  0  0  0  0  0  0  0  0
   -0.1198   -2.5562    0.2856 C   0  0  2  0  0  0  0  0  0  0  0  0
   -0.3291   -2.7068   -1.1177 O   0  0  0  0  0  0  0  0  0  0  0  0
   -1.3006   -3.1980    1.0040 C   0  0  0  0  0  0  0  0  0  0  0  0
   -1.6733   -0.5660   -0.4691 H   0  0  0  0  0  0  0  0  0  0  0  0
    0.2018   -0.9737    1.7353 H   0  0  0  0  0  0  0  0  0  0  0  0
    0.7868   -3.1171    0.5409 H   0  0  0  0  0  0  0  0  0  0  0  0
   -0.3772   -3.6599   -1.2875 H   0  0  0  0  0  0  0  0  0  0  0  0
   -2.2366   -2.6739    0.7825 H   0  0  0  0  0  0  0  0  0  0  0  0
   -1.1490   -3.2084    2.0875 H   0  0  0  0  0  0  0  0  0  0  0  0
   -1.4356   -4.2303    0.6625 H   0  0  0  0  0  0  0  0  0  0  0  0
    2.4304   -0.6510    0.6342 N   0  0  0  0  0  0  0  0  0  0  0  0
    3.7057   -0.1826    0.1446 C   0  0  2  0  0  0  0  0  0  0  0  0
    3.8017    1.3093    0.4351 C   0  0  0  0  0  0  0  0  0  0  0  0
    2.8166    2.0231    0.6119 O   0  0  0  0  0  0  0  0  0  0  0  0
    3.8625   -0.4580   -1.3427 C   0  0  0  0  0  0  0  0  0  0  0  0
    2.3997   -1.1454    1.5210 H   0  0  0  0  0  0  0  0  0  0  0  0
    4.4770   -0.7159    0.7109 H   0  0  0  0  0  0  0  0  0  0  0  0
    3.0982    0.0679   -1.9265 H   0  0  0  0  0  0  0  0  0  0  0  0
    4.8412   -0.1281   -1.7063 H   0  0  0  0  0  0  0  0  0  0  0  0
    3.7635   -1.5284   -1.5534 H   0  0  0  0  0  0  0  0  0  0  0  0
    5.1149    1.7584    0.4308 N   0  0  0  0  0  0  0  0  0  0  0  0
    5.4676    3.1387    0.6683 C   0  0  0  0  0  0  0  0  0  0  0  0
    5.8701    1.0930    0.2942 H   0  0  0  0  0  0  0  0  0  0  0  0
    5.5328    3.6714   -0.2919 H   0  0  0  0  0  0  0  0  0  0  0  0
    4.6986    3.6104    1.2977 H   0  0  0  0  0  0  0  0  0  0  0  0
    6.4400    3.1856    1.1803 H   0  0  0  0  0  0  0  0  0  0  0  0
  1  3  1  0  0  0  0
  1  7  1  0  0  0  0
  1  2  2  0  0  0  0
 32 33  1  0  0  0  0
 33 41  1  0  0  0  0
 33 34  2  0  0  0  0
  8  9  1  0  0  0  0
  9 17  1  0  0  0  0
  9 10  2  0  0  0  0
 18 19  1  0  0  0  0
 19 31  1  0  0  0  0
 19 20  2  0  0  0  0
 32 35  1  0  0  0  0
  8 11  1  0  0  0  0
 21 23  1  0  0  0  0
 41 42  1  0  0  0  0
 31 32  1  0  0  0  0
  7  8  1  0  0  0  0
 18 21  1  0  0  0  0
 17 18  1  0  0  0  0
 21 22  1  0  0  0  0
  3  4  1  0  0  0  0
  3  5  1  0  0  0  0
  3  6  1  0  0  0  0
 35 38  1  0  0  0  0
 35 39  1  0  0  0  0
 35 40  1  0  0  0  0
 11 14  1  0  0  0  0
 11 15  1  0  0  0  0
 11 16  1  0  0  0  0
 23 28  1  0  0  0  0
 23 29  1  0  0  0  0
 23 30  1  0  0  0  0
 42 44  1  0  0  0  0
 42 45  1  0  0  0  0
 42 46  1  0  0  0  0
 32 37  1  0  0  0  0
  8 13  1  0  0  0  0
 18 25  1  0  0  0  0
 21 26  1  0  0  0  0
 41 43  1  0  0  0  0
  7 12  1  0  0  0  0
 31 36  1  0  0  0  0
 17 24  1  0  0  0  0
 22 27  1  0  0  0  0
M  END
$$$$

  -OEChem-05262214473D

 46 45  0     1  0  0  0  0  0999 V2000
   -4.6700    2.7214    1.5150 C   0  0  0  0  0  0  0  0  0  0  0  0
   -5.4532    2.5715    0.5845 O   0  0  0  0  0  0  0  0  0  0  0  0
   -5.0996    3.4865    2.7226 C   0  0  0  0  0  0  0  0  0  0  0  0
   -4.8796    4.5629    2.6387 H   0  0  0  0  0  0  0  0  0  0  0  0
   -6.1861    3.4241    2.8954 H   0  0  0  0  0  0  0  0  0  0  0  0
   -4.6369    3.1693    3.6708 H   0  0  0  0  0  0  0  0  0  0  0  0
   -3.3731    2.2391    1.5790 N   0  0  0  0  0  0  0  0  0  0  0  0
   -2.7599    1.4751    0.5247 C   0  0  2  0  0  0  0  0  0  0  0  0
   -1.5143    0.8067    1.0915 C   0  0  0  0  0  0  0  0  0  0  0  0
   -0.9247    1.2213    2.0872 O   0  0  0  0  0  0  0  0  0  0  0  0
   -2.4106    2.3553   -0.6653 C   0  0  0  0  0  0  0  0  0  0  0  0
   -2.8254    2.4352    2.4150 H   0  0  0  0  0  0  0  0  0  0  0  0
   -3.4836    0.7082    0.2278 H   0  0  0  0  0  0  0  0  0  0  0  0
   -1.6866    3.1298   -0.3871 H   0  0  0  0  0  0  0  0  0  0  0  0
   -1.9704    1.7677   -1.4777 H   0  0  0  0  0  0  0  0  0  0  0  0
   -3.3030    2.8584   -1.0531 H   0  0  0  0  0  0  0  0  0  0  0  0
   -1.1107   -0.2839    0.3303 N   0  0  0  0  0  0  0  0  0  0  0  0
    0.0490   -1.0750    0.6539 C   0  0  2  0  0  0  0  0  0  0  0  0
    1.2453   -0.4521   -0.0599 C   0  0  0  0  0  0  0  0  0  0  0  0
    1.1311    0.3388   -0.9940 O   0  0  0  0  0  0  0  0  0  0  0  0
   -0.1198   -2.5562    0.2856 C   0  0  2  0  0  0  0  0  0  0  0  0
   -0.3291   -2.7068   -1.1177 O   0  0  0  0  0  0  0  0  0  0  0  0
   -1.3006   -3.1980    1.0040 C   0  0  0  0  0  0  0  0  0  0  0  0
   -1.6733   -0.5660   -0.4691 H   0  0  0  0  0  0  0  0  0  0  0  0
    0.2018   -0.9737    1.7353 H   0  0  0  0  0  0  0  0  0  0  0  0
    0.7868   -3.1171    0.5409 H   0  0  0  0  0  0  0  0  0  0  0  0
   -0.3772   -3.6599   -1.2875 H   0  0  0  0  0  0  0  0  0  0  0  0
   -2.2366   -2.6739    0.7825 H   0  0  0  0  0  0  0  0  0  0  0  0
   -1.1490   -3.2084    2.0875 H   0  0  0  0  0  0  0  0  0  0  0  0
   -1.4356   -4.2303    0.6625 H   0  0  0  0  0  0  0  0  0  0  0  0
    2.4532   -0.9213    0.4366 N   0  0  0  0  0  0  0  0  0  0  0  0
    3.7280   -0.5041   -0.0985 C   0  0  2  0  0  0  0  0  0  0  0  0
    4.0467    0.8741    0.4658 C   0  0  0  0  0  0  0  0  0  0  0  0
    3.1851    1.6390    0.8945 O   0  0  0  0  0  0  0  0  0  0  0  0
    3.7078   -0.4775   -1.6189 C   0  0  0  0  0  0  0  0  0  0  0  0
    2.4403   -1.5839    1.2064 H   0  0  0  0  0  0  0  0  0  0  0  0
    4.4716   -1.2258    0.2568 H   0  0  0  0  0  0  0  0  0  0  0  0
    2.9686    0.2399   -1.9935 H   0  0  0  0  0  0  0  0  0  0  0  0
    4.6834   -0.1887   -2.0237 H   0  0  0  0  0  0  0  0  0  0  0  0
    3.4492   -1.4624   -2.0226 H   0  0  0  0  0  0  0  0  0  0  0  0
    5.4015    1.1666    0.3948 N   0  0  0  0  0  0  0  0  0  0  0  0
    5.9538    2.4191    0.8553 C   0  0  0  0  0  0  0  0  0  0  0  0
    6.0462    0.4655    0.0419 H   0  0  0  0  0  0  0  0  0  0  0  0
    5.9991    3.1306    0.0176 H   0  0  0  0  0  0  0  0  0  0  0  0
    5.3159    2.8304    1.6515 H   0  0  0  0  0  0  0  0  0  0  0  0
    6.9674    2.2504    1.2480 H   0  0  0  0  0  0  0  0  0  0  0  0
  1  3  1  0  0  0  0
  1  7  1  0  0  0  0
  1  2  2  0  0  0  0
 32 33  1  0  0  0  0
 33 41  1  0  0  0  0
 33 34  2  0  0  0  0
  8  9  1  0  0  0  0
  9 17  1  0  0  0  0
  9 10  2  0  0  0  0
 18 19  1  0  0  0  0
 19 31  1  0  0  0  0
 19 20  2  0  0  0  0
 32 35  1  0  0  0  0
  8 11  1  0  0  0  0
 21 23  1  0  0  0  0
 41 42  1  0  0  0  0
 31 32  1  0  0  0  0
  7  8  1  0  0  0  0
 18 21  1  0  0  0  0
 17 18  1  0  0  0  0
 21 22  1  0  0  0  0
  3  4  1  0  0  0  0
  3  5  1  0  0  0  0
  3  6  1  0  0  0  0
 35 38  1  0  0  0  0
 35 39  1  0  0  0  0
 35 40  1  0  0  0  0
 11 14  1  0  0  0  0
 11 15  1  0  0  0  0
 11 16  1  0  0  0  0
 23 28  1  0  0  0  0
 23 29  1  0  0  0  0
 23 30  1  0  0  0  0
 42 44  1  0  0  0  0
 42 45  1  0  0  0  0
 42 46  1  0  0  0  0
 32 37  1  0  0  0  0
  8 13  1  0  0  0  0
 18 25  1  0  0  0  0
 21 26  1  0  0  0  0
 41 43  1  0  0  0  0
  7 12  1  0  0  0  0
 31 36  1  0  0  0  0
 17 24  1  0  0  0  0
 22 27  1  0  0  0  0
M  END
$$$$

  -OEChem-05262214473D

 46 45  0     1  0  0  0  0  0999 V2000
   -4.6700    2.7214    1.5150 C   0  0  0  0  0  0  0  0  0  0  0  0
   -5.4532    2.5715    0.5845 O   0  0  0  0  0  0  0  0  0  0  0  0
   -5.0996    3.4865    2.7226 C   0  0  0  0  0  0  0  0  0  0  0  0
   -4.8796    4.5629    2.6387 H   0  0  0  0  0  0  0  0  0  0  0  0
   -6.1861    3.4241    2.8954 H   0  0  0  0  0  0  0  0  0  0  0  0
   -4.6369    3.1693    3.6708 H   0  0  0  0  0  0  0  0  0  0  0  0
   -3.3731    2.2391    1.5790 N   0  0  0  0  0  0  0  0  0  0  0  0
   -2.7599    1.4751    0.5247 C   0  0  2  0  0  0  0  0  0  0  0  0
   -1.5143    0.8067    1.0915 C   0  0  0  0  0  0  0  0  0  0  0  0
   -0.9247    1.2213    2.0872 O   0  0  0  0  0  0  0  0  0  0  0  0
   -2.4106    2.3553   -0.6653 C   0  0  0  0  0  0  0  0  0  0  0  0
   -2.8254    2.4352    2.4150 H   0  0  0  0  0  0  0  0  0  0  0  0
   -3.4836    0.7082    0.2278 H   0  0  0  0  0  0  0  0  0  0  0  0
   -1.6866    3.1298   -0.3871 H   0  0  0  0  0  0  0  0  0  0  0  0
   -1.9704    1.7677   -1.4777 H   0  0  0  0  0  0  0  0  0  0  0  0
   -3.3030    2.8584   -1.0531 H   0  0  0  0  0  0  0  0  0  0  0  0
   -1.1107   -0.2839    0.3303 N   0  0  0  0  0  0  0  0  0  0  0  0
    0.0490   -1.0750    0.6539 C   0  0  2  0  0  0  0  0  0  0  0  0
    1.2824   -0.2637    0.2678 C   0  0  0  0  0  0  0  0  0  0  0  0
    1.2174    0.8430   -0.2635 O   0  0  0  0  0  0  0  0  0  0  0  0
    0.0407   -2.4500   -0.0299 C   0  0  2  0  0  0  0  0  0  0  0  0
    0.0357   -2.3077   -1.4496 O   0  0  0  0  0  0  0  0  0  0  0  0
   -1.1766   -3.2800    0.3591 C   0  0  0  0  0  0  0  0  0  0  0  0
   -1.6733   -0.5660   -0.4691 H   0  0  0  0  0  0  0  0  0  0  0  0
    0.0455   -1.1994    1.7436 H   0  0  0  0  0  0  0  0  0  0  0  0
    0.9428   -3.0127    0.2371 H   0  0  0  0  0  0  0  0  0  0  0  0
    0.0810   -3.2041   -1.8156 H   0  0  0  0  0  0  0  0  0  0  0  0
   -2.1097   -2.7616    0.1130 H   0  0  0  0  0  0  0  0  0  0  0  0
   -1.1734   -3.5140    1.4280 H   0  0  0  0  0  0  0  0  0  0  0  0
   -1.1880   -4.2209   -0.2021 H   0  0  0  0  0  0  0  0  0  0  0  0
    2.4616   -0.9422    0.5412 N   0  0  0  0  0  0  0  0  0  0  0  0
    3.7623   -0.3945    0.2349 C   0  0  2  0  0  0  0  0  0  0  0  0
    4.1115    0.6204    1.3154 C   0  0  0  0  0  0  0  0  0  0  0  0
    3.2649    1.1781    2.0106 O   0  0  0  0  0  0  0  0  0  0  0  0
    3.7810    0.2498   -1.1425 C   0  0  0  0  0  0  0  0  0  0  0  0
    2.4079   -1.8598    0.9735 H   0  0  0  0  0  0  0  0  0  0  0  0
    4.4729   -1.2274    0.2720 H   0  0  0  0  0  0  0  0  0  0  0  0
    3.0751    1.0865   -1.1988 H   0  0  0  0  0  0  0  0  0  0  0  0
    4.7753    0.6393   -1.3848 H   0  0  0  0  0  0  0  0  0  0  0  0
    3.5006   -0.4741   -1.9152 H   0  0  0  0  0  0  0  0  0  0  0  0
    5.4764    0.8622    1.3828 N   0  0  0  0  0  0  0  0  0  0  0  0
    6.0576    1.7953    2.3195 C   0  0  0  0  0  0  0  0  0  0  0  0
    6.1066    0.3405    0.7808 H   0  0  0  0  0  0  0  0  0  0  0  0
    6.1469    2.7839    1.8454 H   0  0  0  0  0  0  0  0  0  0  0  0
    5.4137    1.8718    3.2081 H   0  0  0  0  0  0  0  0  0  0  0  0
    7.0550    1.4410    2.6189 H   0  0  0  0  0  0  0  0  0  0  0  0
  1  3  1  0  0  0  0
  1  7  1  0  0  0  0
  1  2  2  0  0  0  0
 32 33  1  0  0  0  0
 33 41  1  0  0  0  0
 33 34  2  0  0  0  0
  8  9  1  0  0  0  0
  9 17  1  0  0  0  0
  9 10  2  0  0  0  0
 18 19  1  0  0  0  0
 19 31  1  0  0  0  0
 19 20  2  0  0  0  0
 32 35  1  0  0  0  0
  8 11  1  0  0  0  0
 21 23  1  0  0  0  0
 41 42  1  0  0  0  0
 31 32  1  0  0  0  0
  7  8  1  0  0  0  0
 18 21  1  0  0  0  0
 17 18  1  0  0  0  0
 21 22  1  0  0  0  0
  3  4  1  0  0  0  0
  3  5  1  0  0  0  0
  3  6  1  0  0  0  0
 35 38  1  0  0  0  0
 35 39  1  0  0  0  0
 35 40  1  0  0  0  0
 11 14  1  0  0  0  0
 11 15  1  0  0  0  0
 11 16  1  0  0  0  0
 23 28  1  0  0  0  0
 23 29  1  0  0  0  0
 23 30  1  0  0  0  0
 42 44  1  0  0  0  0
 42 45  1  0  0  0  0
 42 46  1  0  0  0  0
 32 37  1  0  0  0  0
  8 13  1  0  0  0  0
 18 25  1  0  0  0  0
 21 26  1  0  0  0  0
 41 43  1  0  0  0  0
  7 12  1  0  0  0  0
 31 36  1  0  0  0  0
 17 24  1  0  0  0  0
 22 27  1  0  0  0  0
M  END
$$$$

  -OEChem-05262214473D

 46 45  0     1  0  0  0  0  0999 V2000
   -4.6700    2.7214    1.5150 C   0  0  0  0  0  0  0  0  0  0  0  0
   -5.4532    2.5715    0.5845 O   0  0  0  0  0  0  0  0  0  0  0  0
   -5.0996    3.4865    2.7226 C   0  0  0  0  0  0  0  0  0  0  0  0
   -4.8796    4.5629    2.6387 H   0  0  0  0  0  0  0  0  0  0  0  0
   -6.1861    3.4241    2.8954 H   0  0  0  0  0  0  0  0  0  0  0  0
   -4.6369    3.1693    3.6708 H   0  0  0  0  0  0  0  0  0  0  0  0
   -3.3731    2.2391    1.5790 N   0  0  0  0  0  0  0  0  0  0  0  0
   -2.7599    1.4751    0.5247 C   0  0  2  0  0  0  0  0  0  0  0  0
   -1.5143    0.8067    1.0915 C   0  0  0  0  0  0  0  0  0  0  0  0
   -0.9247    1.2213    2.0872 O   0  0  0  0  0  0  0  0  0  0  0  0
   -2.4106    2.3553   -0.6653 C   0  0  0  0  0  0  0  0  0  0  0  0
   -2.8254    2.4352    2.4150 H   0  0  0  0  0  0  0  0  0  0  0  0
   -3.4836    0.7082    0.2278 H   0  0  0  0  0  0  0  0  0  0  0  0
   -1.6866    3.1298   -0.3871 H   0  0  0  0  0  0  0  0  0  0  0  0
   -1.9704    1.7677   -1.4777 H   0  0  0  0  0  0  0  0  0  0  0  0
   -3.3030    2.8584   -1.0531 H   0  0  0  0  0  0  0  0  0  0  0  0
   -1.1107   -0.2839    0.3303 N   0  0  0  0  0  0  0  0  0  0  0  0
    0.0490   -1.0750    0.6539 C   0  0  2  0  0  0  0  0  0  0  0  0
    1.2824   -0.2637    0.2678 C   0  0  0  0  0  0  0  0  0  0  0  0
    1.2374    0.9328   -0.0107 O   0  0  0  0  0  0  0  0  0  0  0  0
    0.0407   -2.4500   -0.0299 C   0  0  2  0  0  0  0  0  0  0  0  0
    0.0357   -2.3077   -1.4496 O   0  0  0  0  0  0  0  0  0  0  0  0
   -1.1766   -3.2800    0.3591 C   0  0  0  0  0  0  0  0  0  0  0  0
   -1.6733   -0.5660   -0.4691 H   0  0  0  0  0  0  0  0  0  0  0  0
    0.0455   -1.1994    1.7436 H   0  0  0  0  0  0  0  0  0  0  0  0
    0.9428   -3.0127    0.2371 H   0  0  0  0  0  0  0  0  0  0  0  0
    0.0810   -3.2041   -1.8156 H   0  0  0  0  0  0  0  0  0  0  0  0
   -2.1097   -2.7616    0.1130 H   0  0  0  0  0  0  0  0  0  0  0  0
   -1.1734   -3.5140    1.4280 H   0  0  0  0  0  0  0  0  0  0  0  0
   -1.1880   -4.2209   -0.2021 H   0  0  0  0  0  0  0  0  0  0  0  0
    2.4291   -1.0440    0.2231 N   0  0  0  0  0  0  0  0  0  0  0  0
    3.7182   -0.5104   -0.1493 C   0  0  2  0  0  0  0  0  0  0  0  0
    4.2857    0.2310    1.0539 C   0  0  0  0  0  0  0  0  0  0  0  0
    3.5847    0.6695    1.9635 O   0  0  0  0  0  0  0  0  0  0  0  0
    3.6084    0.4117   -1.3536 C   0  0  0  0  0  0  0  0  0  0  0  0
    2.3589   -2.0289    0.4617 H   0  0  0  0  0  0  0  0  0  0  0  0
    4.3585   -1.3670   -0.3866 H   0  0  0  0  0  0  0  0  0  0  0  0
    2.9706    1.2759   -1.1349 H   0  0  0  0  0  0  0  0  0  0  0  0
    4.5905    0.7929   -1.6523 H   0  0  0  0  0  0  0  0  0  0  0  0
    3.1724   -0.1151   -2.2093 H   0  0  0  0  0  0  0  0  0  0  0  0
    5.6628    0.3830    0.9713 N   0  0  0  0  0  0  0  0  0  0  0  0
    6.4342    1.0636    1.9850 C   0  0  0  0  0  0  0  0  0  0  0  0
    6.1651   -0.0293    0.1906 H   0  0  0  0  0  0  0  0  0  0  0  0
    6.5397    2.1248    1.7154 H   0  0  0  0  0  0  0  0  0  0  0  0
    5.9201    0.9809    2.9540 H   0  0  0  0  0  0  0  0  0  0  0  0
    7.4306    0.6032    2.0581 H   0  0  0  0  0  0  0  0  0  0  0  0
  1  3  1  0  0  0  0
  1  7  1  0  0  0  0
  1  2  2  0  0  0  0
 32 33  1  0  0  0  0
 33 41  1  0  0  0  0
 33 34  2  0  0  0  0
  8  9  1  0  0  0  0
  9 17  1  0  0  0  0
  9 10  2  0  0  0  0
 18 19  1  0  0  0  0
 19 31  1  0  0  0  0
 19 20  2  0  0  0  0
 32 35  1  0  0  0  0
  8 11  1  0  0  0  0
 21 23  1  0  0  0  0
 41 42  1  0  0  0  0
 31 32  1  0  0  0  0
  7  8  1  0  0  0  0
 18 21  1  0  0  0  0
 17 18  1  0  0  0  0
 21 22  1  0  0  0  0
  3  4  1  0  0  0  0
  3  5  1  0  0  0  0
  3  6  1  0  0  0  0
 35 38  1  0  0  0  0
 35 39  1  0  0  0  0
 35 40  1  0  0  0  0
 11 14  1  0  0  0  0
 11 15  1  0  0  0  0
 11 16  1  0  0  0  0
 23 28  1  0  0  0  0
 23 29  1  0  0  0  0
 23 30  1  0  0  0  0
 42 44  1  0  0  0  0
 42 45  1  0  0  0  0
 42 46  1  0  0  0  0
 32 37  1  0  0  0  0
  8 13  1  0  0  0  0
 18 25  1  0  0  0  0
 21 26  1  0  0  0  0
 41 43  1  0  0  0  0
  7 12  1  0  0  0  0
 31 36  1  0  0  0  0
 17 24  1  0  0  0  0
 22 27  1  0  0  0  0
M  END
$$$$

  -OEChem-05262214473D

 46 45  0     1  0  0  0  0  0999 V2000
   -4.6700    2.7214    1.5150 C   0  0  0  0  0  0  0  0  0  0  0  0
   -5.4532    2.5715    0.5845 O   0  0  0  0  0  0  0  0  0  0  0  0
   -5.0996    3.4865    2.7226 C   0  0  0  0  0  0  0  0  0  0  0  0
   -4.8796    4.5629    2.6387 H   0  0  0  0  0  0  0  0  0  0  0  0
   -6.1861    3.4241    2.8954 H   0  0  0  0  0  0  0  0  0  0  0  0
   -4.6369    3.1693    3.6708 H   0  0  0  0  0  0  0  0  0  0  0  0
   -3.3731    2.2391    1.5790 N   0  0  0  0  0  0  0  0  0  0  0  0
   -2.7599    1.4751    0.5247 C   0  0  2  0  0  0  0  0  0  0  0  0
   -1.5143    0.8067    1.0915 C   0  0  0  0  0  0  0  0  0  0  0  0
   -0.9247    1.2213    2.0872 O   0  0  0  0  0  0  0  0  0  0  0  0
   -2.4106    2.3553   -0.6653 C   0  0  0  0  0  0  0  0  0  0  0  0
   -2.8254    2.4352    2.4150 H   0  0  0  0  0  0  0  0  0  0  0  0
   -3.4836    0.7082    0.2278 H   0  0  0  0  0  0  0  0  0  0  0  0
   -1.6866    3.1298   -0.3871 H   0  0  0  0  0  0  0  0  0  0  0  0
   -1.9704    1.7677   -1.4777 H   0  0  0  0  0  0  0  0  0  0  0  0
   -3.3030    2.8584   -1.0531 H   0  0  0  0  0  0  0  0  0  0  0  0
   -1.1107   -0.2839    0.3303 N   0  0  0  0  0  0  0  0  0  0  0  0
    0.0490   -1.0750    0.6539 C   0  0  2  0  0  0  0  0  0  0  0  0
    1.2824   -0.2637    0.2678 C   0  0  0  0  0  0  0  0  0  0  0  0
    1.2975    0.9654    0.2495 O   0  0  0  0  0  0  0  0  0  0  0  0
    0.0407   -2.4500   -0.0299 C   0  0  2  0  0  0  0  0  0  0  0  0
    0.0357   -2.3077   -1.4496 O   0  0  0  0  0  0  0  0  0  0  0  0
   -1.1766   -3.2800    0.3591 C   0  0  0  0  0  0  0  0  0  0  0  0
   -1.6733   -0.5660   -0.4691 H   0  0  0  0  0  0  0  0  0  0  0  0
    0.0455   -1.1994    1.7436 H   0  0  0  0  0  0  0  0  0  0  0  0
    0.9428   -3.0127    0.2371 H   0  0  0  0  0  0  0  0  0  0  0  0
    0.0810   -3.2041   -1.8156 H   0  0  0  0  0  0  0  0  0  0  0  0
   -2.1097   -2.7616    0.1130 H   0  0  0  0  0  0  0  0  0  0  0  0
   -1.1734   -3.5140    1.4280 H   0  0  0  0  0  0  0  0  0  0  0  0
   -1.1880   -4.2209   -0.2021 H   0  0  0  0  0  0  0  0  0  0  0  0
    2.3472   -1.0737   -0.1009 N   0  0  0  0  0  0  0  0  0  0  0  0
    3.6152   -0.5390   -0.5386 C   0  0  2  0  0  0  0  0  0  0  0  0
    4.3926   -0.1019    0.6959 C   0  0  0  0  0  0  0  0  0  0  0  0
    3.8538    0.1671    1.7675 O   0  0  0  0  0  0  0  0  0  0  0  0
    3.4232    0.6236   -1.5000 C   0  0  0  0  0  0  0  0  0  0  0  0
    2.2300   -2.0820   -0.0613 H   0  0  0  0  0  0  0  0  0  0  0  0
    4.1483   -1.3565   -1.0362 H   0  0  0  0  0  0  0  0  0  0  0  0
    2.8908    1.4523   -1.0192 H   0  0  0  0  0  0  0  0  0  0  0  0
    4.3852    1.0094   -1.8531 H   0  0  0  0  0  0  0  0  0  0  0  0
    2.8384    0.3148   -2.3731 H   0  0  0  0  0  0  0  0  0  0  0  0
    5.7548   -0.0059    0.4479 N   0  0  0  0  0  0  0  0  0  0  0  0
    6.7041    0.4021    1.4570 C   0  0  0  0  0  0  0  0  0  0  0  0
    6.1161   -0.2667   -0.4649 H   0  0  0  0  0  0  0  0  0  0  0  0
    6.8581    1.4896    1.3979 H   0  0  0  0  0  0  0  0  0  0  0  0
    6.3160    0.1404    2.4525 H   0  0  0  0  0  0  0  0  0  0  0  0
    7.6613   -0.1134    1.2896 H   0  0  0  0  0  0  0  0  0  0  0  0
  1  3  1  0  0  0  0
  1  7  1  0  0  0  0
  1  2  2  0  0  0  0
 32 33  1  0  0  0  0
 33 41  1  0  0  0  0
 33 34  2  0  0  0  0
  8  9  1  0  0  0  0
  9 17  1  0  0  0  0
  9 10  2  0  0  0  0
 18 19  1  0  0  0  0
 19 31  1  0  0  0  0
 19 20  2  0  0  0  0
 32 35  1  0  0  0  0
  8 11  1  0  0  0  0
 21 23  1  0  0  0  0
 41 42  1  0  0  0  0
 31 32  1  0  0  0  0
  7  8  1  0  0  0  0
 18 21  1  0  0  0  0
 17 18  1  0  0  0  0
 21 22  1  0  0  0  0
  3  4  1  0  0  0  0
  3  5  1  0  0  0  0
  3  6  1  0  0  0  0
 35 38  1  0  0  0  0
 35 39  1  0  0  0  0
 35 40  1  0  0  0  0
 11 14  1  0  0  0  0
 11 15  1  0  0  0  0
 11 16  1  0  0  0  0
 23 28  1  0  0  0  0
 23 29  1  0  0  0  0
 23 30  1  0  0  0  0
 42 44  1  0  0  0  0
 42 45  1  0  0  0  0
 42 46  1  0  0  0  0
 32 37  1  0  0  0  0
  8 13  1  0  0  0  0
 18 25  1  0  0  0  0
 21 26  1  0  0  0  0
 41 43  1  0  0  0  0
  7 12  1  0  0  0  0
 31 36  1  0  0  0  0
 17 24  1  0  0  0  0
 22 27  1  0  0  0  0
M  END
$$$$

  -OEChem-05262214473D

 46 45  0     1  0  0  0  0  0999 V2000
   -4.6700    2.7214    1.5150 C   0  0  0  0  0  0  0  0  0  0  0  0
   -5.4532    2.5715    0.5845 O   0  0  0  0  0  0  0  0  0  0  0  0
   -5.0996    3.4865    2.7226 C   0  0  0  0  0  0  0  0  0  0  0  0
   -4.8796    4.5629    2.6387 H   0  0  0  0  0  0  0  0  0  0  0  0
   -6.1861    3.4241    2.8954 H   0  0  0  0  0  0  0  0  0  0  0  0
   -4.6369    3.1693    3.6708 H   0  0  0  0  0  0  0  0  0  0  0  0
   -3.3731    2.2391    1.5790 N   0  0  0  0  0  0  0  0  0  0  0  0
   -2.7599    1.4751    0.5247 C   0  0  2  0  0  0  0  0  0  0  0  0
   -1.5143    0.8067    1.0915 C   0  0  0  0  0  0  0  0  0  0  0  0
   -0.9247    1.2213    2.0872 O   0  0  0  0  0  0  0  0  0  0  0  0
   -2.4106    2.3553   -0.6653 C   0  0  0  0  0  0  0  0  0  0  0  0
   -2.8254    2.4352    2.4150 H   0  0  0  0  0  0  0  0  0  0  0  0
   -3.4836    0.7082    0.2278 H   0  0  0  0  0  0  0  0  0  0  0  0
   -1.6866    3.1298   -0.3871 H   0  0  0  0  0  0  0  0  0  0  0  0
   -1.9704    1.7677   -1.4777 H   0  0  0  0  0  0  0  0  0  0  0  0
   -3.3030    2.8584   -1.0531 H   0  0  0  0  0  0  0  0  0  0  0  0
   -1.1107   -0.2839    0.3303 N   0  0  0  0  0  0  0  0  0  0  0  0
    0.0490   -1.0750    0.6539 C   0  0  2  0  0  0  0  0  0  0  0  0
    1.2824   -0.2637    0.2678 C   0  0  0  0  0  0  0  0  0  0  0  0
    1.3934    0.9385    0.4994 O   0  0  0  0  0  0  0  0  0  0  0  0
    0.0407   -2.4500   -0.0299 C   0  0  2  0  0  0  0  0  0  0  0  0
    0.0357   -2.3077   -1.4496 O   0  0  0  0  0  0  0  0  0  0  0  0
   -1.1766   -3.2800    0.3591 C   0  0  0  0  0  0  0  0  0  0  0  0
   -1.6733   -0.5660   -0.4691 H   0  0  0  0  0  0  0  0  0  0  0  0
    0.0455   -1.1994    1.7436 H   0  0  0  0  0  0  0  0  0  0  0  0
    0.9428   -3.0127    0.2371 H   0  0  0  0  0  0  0  0  0  0  0  0
    0.0810   -3.2041   -1.8156 H   0  0  0  0  0  0  0  0  0  0  0  0
   -2.1097   -2.7616    0.1130 H   0  0  0  0  0  0  0  0  0  0  0  0
   -1.1734   -3.5140    1.4280 H   0  0  0  0  0  0  0  0  0  0  0  0
   -1.1880   -4.2209   -0.2021 H   0  0  0  0  0  0  0  0  0  0  0  0
    2.2215   -1.0292   -0.4088 N   0  0  0  0  0  0  0  0  0  0  0  0
    3.4602   -0.4785   -0.9065 C   0  0  2  0  0  0  0  0  0  0  0  0
    4.4248   -0.3555    0.2657 C   0  0  0  0  0  0  0  0  0  0  0  0
    4.0538   -0.2948    1.4361 O   0  0  0  0  0  0  0  0  0  0  0  0
    3.2381    0.8709   -1.5716 C   0  0  0  0  0  0  0  0  0  0  0  0
    2.0302   -2.0153   -0.5598 H   0  0  0  0  0  0  0  0  0  0  0  0
    3.8565   -1.1968   -1.6325 H   0  0  0  0  0  0  0  0  0  0  0  0
    2.8411    1.6037   -0.8596 H   0  0  0  0  0  0  0  0  0  0  0  0
    4.1735    1.2739   -1.9736 H   0  0  0  0  0  0  0  0  0  0  0  0
    2.5213    0.7861   -2.3955 H   0  0  0  0  0  0  0  0  0  0  0  0
    5.7461   -0.2781   -0.1517 N   0  0  0  0  0  0  0  0  0  0  0  0
    6.8487   -0.1441    0.7715 C   0  0  0  0  0  0  0  0  0  0  0  0
    5.9630   -0.3558   -1.1409 H   0  0  0  0  0  0  0  0  0  0  0  0
    7.0804    0.9217    0.9145 H   0  0  0  0  0  0  0  0  0  0  0  0
    6.5743   -0.5924    1.7378 H   0  0  0  0  0  0  0  0  0  0  0  0
    7.7314   -0.6598    0.3655 H   0  0  0  0  0  0  0  0  0  0  0  0
  1  3  1  0  0  0  0
  1  7  1  0  0  0  0
  1  2  2  0  0  0  0
 32 33  1  0  0  0  0
 33 41  1  0  0  0  0
 33 34  2  0  0  0  0
  8  9  1  0  0  0  0
  9 17  1  0  0  0  0
  9 10  2  0  0  0  0
 18 19  1  0  0  0  0
 19 31  1  0  0  0  0
 19 20  2  0  0  0  0
 32 35  1  0  0  0  0
  8 11  1  0  0  0  0
 21 23  1  0  0  0  0
 41 42  1  0  0  0  0
 31 32  1  0  0  0  0
  7  8  1  0  0  0  0
 18 21  1  0  0  0  0
 17 18  1  0  0  0  0
 21 22  1  0  0  0  0
  3  4  1  0  0  0  0
  3  5  1  0  0  0  0
  3  6  1  0  0  0  0
 35 38  1  0  0  0  0
 35 39  1  0  0  0  0
 35 40  1  0  0  0  0
 11 14  1  0  0  0  0
 11 15  1  0  0  0  0
 11 16  1  0  0  0  0
 23 28  1  0  0  0  0
 23 29  1  0  0  0  0
 23 30  1  0  0  0  0
 42 44  1  0  0  0  0
 42 45  1  0  0  0  0
 42 46  1  0  0  0  0
 32 37  1  0  0  0  0
  8 13  1  0  0  0  0
 18 25  1  0  0  0  0
 21 26  1  0  0  0  0
 41 43  1  0  0  0  0
  7 12  1  0  0  0  0
 31 36  1  0  0  0  0
 17 24  1  0  0  0  0
 22 27  1  0  0  0  0
M  END
$$$$

  -OEChem-05262214473D

 46 45  0     1  0  0  0  0  0999 V2000
   -4.6700    2.7214    1.5150 C   0  0  0  0  0  0  0  0  0  0  0  0
   -5.4532    2.5715    0.5845 O   0  0  0  0  0  0  0  0  0  0  0  0
   -5.0996    3.4865    2.7226 C   0  0  0  0  0  0  0  0  0  0  0  0
   -4.8796    4.5629    2.6387 H   0  0  0  0  0  0  0  0  0  0  0  0
   -6.1861    3.4241    2.8954 H   0  0  0  0  0  0  0  0  0  0  0  0
   -4.6369    3.1693    3.6708 H   0  0  0  0  0  0  0  0  0  0  0  0
   -3.3731    2.2391    1.5790 N   0  0  0  0  0  0  0  0  0  0  0  0
   -2.7599    1.4751    0.5247 C   0  0  2  0  0  0  0  0  0  0  0  0
   -1.5143    0.8067    1.0915 C   0  0  0  0  0  0  0  0  0  0  0  0
   -0.9247    1.2213    2.0872 O   0  0  0  0  0  0  0  0  0  0  0  0
   -2.4106    2.3553   -0.6653 C   0  0  0  0  0  0  0  0  0  0  0  0
   -2.8254    2.4352    2.4150 H   0  0  0  0  0  0  0  0  0  0  0  0
   -3.4836    0.7082    0.2278 H   0  0  0  0  0  0  0  0  0  0  0  0
   -1.6866    3.1298   -0.3871 H   0  0  0  0  0  0  0  0  0  0  0  0
   -1.9704    1.7677   -1.4777 H   0  0  0  0  0  0  0  0  0  0  0  0
   -3.3030    2.8584   -1.0531 H   0  0  0  0  0  0  0  0  0  0  0  0
   -1.1107   -0.2839    0.3303 N   0  0  0  0  0  0  0  0  0  0  0  0
    0.0490   -1.0750    0.6539 C   0  0  2  0  0  0  0  0  0  0  0  0
    1.2824   -0.2637    0.2678 C   0  0  0  0  0  0  0  0  0  0  0  0
    1.5187    0.8539    0.7219 O   0  0  0  0  0  0  0  0  0  0  0  0
    0.0407   -2.4500   -0.0299 C   0  0  2  0  0  0  0  0  0  0  0  0
    0.0357   -2.3077   -1.4496 O   0  0  0  0  0  0  0  0  0  0  0  0
   -1.1766   -3.2800    0.3591 C   0  0  0  0  0  0  0  0  0  0  0  0
   -1.6733   -0.5660   -0.4691 H   0  0  0  0  0  0  0  0  0  0  0  0
    0.0455   -1.1994    1.7436 H   0  0  0  0  0  0  0  0  0  0  0  0
    0.9428   -3.0127    0.2371 H   0  0  0  0  0  0  0  0  0  0  0  0
    0.0810   -3.2041   -1.8156 H   0  0  0  0  0  0  0  0  0  0  0  0
   -2.1097   -2.7616    0.1130 H   0  0  0  0  0  0  0  0  0  0  0  0
   -1.1734   -3.5140    1.4280 H   0  0  0  0  0  0  0  0  0  0  0  0
   -1.1880   -4.2209   -0.2021 H   0  0  0  0  0  0  0  0  0  0  0  0
    2.0607   -0.9136   -0.6796 N   0  0  0  0  0  0  0  0  0  0  0  0
    3.2639   -0.3330   -1.2278 C   0  0  2  0  0  0  0  0  0  0  0  0
    4.3800   -0.5126   -0.2073 C   0  0  0  0  0  0  0  0  0  0  0  0
    4.1712   -0.6847    0.9918 O   0  0  0  0  0  0  0  0  0  0  0  0
    3.0656    1.1370   -1.5635 C   0  0  0  0  0  0  0  0  0  0  0  0
    1.7729   -1.8336   -1.0000 H   0  0  0  0  0  0  0  0  0  0  0  0
    3.5031   -0.8986   -2.1350 H   0  0  0  0  0  0  0  0  0  0  0  0
    2.8251    1.7198   -0.6669 H   0  0  0  0  0  0  0  0  0  0  0  0
    3.9698    1.5685   -2.0055 H   0  0  0  0  0  0  0  0  0  0  0  0
    2.2429    1.2668   -2.2749 H   0  0  0  0  0  0  0  0  0  0  0  0
    5.6374   -0.4151   -0.7866 N   0  0  0  0  0  0  0  0  0  0  0  0
    6.8584   -0.5377   -0.0248 C   0  0  0  0  0  0  0  0  0  0  0  0
    5.7163   -0.2904   -1.7916 H   0  0  0  0  0  0  0  0  0  0  0  0
    7.1914    0.4596    0.2982 H   0  0  0  0  0  0  0  0  0  0  0  0
    6.6775   -1.1677    0.8586 H   0  0  0  0  0  0  0  0  0  0  0  0
    7.6363   -0.9990   -0.6510 H   0  0  0  0  0  0  0  0  0  0  0  0
  1  3  1  0  0  0  0
  1  7  1  0  0  0  0
  1  2  2  0  0  0  0
 32 33  1  0  0  0  0
 33 41  1  0  0  0  0
 33 34  2  0  0  0  0
  8  9  1  0  0  0  0
  9 17  1  0  0  0  0
  9 10  2  0  0  0  0
 18 19  1  0  0  0  0
 19 31  1  0  0  0  0
 19 20  2  0  0  0  0
 32 35  1  0  0  0  0
  8 11  1  0  0  0  0
 21 23  1  0  0  0  0
 41 42  1  0  0  0  0
 31 32  1  0  0  0  0
  7  8  1  0  0  0  0
 18 21  1  0  0  0  0
 17 18  1  0  0  0  0
 21 22  1  0  0  0  0
  3  4  1  0  0  0  0
  3  5  1  0  0  0  0
  3  6  1  0  0  0  0
 35 38  1  0  0  0  0
 35 39  1  0  0  0  0
 35 40  1  0  0  0  0
 11 14  1  0  0  0  0
 11 15  1  0  0  0  0
 11 16  1  0  0  0  0
 23 28  1  0  0  0  0
 23 29  1  0  0  0  0
 23 30  1  0  0  0  0
 42 44  1  0  0  0  0
 42 45  1  0  0  0  0
 42 46  1  0  0  0  0
 32 37  1  0  0  0  0
  8 13  1  0  0  0  0
 18 25  1  0  0  0  0
 21 26  1  0  0  0  0
 41 43  1  0  0  0  0
  7 12  1  0  0  0  0
 31 36  1  0  0  0  0
 17 24  1  0  0  0  0
 22 27  1  0  0  0  0
M  END
$$$$

  -OEChem-05262214473D

 46 45  0     1  0  0  0  0  0999 V2000
   -4.6700    2.7214    1.5150 C   0  0  0  0  0  0  0  0  0  0  0  0
   -5.4532    2.5715    0.5845 O   0  0  0  0  0  0  0  0  0  0  0  0
   -5.0996    3.4865    2.7226 C   0  0  0  0  0  0  0  0  0  0  0  0
   -4.8796    4.5629    2.6387 H   0  0  0  0  0  0  0  0  0  0  0  0
   -6.1861    3.4241    2.8954 H   0  0  0  0  0  0  0  0  0  0  0  0
   -4.6369    3.1693    3.6708 H   0  0  0  0  0  0  0  0  0  0  0  0
   -3.3731    2.2391    1.5790 N   0  0  0  0  0  0  0  0  0  0  0  0
   -2.7599    1.4751    0.5247 C   0  0  2  0  0  0  0  0  0  0  0  0
   -1.5143    0.8067    1.0915 C   0  0  0  0  0  0  0  0  0  0  0  0
   -0.9247    1.2213    2.0872 O   0  0  0  0  0  0  0  0  0  0  0  0
   -2.4106    2.3553   -0.6653 C   0  0  0  0  0  0  0  0  0  0  0  0
   -2.8254    2.4352    2.4150 H   0  0  0  0  0  0  0  0  0  0  0  0
   -3.4836    0.7082    0.2278 H   0  0  0  0  0  0  0  0  0  0  0  0
   -1.6866    3.1298   -0.3871 H   0  0  0  0  0  0  0  0  0  0  0  0
   -1.9704    1.7677   -1.4777 H   0  0  0  0  0  0  0  0  0  0  0  0
   -3.3030    2.8584   -1.0531 H   0  0  0  0  0  0  0  0  0  0  0  0
   -1.1107   -0.2839    0.3303 N   0  0  0  0  0  0  0  0  0  0  0  0
    0.0490   -1.0750    0.6539 C   0  0  2  0  0  0  0  0  0  0  0  0
    1.2824   -0.2637    0.2678 C   0  0  0  0  0  0  0  0  0  0  0  0
    1.6648    0.7175    0.9020 O   0  0  0  0  0  0  0  0  0  0  0  0
    0.0407   -2.4500   -0.0299 C   0  0  2  0  0  0  0  0  0  0  0  0
    0.0357   -2.3077   -1.4496 O   0  0  0  0  0  0  0  0  0  0  0  0
   -1.1766   -3.2800    0.3591 C   0  0  0  0  0  0  0  0  0  0  0  0
   -1.6733   -0.5660   -0.4691 H   0  0  0  0  0  0  0  0  0  0  0  0
    0.0455   -1.1994    1.7436 H   0  0  0  0  0  0  0  0  0  0  0  0
    0.9428   -3.0127    0.2371 H   0  0  0  0  0  0  0  0  0  0  0  0
    0.0810   -3.2041   -1.8156 H   0  0  0  0  0  0  0  0  0  0  0  0
   -2.1097   -2.7616    0.1130 H   0  0  0  0  0  0  0  0  0  0  0  0
   -1.1734   -3.5140    1.4280 H   0  0  0  0  0  0  0  0  0  0  0  0
   -1.1880   -4.2209   -0.2021 H   0  0  0  0  0  0  0  0  0  0  0  0
    1.8757   -0.7348   -0.8949 N   0  0  0  0  0  0  0  0  0  0  0  0
    3.0395   -0.1123   -1.4808 C   0  0  2  0  0  0  0  0  0  0  0  0
    4.2614   -0.5625   -0.6909 C   0  0  0  0  0  0  0  0  0  0  0  0
    4.1979   -0.9760    0.4649 O   0  0  0  0  0  0  0  0  0  0  0  0
    2.9176    1.4036   -1.4763 C   0  0  0  0  0  0  0  0  0  0  0  0
    1.4756   -1.5492   -1.3517 H   0  0  0  0  0  0  0  0  0  0  0  0
    3.1121   -0.4823   -2.5093 H   0  0  0  0  0  0  0  0  0  0  0  0
    2.8437    1.7927   -0.4542 H   0  0  0  0  0  0  0  0  0  0  0  0
    3.7879    1.8730   -1.9466 H   0  0  0  0  0  0  0  0  0  0  0  0
    2.0220    1.7241   -2.0195 H   0  0  0  0  0  0  0  0  0  0  0  0
    5.4361   -0.4074   -1.4135 N   0  0  0  0  0  0  0  0  0  0  0  0
    6.7323   -0.7520   -0.8777 C   0  0  0  0  0  0  0  0  0  0  0  0
    5.3928   -0.0750   -2.3724 H   0  0  0  0  0  0  0  0  0  0  0  0
    7.1835    0.1350   -0.4090 H   0  0  0  0  0  0  0  0  0  0  0  0
    6.6185   -1.5463   -0.1252 H   0  0  0  0  0  0  0  0  0  0  0  0
    7.3823   -1.1076   -1.6907 H   0  0  0  0  0  0  0  0  0  0  0  0
  1  3  1  0  0  0  0
  1  7  1  0  0  0  0
  1  2  2  0  0  0  0
 32 33  1  0  0  0  0
 33 41  1  0  0  0  0
 33 34  2  0  0  0  0
  8  9  1  0  0  0  0
  9 17  1  0  0  0  0
  9 10  2  0  0  0  0
 18 19  1  0  0  0  0
 19 31  1  0  0  0  0
 19 20  2  0  0  0  0
 32 35  1  0  0  0  0
  8 11  1  0  0  0  0
 21 23  1  0  0  0  0
 41 42  1  0  0  0  0
 31 32  1  0  0  0  0
  7  8  1  0  0  0  0
 18 21  1  0  0  0  0
 17 18  1  0  0  0  0
 21 22  1  0  0  0  0
  3  4  1  0  0  0  0
  3  5  1  0  0  0  0
  3  6  1  0  0  0  0
 35 38  1  0  0  0  0
 35 39  1  0  0  0  0
 35 40  1  0  0  0  0
 11 14  1  0  0  0  0
 11 15  1  0  0  0  0
 11 16  1  0  0  0  0
 23 28  1  0  0  0  0
 23 29  1  0  0  0  0
 23 30  1  0  0  0  0
 42 44  1  0  0  0  0
 42 45  1  0  0  0  0
 42 46  1  0  0  0  0
 32 37  1  0  0  0  0
  8 13  1  0  0  0  0
 18 25  1  0  0  0  0
 21 26  1  0  0  0  0
 41 43  1  0  0  0  0
  7 12  1  0  0  0  0
 31 36  1  0  0  0  0
 17 24  1  0  0  0  0
 22 27  1  0  0  0  0
M  END
$$$$

  -OEChem-05262214473D

 46 45  0     1  0  0  0  0  0999 V2000
   -4.6700    2.7214    1.5150 C   0  0  0  0  0  0  0  0  0  0  0  0
   -5.4532    2.5715    0.5845 O   0  0  0  0  0  0  0  0  0  0  0  0
   -5.0996    3.4865    2.7226 C   0  0  0  0  0  0  0  0  0  0  0  0
   -4.8796    4.5629    2.6387 H   0  0  0  0  0  0  0  0  0  0  0  0
   -6.1861    3.4241    2.8954 H   0  0  0  0  0  0  0  0  0  0  0  0
   -4.6369    3.1693    3.6708 H   0  0  0  0  0  0  0  0  0  0  0  0
   -3.3731    2.2391    1.5790 N   0  0  0  0  0  0  0  0  0  0  0  0
   -2.7599    1.4751    0.5247 C   0  0  2  0  0  0  0  0  0  0  0  0
   -1.5143    0.8067    1.0915 C   0  0  0  0  0  0  0  0  0  0  0  0
   -0.9247    1.2213    2.0872 O   0  0  0  0  0  0  0  0  0  0  0  0
   -2.4106    2.3553   -0.6653 C   0  0  0  0  0  0  0  0  0  0  0  0
   -2.8254    2.4352    2.4150 H   0  0  0  0  0  0  0  0  0  0  0  0
   -3.4836    0.7082    0.2278 H   0  0  0  0  0  0  0  0  0  0  0  0
   -1.6866    3.1298   -0.3871 H   0  0  0  0  0  0  0  0  0  0  0  0
   -1.9704    1.7677   -1.4777 H   0  0  0  0  0  0  0  0  0  0  0  0
   -3.3030    2.8584   -1.0531 H   0  0  0  0  0  0  0  0  0  0  0  0
   -1.1107   -0.2839    0.3303 N   0  0  0  0  0  0  0  0  0  0  0  0
    0.0490   -1.0750    0.6539 C   0  0  2  0  0  0  0  0  0  0  0  0
    1.2824   -0.2637    0.2678 C   0  0  0  0  0  0  0  0  0  0  0  0
    1.8217    0.5385    1.0273 O   0  0  0  0  0  0  0  0  0  0  0  0
    0.0407   -2.4500   -0.0299 C   0  0  2  0  0  0  0  0  0  0  0  0
    0.0357   -2.3077   -1.4496 O   0  0  0  0  0  0  0  0  0  0  0  0
   -1.1766   -3.2800    0.3591 C   0  0  0  0  0  0  0  0  0  0  0  0
   -1.6733   -0.5660   -0.4691 H   0  0  0  0  0  0  0  0  0  0  0  0
    0.0455   -1.1994    1.7436 H   0  0  0  0  0  0  0  0  0  0  0  0
    0.9428   -3.0127    0.2371 H   0  0  0  0  0  0  0  0  0  0  0  0
    0.0810   -3.2041   -1.8156 H   0  0  0  0  0  0  0  0  0  0  0  0
   -2.1097   -2.7616    0.1130 H   0  0  0  0  0  0  0  0  0  0  0  0
   -1.1734   -3.5140    1.4280 H   0  0  0  0  0  0  0  0  0  0  0  0
   -1.1880   -4.2209   -0.2021 H   0  0  0  0  0  0  0  0  0  0  0  0
    1.6790   -0.5049   -1.0400 N   0  0  0  0  0  0  0  0  0  0  0  0
    2.8025    0.1685   -1.6481 C   0  0  2  0  0  0  0  0  0  0  0  0
    4.0770   -0.5017   -1.1522 C   0  0  0  0  0  0  0  0  0  0  0  0
    4.1322   -1.1490   -0.1086 O   0  0  0  0  0  0  0  0  0  0  0  0
    2.8040    1.6525   -1.3159 C   0  0  0  0  0  0  0  0  0  0  0  0
    1.1588   -1.1814   -1.5910 H   0  0  0  0  0  0  0  0  0  0  0  0
    2.7102    0.0237   -2.7300 H   0  0  0  0  0  0  0  0  0  0  0  0
    2.8957    1.8174   -0.2361 H   0  0  0  0  0  0  0  0  0  0  0  0
    3.6402    2.1668   -1.8010 H   0  0  0  0  0  0  0  0  0  0  0  0
    1.8738    2.1269   -1.6467 H   0  0  0  0  0  0  0  0  0  0  0  0
    5.1559   -0.2557   -1.9898 N   0  0  0  0  0  0  0  0  0  0  0  0
    6.4792   -0.7723   -1.7290 C   0  0  0  0  0  0  0  0  0  0  0  0
    5.0145    0.2758   -2.8438 H   0  0  0  0  0  0  0  0  0  0  0  0
    7.0573   -0.0301   -1.1590 H   0  0  0  0  0  0  0  0  0  0  0  0
    6.4013   -1.7022   -1.1466 H   0  0  0  0  0  0  0  0  0  0  0  0
    6.9868   -0.9785   -2.6828 H   0  0  0  0  0  0  0  0  0  0  0  0
  1  3  1  0  0  0  0
  1  7  1  0  0  0  0
  1  2  2  0  0  0  0
 32 33  1  0  0  0  0
 33 41  1  0  0  0  0
 33 34  2  0  0  0  0
  8  9  1  0  0  0  0
  9 17  1  0  0  0  0
  9 10  2  0  0  0  0
 18 19  1  0  0  0  0
 19 31  1  0  0  0  0
 19 20  2  0  0  0  0
 32 35  1  0  0  0  0
  8 11  1  0  0  0  0
 21 23  1  0  0  0  0
 41 42  1  0  0  0  0
 31 32  1  0  0  0  0
  7  8  1  0  0  0  0
 18 21  1  0  0  0  0
 17 18  1  0  0  0  0
 21 22  1  0  0  0  0
  3  4  1  0  0  0  0
  3  5  1  0  0  0  0
  3  6  1  0  0  0  0
 35 38  1  0  0  0  0
 35 39  1  0  0  0  0
 35 40  1  0  0  0  0
 11 14  1  0  0  0  0
 11 15  1  0  0  0  0
 11 16  1  0  0  0  0
 23 28  1  0  0  0  0
 23 29  1  0  0  0  0
 23 30  1  0  0  0  0
 42 44  1  0  0  0  0
 42 45  1  0  0  0  0
 42 46  1  0  0  0  0
 32 37  1  0  0  0  0
  8 13  1  0  0  0  0
 18 25  1  0  0  0  0
 21 26  1  0  0  0  0
 41 43  1  0  0  0  0
  7 12  1  0  0  0  0
 31 36  1  0  0  0  0
 17 24  1  0  0  0  0
 22 27  1  0  0  0  0
M  END
$$$$

  -OEChem-05262214473D

 46 45  0     1  0  0  0  0  0999 V2000
   -4.6700    2.7214    1.5150 C   0  0  0  0  0  0  0  0  0  0  0  0
   -5.4532    2.5715    0.5845 O   0  0  0  0  0  0  0  0  0  0  0  0
   -5.0996    3.4865    2.7226 C   0  0  0  0  0  0  0  0  0  0  0  0
   -4.8796    4.5629    2.6387 H   0  0  0  0  0  0  0  0  0  0  0  0
   -6.1861    3.4241    2.8954 H   0  0  0  0  0  0  0  0  0  0  0  0
   -4.6369    3.1693    3.6708 H   0  0  0  0  0  0  0  0  0  0  0  0
   -3.3731    2.2391    1.5790 N   0  0  0  0  0  0  0  0  0  0  0  0
   -2.7599    1.4751    0.5247 C   0  0  2  0  0  0  0  0  0  0  0  0
   -1.5143    0.8067    1.0915 C   0  0  0  0  0  0  0  0  0  0  0  0
   -0.9247    1.2213    2.0872 O   0  0  0  0  0  0  0  0  0  0  0  0
   -2.4106    2.3553   -0.6653 C   0  0  0  0  0  0  0  0  0  0  0  0
   -2.8254    2.4352    2.4150 H   0  0  0  0  0  0  0  0  0  0  0  0
   -3.4836    0.7082    0.2278 H   0  0  0  0  0  0  0  0  0  0  0  0
   -1.6866    3.1298   -0.3871 H   0  0  0  0  0  0  0  0  0  0  0  0
   -1.9704    1.7677   -1.4777 H   0  0  0  0  0  0  0  0  0  0  0  0
   -3.3030    2.8584   -1.0531 H   0  0  0  0  0  0  0  0  0  0  0  0
   -1.1107   -0.2839    0.3303 N   0  0  0  0  0  0  0  0  0  0  0  0
    0.0490   -1.0750    0.6539 C   0  0  2  0  0  0  0  0  0  0  0  0
    1.2824   -0.2637    0.2678 C   0  0  0  0  0  0  0  0  0  0  0  0
    1.9789    0.3291    1.0892 O   0  0  0  0  0  0  0  0  0  0  0  0
    0.0407   -2.4500   -0.0299 C   0  0  2  0  0  0  0  0  0  0  0  0
    0.0357   -2.3077   -1.4496 O   0  0  0  0  0  0  0  0  0  0  0  0
   -1.1766   -3.2800    0.3591 C   0  0  0  0  0  0  0  0  0  0  0  0
   -1.6733   -0.5660   -0.4691 H   0  0  0  0  0  0  0  0  0  0  0  0
    0.0455   -1.1994    1.7436 H   0  0  0  0  0  0  0  0  0  0  0  0
    0.9428   -3.0127    0.2371 H   0  0  0  0  0  0  0  0  0  0  0  0
    0.0810   -3.2041   -1.8156 H   0  0  0  0  0  0  0  0  0  0  0  0
   -2.1097   -2.7616    0.1130 H   0  0  0  0  0  0  0  0  0  0  0  0
   -1.1734   -3.5140    1.4280 H   0  0  0  0  0  0  0  0  0  0  0  0
   -1.1880   -4.2209   -0.2021 H   0  0  0  0  0  0  0  0  0  0  0  0
    1.4842   -0.2396   -1.1049 N   0  0  0  0  0  0  0  0  0  0  0  0
    2.5689    0.4902   -1.7183 C   0  0  2  0  0  0  0  0  0  0  0  0
    3.8395   -0.3344   -1.5596 C   0  0  0  0  0  0  0  0  0  0  0  0
    3.9784   -1.1918   -0.6898 O   0  0  0  0  0  0  0  0  0  0  0  0
    2.7327    1.8669   -1.0933 C   0  0  0  0  0  0  0  0  0  0  0  0
    0.8439   -0.7553   -1.7016 H   0  0  0  0  0  0  0  0  0  0  0  0
    2.3247    0.5849   -2.7820 H   0  0  0  0  0  0  0  0  0  0  0  0
    2.9776    1.7923   -0.0275 H   0  0  0  0  0  0  0  0  0  0  0  0
    3.5369    2.4298   -1.5786 H   0  0  0  0  0  0  0  0  0  0  0  0
    1.8083    2.4477   -1.1820 H   0  0  0  0  0  0  0  0  0  0  0  0
    4.8159    0.0298   -2.4762 N   0  0  0  0  0  0  0  0  0  0  0  0
    6.1162   -0.5972   -2.5207 C   0  0  0  0  0  0  0  0  0  0  0  0
    4.6071    0.7381   -3.1737 H   0  0  0  0  0  0  0  0  0  0  0  0
    6.8215   -0.0244   -1.9006 H   0  0  0  0  0  0  0  0  0  0  0  0
    6.0408   -1.6250   -2.1358 H   0  0  0  0  0  0  0  0  0  0  0  0
    6.4766   -0.6203   -3.5597 H   0  0  0  0  0  0  0  0  0  0  0  0
  1  3  1  0  0  0  0
  1  7  1  0  0  0  0
  1  2  2  0  0  0  0
 32 33  1  0  0  0  0
 33 41  1  0  0  0  0
 33 34  2  0  0  0  0
  8  9  1  0  0  0  0
  9 17  1  0  0  0  0
  9 10  2  0  0  0  0
 18 19  1  0  0  0  0
 19 31  1  0  0  0  0
 19 20  2  0  0  0  0
 32 35  1  0  0  0  0
  8 11  1  0  0  0  0
 21 23  1  0  0  0  0
 41 42  1  0  0  0  0
 31 32  1  0  0  0  0
  7  8  1  0  0  0  0
 18 21  1  0  0  0  0
 17 18  1  0  0  0  0
 21 22  1  0  0  0  0
  3  4  1  0  0  0  0
  3  5  1  0  0  0  0
  3  6  1  0  0  0  0
 35 38  1  0  0  0  0
 35 39  1  0  0  0  0
 35 40  1  0  0  0  0
 11 14  1  0  0  0  0
 11 15  1  0  0  0  0
 11 16  1  0  0  0  0
 23 28  1  0  0  0  0
 23 29  1  0  0  0  0
 23 30  1  0  0  0  0
 42 44  1  0  0  0  0
 42 45  1  0  0  0  0
 42 46  1  0  0  0  0
 32 37  1  0  0  0  0
  8 13  1  0  0  0  0
 18 25  1  0  0  0  0
 21 26  1  0  0  0  0
 41 43  1  0  0  0  0
  7 12  1  0  0  0  0
 31 36  1  0  0  0  0
 17 24  1  0  0  0  0
 22 27  1  0  0  0  0
M  END
$$$$

  -OEChem-05262214473D

 46 45  0     1  0  0  0  0  0999 V2000
   -4.6700    2.7214    1.5150 C   0  0  0  0  0  0  0  0  0  0  0  0
   -5.4532    2.5715    0.5845 O   0  0  0  0  0  0  0  0  0  0  0  0
   -5.0996    3.4865    2.7226 C   0  0  0  0  0  0  0  0  0  0  0  0
   -4.8796    4.5629    2.6387 H   0  0  0  0  0  0  0  0  0  0  0  0
   -6.1861    3.4241    2.8954 H   0  0  0  0  0  0  0  0  0  0  0  0
   -4.6369    3.1693    3.6708 H   0  0  0  0  0  0  0  0  0  0  0  0
   -3.3731    2.2391    1.5790 N   0  0  0  0  0  0  0  0  0  0  0  0
   -2.7599    1.4751    0.5247 C   0  0  2  0  0  0  0  0  0  0  0  0
   -1.5143    0.8067    1.0915 C   0  0  0  0  0  0  0  0  0  0  0  0
   -0.9247    1.2213    2.0872 O   0  0  0  0  0  0  0  0  0  0  0  0
   -2.4106    2.3553   -0.6653 C   0  0  0  0  0  0  0  0  0  0  0  0
   -2.8254    2.4352    2.4150 H   0  0  0  0  0  0  0  0  0  0  0  0
   -3.4836    0.7082    0.2278 H   0  0  0  0  0  0  0  0  0  0  0  0
   -1.6866    3.1298   -0.3871 H   0  0  0  0  0  0  0  0  0  0  0  0
   -1.9704    1.7677   -1.4777 H   0  0  0  0  0  0  0  0  0  0  0  0
   -3.3030    2.8584   -1.0531 H   0  0  0  0  0  0  0  0  0  0  0  0
   -1.1107   -0.2839    0.3303 N   0  0  0  0  0  0  0  0  0  0  0  0
    0.0490   -1.0750    0.6539 C   0  0  2  0  0  0  0  0  0  0  0  0
    1.2824   -0.2637    0.2678 C   0  0  0  0  0  0  0  0  0  0  0  0
    2.1254    0.1036    1.0836 O   0  0  0  0  0  0  0  0  0  0  0  0
    0.0407   -2.4500   -0.0299 C   0  0  2  0  0  0  0  0  0  0  0  0
    0.0357   -2.3077   -1.4496 O   0  0  0  0  0  0  0  0  0  0  0  0
   -1.1766   -3.2800    0.3591 C   0  0  0  0  0  0  0  0  0  0  0  0
   -1.6733   -0.5660   -0.4691 H   0  0  0  0  0  0  0  0  0  0  0  0
    0.0455   -1.1994    1.7436 H   0  0  0  0  0  0  0  0  0  0  0  0
    0.9428   -3.0127    0.2371 H   0  0  0  0  0  0  0  0  0  0  0  0
    0.0810   -3.2041   -1.8156 H   0  0  0  0  0  0  0  0  0  0  0  0
   -2.1097   -2.7616    0.1130 H   0  0  0  0  0  0  0  0  0  0  0  0
   -1.1734   -3.5140    1.4280 H   0  0  0  0  0  0  0  0  0  0  0  0
   -1.1880   -4.2209   -0.2021 H   0  0  0  0  0  0  0  0  0  0  0  0
    1.3044    0.0430   -1.0854 N   0  0  0  0  0  0  0  0  0  0  0  0
    2.3546    0.8309   -1.6867 C   0  0  2  0  0  0  0  0  0  0  0  0
    3.5649   -0.0720   -1.8854 C   0  0  0  0  0  0  0  0  0  0  0  0
    3.7471   -1.1015   -1.2389 O   0  0  0  0  0  0  0  0  0  0  0  0
    2.7085    2.0320   -0.8236 C   0  0  0  0  0  0  0  0  0  0  0  0
    0.5524   -0.3000   -1.6760 H   0  0  0  0  0  0  0  0  0  0  0  0
    1.9820    1.1631   -2.6618 H   0  0  0  0  0  0  0  0  0  0  0  0
    3.0838    1.7189    0.1575 H   0  0  0  0  0  0  0  0  0  0  0  0
    3.4849    2.6440   -1.2945 H   0  0  0  0  0  0  0  0  0  0  0  0
    1.8299    2.6646   -0.6570 H   0  0  0  0  0  0  0  0  0  0  0  0
    4.4392    0.4296   -2.8394 N   0  0  0  0  0  0  0  0  0  0  0  0
    5.6681   -0.2388   -3.1988 C   0  0  0  0  0  0  0  0  0  0  0  0
    4.1985    1.2803   -3.3396 H   0  0  0  0  0  0  0  0  0  0  0  0
    6.4919    0.1516   -2.5833 H   0  0  0  0  0  0  0  0  0  0  0  0
    5.5616   -1.3198   -3.0257 H   0  0  0  0  0  0  0  0  0  0  0  0
    5.8867   -0.0574   -4.2615 H   0  0  0  0  0  0  0  0  0  0  0  0
  1  3  1  0  0  0  0
  1  7  1  0  0  0  0
  1  2  2  0  0  0  0
 32 33  1  0  0  0  0
 33 41  1  0  0  0  0
 33 34  2  0  0  0  0
  8  9  1  0  0  0  0
  9 17  1  0  0  0  0
  9 10  2  0  0  0  0
 18 19  1  0  0  0  0
 19 31  1  0  0  0  0
 19 20  2  0  0  0  0
 32 35  1  0  0  0  0
  8 11  1  0  0  0  0
 21 23  1  0  0  0  0
 41 42  1  0  0  0  0
 31 32  1  0  0  0  0
  7  8  1  0  0  0  0
 18 21  1  0  0  0  0
 17 18  1  0  0  0  0
 21 22  1  0  0  0  0
  3  4  1  0  0  0  0
  3  5  1  0  0  0  0
  3  6  1  0  0  0  0
 35 38  1  0  0  0  0
 35 39  1  0  0  0  0
 35 40  1  0  0  0  0
 11 14  1  0  0  0  0
 11 15  1  0  0  0  0
 11 16  1  0  0  0  0
 23 28  1  0  0  0  0
 23 29  1  0  0  0  0
 23 30  1  0  0  0  0
 42 44  1  0  0  0  0
 42 45  1  0  0  0  0
 42 46  1  0  0  0  0
 32 37  1  0  0  0  0
  8 13  1  0  0  0  0
 18 25  1  0  0  0  0
 21 26  1  0  0  0  0
 41 43  1  0  0  0  0
  7 12  1  0  0  0  0
 31 36  1  0  0  0  0
 17 24  1  0  0  0  0
 22 27  1  0  0  0  0
M  END
$$$$

  -OEChem-05262214473D

 46 45  0     1  0  0  0  0  0999 V2000
   -4.6700    2.7214    1.5150 C   0  0  0  0  0  0  0  0  0  0  0  0
   -5.4532    2.5715    0.5845 O   0  0  0  0  0  0  0  0  0  0  0  0
   -5.0996    3.4865    2.7226 C   0  0  0  0  0  0  0  0  0  0  0  0
   -4.8796    4.5629    2.6387 H   0  0  0  0  0  0  0  0  0  0  0  0
   -6.1861    3.4241    2.8954 H   0  0  0  0  0  0  0  0  0  0  0  0
   -4.6369    3.1693    3.6708 H   0  0  0  0  0  0  0  0  0  0  0  0
   -3.3731    2.2391    1.5790 N   0  0  0  0  0  0  0  0  0  0  0  0
   -2.7599    1.4751    0.5247 C   0  0  2  0  0  0  0  0  0  0  0  0
   -1.5143    0.8067    1.0915 C   0  0  0  0  0  0  0  0  0  0  0  0
   -0.9247    1.2213    2.0872 O   0  0  0  0  0  0  0  0  0  0  0  0
   -2.4106    2.3553   -0.6653 C   0  0  0  0  0  0  0  0  0  0  0  0
   -2.8254    2.4352    2.4150 H   0  0  0  0  0  0  0  0  0  0  0  0
   -3.4836    0.7082    0.2278 H   0  0  0  0  0  0  0  0  0  0  0  0
   -1.6866    3.1298   -0.3871 H   0  0  0  0  0  0  0  0  0  0  0  0
   -1.9704    1.7677   -1.4777 H   0  0  0  0  0  0  0  0  0  0  0  0
   -3.3030    2.8584   -1.0531 H   0  0  0  0  0  0  0  0  0  0  0  0
   -1.1107   -0.2839    0.3303 N   0  0  0  0  0  0  0  0  0  0  0  0
    0.0490   -1.0750    0.6539 C   0  0  2  0  0  0  0  0  0  0  0  0
    1.2824   -0.2637    0.2678 C   0  0  0  0  0  0  0  0  0  0  0  0
    2.2515   -0.1227    1.0109 O   0  0  0  0  0  0  0  0  0  0  0  0
    0.0407   -2.4500   -0.0299 C   0  0  2  0  0  0  0  0  0  0  0  0
    0.0357   -2.3077   -1.4496 O   0  0  0  0  0  0  0  0  0  0  0  0
   -1.1766   -3.2800    0.3591 C   0  0  0  0  0  0  0  0  0  0  0  0
   -1.6733   -0.5660   -0.4691 H   0  0  0  0  0  0  0  0  0  0  0  0
    0.0455   -1.1994    1.7436 H   0  0  0  0  0  0  0  0  0  0  0  0
    0.9428   -3.0127    0.2371 H   0  0  0  0  0  0  0  0  0  0  0  0
    0.0810   -3.2041   -1.8156 H   0  0  0  0  0  0  0  0  0  0  0  0
   -2.1097   -2.7616    0.1130 H   0  0  0  0  0  0  0  0  0  0  0  0
   -1.1734   -3.5140    1.4280 H   0  0  0  0  0  0  0  0  0  0  0  0
   -1.1880   -4.2209   -0.2021 H   0  0  0  0  0  0  0  0  0  0  0  0
    1.1519    0.3237   -0.9826 N   0  0  0  0  0  0  0  0  0  0  0  0
    2.1744    1.1675   -1.5554 C   0  0  2  0  0  0  0  0  0  0  0  0
    3.2720    0.2676   -2.1075 C   0  0  0  0  0  0  0  0  0  0  0  0
    3.4540   -0.8843   -1.7186 O   0  0  0  0  0  0  0  0  0  0  0  0
    2.7330    2.1367   -0.5252 C   0  0  0  0  0  0  0  0  0  0  0  0
    0.3042    0.1536   -1.5158 H   0  0  0  0  0  0  0  0  0  0  0  0
    1.7054    1.7190   -2.3775 H   0  0  0  0  0  0  0  0  0  0  0  0
    3.2070    1.6024    0.3063 H   0  0  0  0  0  0  0  0  0  0  0  0
    3.4878    2.7949   -0.9681 H   0  0  0  0  0  0  0  0  0  0  0  0
    1.9373    2.7629   -0.1075 H   0  0  0  0  0  0  0  0  0  0  0  0
    4.0515    0.9164   -3.0549 N   0  0  0  0  0  0  0  0  0  0  0  0
    5.1654    0.2787   -3.7172 C   0  0  0  0  0  0  0  0  0  0  0  0
    3.8166    1.8655   -3.3302 H   0  0  0  0  0  0  0  0  0  0  0  0
    6.0912    0.4861   -3.1605 H   0  0  0  0  0  0  0  0  0  0  0  0
    4.9961   -0.8075   -3.7554 H   0  0  0  0  0  0  0  0  0  0  0  0
    5.2572    0.6717   -4.7405 H   0  0  0  0  0  0  0  0  0  0  0  0
  1  3  1  0  0  0  0
  1  7  1  0  0  0  0
  1  2  2  0  0  0  0
 32 33  1  0  0  0  0
 33 41  1  0  0  0  0
 33 34  2  0  0  0  0
  8  9  1  0  0  0  0
  9 17  1  0  0  0  0
  9 10  2  0  0  0  0
 18 19  1  0  0  0  0
 19 31  1  0  0  0  0
 19 20  2  0  0  0  0
 32 35  1  0  0  0  0
  8 11  1  0  0  0  0
 21 23  1  0  0  0  0
 41 42  1  0  0  0  0
 31 32  1  0  0  0  0
  7  8  1  0  0  0  0
 18 21  1  0  0  0  0
 17 18  1  0  0  0  0
 21 22  1  0  0  0  0
  3  4  1  0  0  0  0
  3  5  1  0  0  0  0
  3  6  1  0  0  0  0
 35 38  1  0  0  0  0
 35 39  1  0  0  0  0
 35 40  1  0  0  0  0
 11 14  1  0  0  0  0
 11 15  1  0  0  0  0
 11 16  1  0  0  0  0
 23 28  1  0  0  0  0
 23 29  1  0  0  0  0
 23 30  1  0  0  0  0
 42 44  1  0  0  0  0
 42 45  1  0  0  0  0
 42 46  1  0  0  0  0
 32 37  1  0  0  0  0
  8 13  1  0  0  0  0
 18 25  1  0  0  0  0
 21 26  1  0  0  0  0
 41 43  1  0  0  0  0
  7 12  1  0  0  0  0
 31 36  1  0  0  0  0
 17 24  1  0  0  0  0
 22 27  1  0  0  0  0
M  END
$$$$

  -OEChem-05262214473D

 46 45  0     1  0  0  0  0  0999 V2000
   -4.6700    2.7214    1.5150 C   0  0  0  0  0  0  0  0  0  0  0  0
   -5.4532    2.5715    0.5845 O   0  0  0  0  0  0  0  0  0  0  0  0
   -5.0996    3.4865    2.7226 C   0  0  0  0  0  0  0  0  0  0  0  0
   -4.8796    4.5629    2.6387 H   0  0  0  0  0  0  0  0  0  0  0  0
   -6.1861    3.4241    2.8954 H   0  0  0  0  0  0  0  0  0  0  0  0
   -4.6369    3.1693    3.6708 H   0  0  0  0  0  0  0  0  0  0  0  0
   -3.3731    2.2391    1.5790 N   0  0  0  0  0  0  0  0  0  0  0  0
   -2.7599    1.4751    0.5247 C   0  0  2  0  0  0  0  0  0  0  0  0
   -1.5143    0.8067    1.0915 C   0  0  0  0  0  0  0  0  0  0  0  0
   -0.9247    1.2213    2.0872 O   0  0  0  0  0  0  0  0  0  0  0  0
   -2.4106    2.3553   -0.6653 C   0  0  0  0  0  0  0  0  0  0  0  0
   -2.8254    2.4352    2.4150 H   0  0  0  0  0  0  0  0  0  0  0  0
   -3.4836    0.7082    0.2278 H   0  0  0  0  0  0  0  0  0  0  0  0
   -1.6866    3.1298   -0.3871 H   0  0  0  0  0  0  0  0  0  0  0  0
   -1.9704    1.7677   -1.4777 H   0  0  0  0  0  0  0  0  0  0  0  0
   -3.3030    2.8584   -1.0531 H   0  0  0  0  0  0  0  0  0  0  0  0
   -1.1107   -0.2839    0.3303 N   0  0  0  0  0  0  0  0  0  0  0  0
    0.0490   -1.0750    0.6539 C   0  0  2  0  0  0  0  0  0  0  0  0
    1.2824   -0.2637    0.2678 C   0  0  0  0  0  0  0  0  0  0  0  0
    2.3484   -0.3342    0.8760 O   0  0  0  0  0  0  0  0  0  0  0  0
    0.0407   -2.4500   -0.0299 C   0  0  2  0  0  0  0  0  0  0  0  0
    0.0357   -2.3077   -1.4496 O   0  0  0  0  0  0  0  0  0  0  0  0
   -1.1766   -3.2800    0.3591 C   0  0  0  0  0  0  0  0  0  0  0  0
   -1.6733   -0.5660   -0.4691 H   0  0  0  0  0  0  0  0  0  0  0  0
    0.0455   -1.1994    1.7436 H   0  0  0  0  0  0  0  0  0  0  0  0
    0.9428   -3.0127    0.2371 H   0  0  0  0  0  0  0  0  0  0  0  0
    0.0810   -3.2041   -1.8156 H   0  0  0  0  0  0  0  0  0  0  0  0
   -2.1097   -2.7616    0.1130 H   0  0  0  0  0  0  0  0  0  0  0  0
   -1.1734   -3.5140    1.4280 H   0  0  0  0  0  0  0  0  0  0  0  0
   -1.1880   -4.2209   -0.2021 H   0  0  0  0  0  0  0  0  0  0  0  0
    1.0372    0.5833   -0.8037 N   0  0  0  0  0  0  0  0  0  0  0  0
    2.0403    1.4769   -1.3333 C   0  0  2  0  0  0  0  0  0  0  0  0
    2.9807    0.6612   -2.2107 C   0  0  0  0  0  0  0  0  0  0  0  0
    3.1191   -0.5549   -2.0962 O   0  0  0  0  0  0  0  0  0  0  0  0
    2.8047    2.1738   -0.2185 C   0  0  0  0  0  0  0  0  0  0  0  0
    0.1162    0.5744   -1.2322 H   0  0  0  0  0  0  0  0  0  0  0  0
    1.5137    2.2145   -1.9486 H   0  0  0  0  0  0  0  0  0  0  0  0
    3.3388    1.4507    0.4087 H   0  0  0  0  0  0  0  0  0  0  0  0
    3.5454    2.8722   -0.6217 H   0  0  0  0  0  0  0  0  0  0  0  0
    2.1231    2.7358    0.4291 H   0  0  0  0  0  0  0  0  0  0  0  0
    3.6793    1.4571   -3.1078 N   0  0  0  0  0  0  0  0  0  0  0  0
    4.6424    0.9200   -4.0405 C   0  0  0  0  0  0  0  0  0  0  0  0
    3.4872    2.4538   -3.1462 H   0  0  0  0  0  0  0  0  0  0  0  0
    5.6466    0.9562   -3.5930 H   0  0  0  0  0  0  0  0  0  0  0  0
    4.3831   -0.1230   -4.2752 H   0  0  0  0  0  0  0  0  0  0  0  0
    4.6309    1.5174   -4.9640 H   0  0  0  0  0  0  0  0  0  0  0  0
  1  3  1  0  0  0  0
  1  7  1  0  0  0  0
  1  2  2  0  0  0  0
 32 33  1  0  0  0  0
 33 41  1  0  0  0  0
 33 34  2  0  0  0  0
  8  9  1  0  0  0  0
  9 17  1  0  0  0  0
  9 10  2  0  0  0  0
 18 19  1  0  0  0  0
 19 31  1  0  0  0  0
 19 20  2  0  0  0  0
 32 35  1  0  0  0  0
  8 11  1  0  0  0  0
 21 23  1  0  0  0  0
 41 42  1  0  0  0  0
 31 32  1  0  0  0  0
  7  8  1  0  0  0  0
 18 21  1  0  0  0  0
 17 18  1  0  0  0  0
 21 22  1  0  0  0  0
  3  4  1  0  0  0  0
  3  5  1  0  0  0  0
  3  6  1  0  0  0  0
 35 38  1  0  0  0  0
 35 39  1  0  0  0  0
 35 40  1  0  0  0  0
 11 14  1  0  0  0  0
 11 15  1  0  0  0  0
 11 16  1  0  0  0  0
 23 28  1  0  0  0  0
 23 29  1  0  0  0  0
 23 30  1  0  0  0  0
 42 44  1  0  0  0  0
 42 45  1  0  0  0  0
 42 46  1  0  0  0  0
 32 37  1  0  0  0  0
  8 13  1  0  0  0  0
 18 25  1  0  0  0  0
 21 26  1  0  0  0  0
 41 43  1  0  0  0  0
  7 12  1  0  0  0  0
 31 36  1  0  0  0  0
 17 24  1  0  0  0  0
 22 27  1  0  0  0  0
M  END
$$$$

  -OEChem-05262214473D

 46 45  0     1  0  0  0  0  0999 V2000
   -4.6700    2.7214    1.5150 C   0  0  0  0  0  0  0  0  0  0  0  0
   -5.4532    2.5715    0.5845 O   0  0  0  0  0  0  0  0  0  0  0  0
   -5.0996    3.4865    2.7226 C   0  0  0  0  0  0  0  0  0  0  0  0
   -4.8796    4.5629    2.6387 H   0  0  0  0  0  0  0  0  0  0  0  0
   -6.1861    3.4241    2.8954 H   0  0  0  0  0  0  0  0  0  0  0  0
   -4.6369    3.1693    3.6708 H   0  0  0  0  0  0  0  0  0  0  0  0
   -3.3731    2.2391    1.5790 N   0  0  0  0  0  0  0  0  0  0  0  0
   -2.7599    1.4751    0.5247 C   0  0  2  0  0  0  0  0  0  0  0  0
   -1.5143    0.8067    1.0915 C   0  0  0  0  0  0  0  0  0  0  0  0
   -0.9247    1.2213    2.0872 O   0  0  0  0  0  0  0  0  0  0  0  0
   -2.4106    2.3553   -0.6653 C   0  0  0  0  0  0  0  0  0  0  0  0
   -2.8254    2.4352    2.4150 H   0  0  0  0  0  0  0  0  0  0  0  0
   -3.4836    0.7082    0.2278 H   0  0  0  0  0  0  0  0  0  0  0  0
   -1.6866    3.1298   -0.3871 H   0  0  0  0  0  0  0  0  0  0  0  0
   -1.9704    1.7677   -1.4777 H   0  0  0  0  0  0  0  0  0  0  0  0
   -3.3030    2.8584   -1.0531 H   0  0  0  0  0  0  0  0  0  0  0  0
   -1.1107   -0.2839    0.3303 N   0  0  0  0  0  0  0  0  0  0  0  0
    0.0490   -1.0750    0.6539 C   0  0  2  0  0  0  0  0  0  0  0  0
    1.2824   -0.2637    0.2678 C   0  0  0  0  0  0  0  0  0  0  0  0
    2.4096   -0.5167    0.6880 O   0  0  0  0  0  0  0  0  0  0  0  0
    0.0407   -2.4500   -0.0299 C   0  0  2  0  0  0  0  0  0  0  0  0
    0.0357   -2.3077   -1.4496 O   0  0  0  0  0  0  0  0  0  0  0  0
   -1.1766   -3.2800    0.3591 C   0  0  0  0  0  0  0  0  0  0  0  0
   -1.6733   -0.5660   -0.4691 H   0  0  0  0  0  0  0  0  0  0  0  0
    0.0455   -1.1994    1.7436 H   0  0  0  0  0  0  0  0  0  0  0  0
    0.9428   -3.0127    0.2371 H   0  0  0  0  0  0  0  0  0  0  0  0
    0.0810   -3.2041   -1.8156 H   0  0  0  0  0  0  0  0  0  0  0  0
   -2.1097   -2.7616    0.1130 H   0  0  0  0  0  0  0  0  0  0  0  0
   -1.1734   -3.5140    1.4280 H   0  0  0  0  0  0  0  0  0  0  0  0
   -1.1880   -4.2209   -0.2021 H   0  0  0  0  0  0  0  0  0  0  0  0
    0.9680    0.8041   -0.5608 N   0  0  0  0  0  0  0  0  0  0  0  0
    1.9617    1.7381   -1.0357 C   0  0  2  0  0  0  0  0  0  0  0  0
    2.7110    1.0821   -2.1879 C   0  0  0  0  0  0  0  0  0  0  0  0
    2.7653   -0.1358   -2.3459 O   0  0  0  0  0  0  0  0  0  0  0  0
    2.9185    2.1408    0.0757 C   0  0  0  0  0  0  0  0  0  0  0  0
    0.0012    0.9339   -0.8442 H   0  0  0  0  0  0  0  0  0  0  0  0
    1.4200    2.6160   -1.4043 H   0  0  0  0  0  0  0  0  0  0  0  0
    3.4703    1.2742    0.4577 H   0  0  0  0  0  0  0  0  0  0  0  0
    3.6537    2.8707   -0.2788 H   0  0  0  0  0  0  0  0  0  0  0  0
    2.3746    2.5853    0.9162 H   0  0  0  0  0  0  0  0  0  0  0  0
    3.3479    2.0148   -2.9945 N   0  0  0  0  0  0  0  0  0  0  0  0
    4.1348    1.6412   -4.1466 C   0  0  0  0  0  0  0  0  0  0  0  0
    3.2329    3.0051   -2.8000 H   0  0  0  0  0  0  0  0  0  0  0  0
    5.1885    1.5298   -3.8512 H   0  0  0  0  0  0  0  0  0  0  0  0
    3.7643    0.6871   -4.5498 H   0  0  0  0  0  0  0  0  0  0  0  0
    4.0506    2.4221   -4.9168 H   0  0  0  0  0  0  0  0  0  0  0  0
  1  3  1  0  0  0  0
  1  7  1  0  0  0  0
  1  2  2  0  0  0  0
 32 33  1  0  0  0  0
 33 41  1  0  0  0  0
 33 34  2  0  0  0  0
  8  9  1  0  0  0  0
  9 17  1  0  0  0  0
  9 10  2  0  0  0  0
 18 19  1  0  0  0  0
 19 31  1  0  0  0  0
 19 20  2  0  0  0  0
 32 35  1  0  0  0  0
  8 11  1  0  0  0  0
 21 23  1  0  0  0  0
 41 42  1  0  0  0  0
 31 32  1  0  0  0  0
  7  8  1  0  0  0  0
 18 21  1  0  0  0  0
 17 18  1  0  0  0  0
 21 22  1  0  0  0  0
  3  4  1  0  0  0  0
  3  5  1  0  0  0  0
  3  6  1  0  0  0  0
 35 38  1  0  0  0  0
 35 39  1  0  0  0  0
 35 40  1  0  0  0  0
 11 14  1  0  0  0  0
 11 15  1  0  0  0  0
 11 16  1  0  0  0  0
 23 28  1  0  0  0  0
 23 29  1  0  0  0  0
 23 30  1  0  0  0  0
 42 44  1  0  0  0  0
 42 45  1  0  0  0  0
 42 46  1  0  0  0  0
 32 37  1  0  0  0  0
  8 13  1  0  0  0  0
 18 25  1  0  0  0  0
 21 26  1  0  0  0  0
 41 43  1  0  0  0  0
  7 12  1  0  0  0  0
 31 36  1  0  0  0  0
 17 24  1  0  0  0  0
 22 27  1  0  0  0  0
M  END
$$$$

  -OEChem-05262214473D

 46 45  0     1  0  0  0  0  0999 V2000
   -4.6700    2.7214    1.5150 C   0  0  0  0  0  0  0  0  0  0  0  0
   -5.4532    2.5715    0.5845 O   0  0  0  0  0  0  0  0  0  0  0  0
   -5.0996    3.4865    2.7226 C   0  0  0  0  0  0  0  0  0  0  0  0
   -4.8796    4.5629    2.6387 H   0  0  0  0  0  0  0  0  0  0  0  0
   -6.1861    3.4241    2.8954 H   0  0  0  0  0  0  0  0  0  0  0  0
   -4.6369    3.1693    3.6708 H   0  0  0  0  0  0  0  0  0  0  0  0
   -3.3731    2.2391    1.5790 N   0  0  0  0  0  0  0  0  0  0  0  0
   -2.7599    1.4751    0.5247 C   0  0  2  0  0  0  0  0  0  0  0  0
   -1.5143    0.8067    1.0915 C   0  0  0  0  0  0  0  0  0  0  0  0
   -0.9247    1.2213    2.0872 O   0  0  0  0  0  0  0  0  0  0  0  0
   -2.4106    2.3553   -0.6653 C   0  0  0  0  0  0  0  0  0  0  0  0
   -2.8254    2.4352    2.4150 H   0  0  0  0  0  0  0  0  0  0  0  0
   -3.4836    0.7082    0.2278 H   0  0  0  0  0  0  0  0  0  0  0  0
   -1.6866    3.1298   -0.3871 H   0  0  0  0  0  0  0  0  0  0  0  0
   -1.9704    1.7677   -1.4777 H   0  0  0  0  0  0  0  0  0  0  0  0
   -3.3030    2.8584   -1.0531 H   0  0  0  0  0  0  0  0  0  0  0  0
   -1.1107   -0.2839    0.3303 N   0  0  0  0  0  0  0  0  0  0  0  0
    0.0490   -1.0750    0.6539 C   0  0  2  0  0  0  0  0  0  0  0  0
    1.2824   -0.2637    0.2678 C   0  0  0  0  0  0  0  0  0  0  0  0
    2.4309   -0.6577    0.4599 O   0  0  0  0  0  0  0  0  0  0  0  0
    0.0407   -2.4500   -0.0299 C   0  0  2  0  0  0  0  0  0  0  0  0
    0.0357   -2.3077   -1.4496 O   0  0  0  0  0  0  0  0  0  0  0  0
   -1.1766   -3.2800    0.3591 C   0  0  0  0  0  0  0  0  0  0  0  0
   -1.6733   -0.5660   -0.4691 H   0  0  0  0  0  0  0  0  0  0  0  0
    0.0455   -1.1994    1.7436 H   0  0  0  0  0  0  0  0  0  0  0  0
    0.9428   -3.0127    0.2371 H   0  0  0  0  0  0  0  0  0  0  0  0
    0.0810   -3.2041   -1.8156 H   0  0  0  0  0  0  0  0  0  0  0  0
   -2.1097   -2.7616    0.1130 H   0  0  0  0  0  0  0  0  0  0  0  0
   -1.1734   -3.5140    1.4280 H   0  0  0  0  0  0  0  0  0  0  0  0
   -1.1880   -4.2209   -0.2021 H   0  0  0  0  0  0  0  0  0  0  0  0
    0.9490    0.9711   -0.2704 N   0  0  0  0  0  0  0  0  0  0  0  0
    1.9438    1.9333   -0.6827 C   0  0  2  0  0  0  0  0  0  0  0  0
    2.4812    1.5016   -2.0408 C   0  0  0  0  0  0  0  0  0  0  0  0
    2.4166    0.3445   -2.4507 O   0  0  0  0  0  0  0  0  0  0  0  0
    3.0667    2.0399    0.3373 C   0  0  0  0  0  0  0  0  0  0  0  0
   -0.0330    1.2075   -0.3785 H   0  0  0  0  0  0  0  0  0  0  0  0
    1.4307    2.8961   -0.7816 H   0  0  0  0  0  0  0  0  0  0  0  0
    3.5925    1.0847    0.4500 H   0  0  0  0  0  0  0  0  0  0  0  0
    3.8055    2.7904    0.0371 H   0  0  0  0  0  0  0  0  0  0  0  0
    2.6747    2.3215    1.3205 H   0  0  0  0  0  0  0  0  0  0  0  0
    3.0799    2.5515   -2.7229 N   0  0  0  0  0  0  0  0  0  0  0  0
    3.6770    2.3933   -4.0285 C   0  0  0  0  0  0  0  0  0  0  0  0
    3.0711    3.4818   -2.3154 H   0  0  0  0  0  0  0  0  0  0  0  0
    4.7480    2.1679   -3.9176 H   0  0  0  0  0  0  0  0  0  0  0  0
    3.1818    1.5676   -4.5604 H   0  0  0  0  0  0  0  0  0  0  0  0
    3.5559    3.3240   -4.6021 H   0  0  0  0  0  0  0  0  0  0  0  0
  1  3  1  0  0  0  0
  1  7  1  0  0  0  0
  1  2  2  0  0  0  0
 32 33  1  0  0  0  0
 33 41  1  0  0  0  0
 33 34  2  0  0  0  0
  8  9  1  0  0  0  0
  9 17  1  0  0  0  0
  9 10  2  0  0  0  0
 18 19  1  0  0  0  0
 19 31  1  0  0  0  0
 19 20  2  0  0  0  0
 32 35  1  0  0  0  0
  8 11  1  0  0  0  0
 21 23  1  0  0  0  0
 41 42  1  0  0  0  0
 31 32  1  0  0  0  0
  7  8  1  0  0  0  0
 18 21  1  0  0  0  0
 17 18  1  0  0  0  0
 21 22  1  0  0  0  0
  3  4  1  0  0  0  0
  3  5  1  0  0  0  0
  3  6  1  0  0  0  0
 35 38  1  0  0  0  0
 35 39  1  0  0  0  0
 35 40  1  0  0  0  0
 11 14  1  0  0  0  0
 11 15  1  0  0  0  0
 11 16  1  0  0  0  0
 23 28  1  0  0  0  0
 23 29  1  0  0  0  0
 23 30  1  0  0  0  0
 42 44  1  0  0  0  0
 42 45  1  0  0  0  0
 42 46  1  0  0  0  0
 32 37  1  0  0  0  0
  8 13  1  0  0  0  0
 18 25  1  0  0  0  0
 21 26  1  0  0  0  0
 41 43  1  0  0  0  0
  7 12  1  0  0  0  0
 31 36  1  0  0  0  0
 17 24  1  0  0  0  0
 22 27  1  0  0  0  0
M  END
$$$$

  -OEChem-05262214473D

 46 45  0     1  0  0  0  0  0999 V2000
   -4.6700    2.7214    1.5150 C   0  0  0  0  0  0  0  0  0  0  0  0
   -5.4532    2.5715    0.5845 O   0  0  0  0  0  0  0  0  0  0  0  0
   -5.0996    3.4865    2.7226 C   0  0  0  0  0  0  0  0  0  0  0  0
   -4.8796    4.5629    2.6387 H   0  0  0  0  0  0  0  0  0  0  0  0
   -6.1861    3.4241    2.8954 H   0  0  0  0  0  0  0  0  0  0  0  0
   -4.6369    3.1693    3.6708 H   0  0  0  0  0  0  0  0  0  0  0  0
   -3.3731    2.2391    1.5790 N   0  0  0  0  0  0  0  0  0  0  0  0
   -2.7599    1.4751    0.5247 C   0  0  2  0  0  0  0  0  0  0  0  0
   -1.5143    0.8067    1.0915 C   0  0  0  0  0  0  0  0  0  0  0  0
   -0.9247    1.2213    2.0872 O   0  0  0  0  0  0  0  0  0  0  0  0
   -2.4106    2.3553   -0.6653 C   0  0  0  0  0  0  0  0  0  0  0  0
   -2.8254    2.4352    2.4150 H   0  0  0  0  0  0  0  0  0  0  0  0
   -3.4836    0.7082    0.2278 H   0  0  0  0  0  0  0  0  0  0  0  0
   -1.6866    3.1298   -0.3871 H   0  0  0  0  0  0  0  0  0  0  0  0
   -1.9704    1.7677   -1.4777 H   0  0  0  0  0  0  0  0  0  0  0  0
   -3.3030    2.8584   -1.0531 H   0  0  0  0  0  0  0  0  0  0  0  0
   -1.1107   -0.2839    0.3303 N   0  0  0  0  0  0  0  0  0  0  0  0
    0.0490   -1.0750    0.6539 C   0  0  2  0  0  0  0  0  0  0  0  0
    1.2824   -0.2637    0.2678 C   0  0  0  0  0  0  0  0  0  0  0  0
    2.4109   -0.7475    0.2071 O   0  0  0  0  0  0  0  0  0  0  0  0
    0.0407   -2.4500   -0.0299 C   0  0  2  0  0  0  0  0  0  0  0  0
    0.0357   -2.3077   -1.4496 O   0  0  0  0  0  0  0  0  0  0  0  0
   -1.1766   -3.2800    0.3591 C   0  0  0  0  0  0  0  0  0  0  0  0
   -1.6733   -0.5660   -0.4691 H   0  0  0  0  0  0  0  0  0  0  0  0
    0.0455   -1.1994    1.7436 H   0  0  0  0  0  0  0  0  0  0  0  0
    0.9428   -3.0127    0.2371 H   0  0  0  0  0  0  0  0  0  0  0  0
    0.0810   -3.2041   -1.8156 H   0  0  0  0  0  0  0  0  0  0  0  0
   -2.1097   -2.7616    0.1130 H   0  0  0  0  0  0  0  0  0  0  0  0
   -1.1734   -3.5140    1.4280 H   0  0  0  0  0  0  0  0  0  0  0  0
   -1.1880   -4.2209   -0.2021 H   0  0  0  0  0  0  0  0  0  0  0  0
    0.9816    1.0730    0.0476 N   0  0  0  0  0  0  0  0  0  0  0  0
    1.9879    2.0492   -0.2985 C   0  0  2  0  0  0  0  0  0  0  0  0
    2.3069    1.8910   -1.7793 C   0  0  0  0  0  0  0  0  0  0  0  0
    2.0968    0.8531   -2.4036 O   0  0  0  0  0  0  0  0  0  0  0  0
    3.2393    1.8780    0.5484 C   0  0  0  0  0  0  0  0  0  0  0  0
    0.0161    1.3766    0.1333 H   0  0  0  0  0  0  0  0  0  0  0  0
    1.5451    3.0357   -0.1231 H   0  0  0  0  0  0  0  0  0  0  0  0
    3.6971    0.8954    0.3861 H   0  0  0  0  0  0  0  0  0  0  0  0
    3.9903    2.6367    0.3046 H   0  0  0  0  0  0  0  0  0  0  0  0
    3.0029    1.9625    1.6146 H   0  0  0  0  0  0  0  0  0  0  0  0
    2.8936    3.0306   -2.3114 N   0  0  0  0  0  0  0  0  0  0  0  0
    3.3004    3.1251   -3.6940 C   0  0  0  0  0  0  0  0  0  0  0  0
    3.0126    3.8516   -1.7252 H   0  0  0  0  0  0  0  0  0  0  0  0
    4.3551    2.8270   -3.7876 H   0  0  0  0  0  0  0  0  0  0  0  0
    2.6754    2.4585   -4.3063 H   0  0  0  0  0  0  0  0  0  0  0  0
    3.1803    4.1618   -4.0414 H   0  0  0  0  0  0  0  0  0  0  0  0
  1  3  1  0  0  0  0
  1  7  1  0  0  0  0
  1  2  2  0  0  0  0
 32 33  1  0  0  0  0
 33 41  1  0  0  0  0
 33 34  2  0  0  0  0
  8  9  1  0  0  0  0
  9 17  1  0  0  0  0
  9 10  2  0  0  0  0
 18 19  1  0  0  0  0
 19 31  1  0  0  0  0
 19 20  2  0  0  0  0
 32 35  1  0  0  0  0
  8 11  1  0  0  0  0
 21 23  1  0  0  0  0
 41 42  1  0  0  0  0
 31 32  1  0  0  0  0
  7  8  1  0  0  0  0
 18 21  1  0  0  0  0
 17 18  1  0  0  0  0
 21 22  1  0  0  0  0
  3  4  1  0  0  0  0
  3  5  1  0  0  0  0
  3  6  1  0  0  0  0
 35 38  1  0  0  0  0
 35 39  1  0  0  0  0
 35 40  1  0  0  0  0
 11 14  1  0  0  0  0
 11 15  1  0  0  0  0
 11 16  1  0  0  0  0
 23 28  1  0  0  0  0
 23 29  1  0  0  0  0
 23 30  1  0  0  0  0
 42 44  1  0  0  0  0
 42 45  1  0  0  0  0
 42 46  1  0  0  0  0
 32 37  1  0  0  0  0
  8 13  1  0  0  0  0
 18 25  1  0  0  0  0
 21 26  1  0  0  0  0
 41 43  1  0  0  0  0
  7 12  1  0  0  0  0
 31 36  1  0  0  0  0
 17 24  1  0  0  0  0
 22 27  1  0  0  0  0
M  END
$$$$

  -OEChem-05262214473D

 46 45  0     1  0  0  0  0  0999 V2000
   -4.6700    2.7214    1.5150 C   0  0  0  0  0  0  0  0  0  0  0  0
   -5.4532    2.5715    0.5845 O   0  0  0  0  0  0  0  0  0  0  0  0
   -5.0996    3.4865    2.7226 C   0  0  0  0  0  0  0  0  0  0  0  0
   -4.8796    4.5629    2.6387 H   0  0  0  0  0  0  0  0  0  0  0  0
   -6.1861    3.4241    2.8954 H   0  0  0  0  0  0  0  0  0  0  0  0
   -4.6369    3.1693    3.6708 H   0  0  0  0  0  0  0  0  0  0  0  0
   -3.3731    2.2391    1.5790 N   0  0  0  0  0  0  0  0  0  0  0  0
   -2.7599    1.4751    0.5247 C   0  0  2  0  0  0  0  0  0  0  0  0
   -1.5143    0.8067    1.0915 C   0  0  0  0  0  0  0  0  0  0  0  0
   -0.9247    1.2213    2.0872 O   0  0  0  0  0  0  0  0  0  0  0  0
   -2.4106    2.3553   -0.6653 C   0  0  0  0  0  0  0  0  0  0  0  0
   -2.8254    2.4352    2.4150 H   0  0  0  0  0  0  0  0  0  0  0  0
   -3.4836    0.7082    0.2278 H   0  0  0  0  0  0  0  0  0  0  0  0
   -1.6866    3.1298   -0.3871 H   0  0  0  0  0  0  0  0  0  0  0  0
   -1.9704    1.7677   -1.4777 H   0  0  0  0  0  0  0  0  0  0  0  0
   -3.3030    2.8584   -1.0531 H   0  0  0  0  0  0  0  0  0  0  0  0
   -1.1107   -0.2839    0.3303 N   0  0  0  0  0  0  0  0  0  0  0  0
    0.0490   -1.0750    0.6539 C   0  0  2  0  0  0  0  0  0  0  0  0
    1.2824   -0.2637    0.2678 C   0  0  0  0  0  0  0  0  0  0  0  0
    2.3509   -0.7801   -0.0531 O   0  0  0  0  0  0  0  0  0  0  0  0
    0.0407   -2.4500   -0.0299 C   0  0  2  0  0  0  0  0  0  0  0  0
    0.0357   -2.3077   -1.4496 O   0  0  0  0  0  0  0  0  0  0  0  0
   -1.1766   -3.2800    0.3591 C   0  0  0  0  0  0  0  0  0  0  0  0
   -1.6733   -0.5660   -0.4691 H   0  0  0  0  0  0  0  0  0  0  0  0
    0.0455   -1.1994    1.7436 H   0  0  0  0  0  0  0  0  0  0  0  0
    0.9428   -3.0127    0.2371 H   0  0  0  0  0  0  0  0  0  0  0  0
    0.0810   -3.2041   -1.8156 H   0  0  0  0  0  0  0  0  0  0  0  0
   -2.1097   -2.7616    0.1130 H   0  0  0  0  0  0  0  0  0  0  0  0
   -1.1734   -3.5140    1.4280 H   0  0  0  0  0  0  0  0  0  0  0  0
   -1.1880   -4.2209   -0.2021 H   0  0  0  0  0  0  0  0  0  0  0  0
    1.0635    1.1026    0.3717 N   0  0  0  0  0  0  0  0  0  0  0  0
    2.0909    2.0778    0.0908 C   0  0  2  0  0  0  0  0  0  0  0  0
    2.2000    2.2238   -1.4212 C   0  0  0  0  0  0  0  0  0  0  0  0
    1.8277    1.3555   -2.2076 O   0  0  0  0  0  0  0  0  0  0  0  0
    3.4245    1.6662    0.6948 C   0  0  0  0  0  0  0  0  0  0  0  0
    0.1449    1.4296    0.6563 H   0  0  0  0  0  0  0  0  0  0  0  0
    1.7553    3.0252    0.5265 H   0  0  0  0  0  0  0  0  0  0  0  0
    3.7769    0.7190    0.2704 H   0  0  0  0  0  0  0  0  0  0  0  0
    4.1955    2.4203    0.5054 H   0  0  0  0  0  0  0  0  0  0  0  0
    3.3369    1.5327    1.7785 H   0  0  0  0  0  0  0  0  0  0  0  0
    2.8016    3.4196   -1.7880 N   0  0  0  0  0  0  0  0  0  0  0  0
    3.0306    3.7866   -3.1660 C   0  0  0  0  0  0  0  0  0  0  0  0
    3.0616    4.0891   -1.0697 H   0  0  0  0  0  0  0  0  0  0  0  0
    4.0367    3.4622   -3.4701 H   0  0  0  0  0  0  0  0  0  0  0  0
    2.2795    3.2989   -3.8048 H   0  0  0  0  0  0  0  0  0  0  0  0
    2.9496    4.8784   -3.2728 H   0  0  0  0  0  0  0  0  0  0  0  0
  1  3  1  0  0  0  0
  1  7  1  0  0  0  0
  1  2  2  0  0  0  0
 32 33  1  0  0  0  0
 33 41  1  0  0  0  0
 33 34  2  0  0  0  0
  8  9  1  0  0  0  0
  9 17  1  0  0  0  0
  9 10  2  0  0  0  0
 18 19  1  0  0  0  0
 19 31  1  0  0  0  0
 19 20  2  0  0  0  0
 32 35  1  0  0  0  0
  8 11  1  0  0  0  0
 21 23  1  0  0  0  0
 41 42  1  0  0  0  0
 31 32  1  0  0  0  0
  7  8  1  0  0  0  0
 18 21  1  0  0  0  0
 17 18  1  0  0  0  0
 21 22  1  0  0  0  0
  3  4  1  0  0  0  0
  3  5  1  0  0  0  0
  3  6  1  0  0  0  0
 35 38  1  0  0  0  0
 35 39  1  0  0  0  0
 35 40  1  0  0  0  0
 11 14  1  0  0  0  0
 11 15  1  0  0  0  0
 11 16  1  0  0  0  0
 23 28  1  0  0  0  0
 23 29  1  0  0  0  0
 23 30  1  0  0  0  0
 42 44  1  0  0  0  0
 42 45  1  0  0  0  0
 42 46  1  0  0  0  0
 32 37  1  0  0  0  0
  8 13  1  0  0  0  0
 18 25  1  0  0  0  0
 21 26  1  0  0  0  0
 41 43  1  0  0  0  0
  7 12  1  0  0  0  0
 31 36  1  0  0  0  0
 17 24  1  0  0  0  0
 22 27  1  0  0  0  0
M  END
$$$$

  -OEChem-05262214473D

 46 45  0     1  0  0  0  0  0999 V2000
   -4.6700    2.7214    1.5150 C   0  0  0  0  0  0  0  0  0  0  0  0
   -5.4532    2.5715    0.5845 O   0  0  0  0  0  0  0  0  0  0  0  0
   -5.0996    3.4865    2.7226 C   0  0  0  0  0  0  0  0  0  0  0  0
   -4.8796    4.5629    2.6387 H   0  0  0  0  0  0  0  0  0  0  0  0
   -6.1861    3.4241    2.8954 H   0  0  0  0  0  0  0  0  0  0  0  0
   -4.6369    3.1693    3.6708 H   0  0  0  0  0  0  0  0  0  0  0  0
   -3.3731    2.2391    1.5790 N   0  0  0  0  0  0  0  0  0  0  0  0
   -2.7599    1.4751    0.5247 C   0  0  2  0  0  0  0  0  0  0  0  0
   -1.5143    0.8067    1.0915 C   0  0  0  0  0  0  0  0  0  0  0  0
   -0.9247    1.2213    2.0872 O   0  0  0  0  0  0  0  0  0  0  0  0
   -2.4106    2.3553   -0.6653 C   0  0  0  0  0  0  0  0  0  0  0  0
   -2.8254    2.4352    2.4150 H   0  0  0  0  0  0  0  0  0  0  0  0
   -3.4836    0.7082    0.2278 H   0  0  0  0  0  0  0  0  0  0  0  0
   -1.6866    3.1298   -0.3871 H   0  0  0  0  0  0  0  0  0  0  0  0
   -1.9704    1.7677   -1.4777 H   0  0  0  0  0  0  0  0  0  0  0  0
   -3.3030    2.8584   -1.0531 H   0  0  0  0  0  0  0  0  0  0  0  0
   -1.1107   -0.2839    0.3303 N   0  0  0  0  0  0  0  0  0  0  0  0
    0.0490   -1.0750    0.6539 C   0  0  2  0  0  0  0  0  0  0  0  0
    1.2824   -0.2637    0.2678 C   0  0  0  0  0  0  0  0  0  0  0  0
    2.2549   -0.7532   -0.3030 O   0  0  0  0  0  0  0  0  0  0  0  0
    0.0407   -2.4500   -0.0299 C   0  0  2  0  0  0  0  0  0  0  0  0
    0.0357   -2.3077   -1.4496 O   0  0  0  0  0  0  0  0  0  0  0  0
   -1.1766   -3.2800    0.3591 C   0  0  0  0  0  0  0  0  0  0  0  0
   -1.6733   -0.5660   -0.4691 H   0  0  0  0  0  0  0  0  0  0  0  0
    0.0455   -1.1994    1.7436 H   0  0  0  0  0  0  0  0  0  0  0  0
    0.9428   -3.0127    0.2371 H   0  0  0  0  0  0  0  0  0  0  0  0
    0.0810   -3.2041   -1.8156 H   0  0  0  0  0  0  0  0  0  0  0  0
   -2.1097   -2.7616    0.1130 H   0  0  0  0  0  0  0  0  0  0  0  0
   -1.1734   -3.5140    1.4280 H   0  0  0  0  0  0  0  0  0  0  0  0
   -1.1880   -4.2209   -0.2021 H   0  0  0  0  0  0  0  0  0  0  0  0
    1.1892    1.0582    0.6796 N   0  0  0  0  0  0  0  0  0  0  0  0
    2.2459    2.0173    0.4587 C   0  0  2  0  0  0  0  0  0  0  0  0
    2.1679    2.4775   -0.9910 C   0  0  0  0  0  0  0  0  0  0  0  0
    1.6276    1.8174   -1.8762 O   0  0  0  0  0  0  0  0  0  0  0  0
    3.6096    1.4188    0.7664 C   0  0  0  0  0  0  0  0  0  0  0  0
    0.3448    1.3630    1.1549 H   0  0  0  0  0  0  0  0  0  0  0  0
    2.0471    2.8655    1.1229 H   0  0  0  0  0  0  0  0  0  0  0  0
    3.8265    0.5675    0.1108 H   0  0  0  0  0  0  0  0  0  0  0  0
    4.4072    2.1558    0.6259 H   0  0  0  0  0  0  0  0  0  0  0  0
    3.6540    1.0613    1.8008 H   0  0  0  0  0  0  0  0  0  0  0  0
    2.8103    3.6918   -1.1884 N   0  0  0  0  0  0  0  0  0  0  0  0
    2.8859    4.3328   -2.4805 C   0  0  0  0  0  0  0  0  0  0  0  0
    3.2147    4.1781   -0.3936 H   0  0  0  0  0  0  0  0  0  0  0  0
    3.8145    4.0302   -2.9867 H   0  0  0  0  0  0  0  0  0  0  0  0
    2.0212    4.0318   -3.0901 H   0  0  0  0  0  0  0  0  0  0  0  0
    2.8794    5.4248   -2.3488 H   0  0  0  0  0  0  0  0  0  0  0  0
  1  3  1  0  0  0  0
  1  7  1  0  0  0  0
  1  2  2  0  0  0  0
 32 33  1  0  0  0  0
 33 41  1  0  0  0  0
 33 34  2  0  0  0  0
  8  9  1  0  0  0  0
  9 17  1  0  0  0  0
  9 10  2  0  0  0  0
 18 19  1  0  0  0  0
 19 31  1  0  0  0  0
 19 20  2  0  0  0  0
 32 35  1  0  0  0  0
  8 11  1  0  0  0  0
 21 23  1  0  0  0  0
 41 42  1  0  0  0  0
 31 32  1  0  0  0  0
  7  8  1  0  0  0  0
 18 21  1  0  0  0  0
 17 18  1  0  0  0  0
 21 22  1  0  0  0  0
  3  4  1  0  0  0  0
  3  5  1  0  0  0  0
  3  6  1  0  0  0  0
 35 38  1  0  0  0  0
 35 39  1  0  0  0  0
 35 40  1  0  0  0  0
 11 14  1  0  0  0  0
 11 15  1  0  0  0  0
 11 16  1  0  0  0  0
 23 28  1  0  0  0  0
 23 29  1  0  0  0  0
 23 30  1  0  0  0  0
 42 44  1  0  0  0  0
 42 45  1  0  0  0  0
 42 46  1  0  0  0  0
 32 37  1  0  0  0  0
  8 13  1  0  0  0  0
 18 25  1  0  0  0  0
 21 26  1  0  0  0  0
 41 43  1  0  0  0  0
  7 12  1  0  0  0  0
 31 36  1  0  0  0  0
 17 24  1  0  0  0  0
 22 27  1  0  0  0  0
M  END
$$$$

  -OEChem-05262214473D

 46 45  0     1  0  0  0  0  0999 V2000
   -4.6700    2.7214    1.5150 C   0  0  0  0  0  0  0  0  0  0  0  0
   -5.4532    2.5715    0.5845 O   0  0  0  0  0  0  0  0  0  0  0  0
   -5.0996    3.4865    2.7226 C   0  0  0  0  0  0  0  0  0  0  0  0
   -4.8796    4.5629    2.6387 H   0  0  0  0  0  0  0  0  0  0  0  0
   -6.1861    3.4241    2.8954 H   0  0  0  0  0  0  0  0  0  0  0  0
   -4.6369    3.1693    3.6708 H   0  0  0  0  0  0  0  0  0  0  0  0
   -3.3731    2.2391    1.5790 N   0  0  0  0  0  0  0  0  0  0  0  0
   -2.7599    1.4751    0.5247 C   0  0  2  0  0  0  0  0  0  0  0  0
   -1.5143    0.8067    1.0915 C   0  0  0  0  0  0  0  0  0  0  0  0
   -0.9247    1.2213    2.0872 O   0  0  0  0  0  0  0  0  0  0  0  0
   -2.4106    2.3553   -0.6653 C   0  0  0  0  0  0  0  0  0  0  0  0
   -2.8254    2.4352    2.4150 H   0  0  0  0  0  0  0  0  0  0  0  0
   -3.4836    0.7082    0.2278 H   0  0  0  0  0  0  0  0  0  0  0  0
   -1.6866    3.1298   -0.3871 H   0  0  0  0  0  0  0  0  0  0  0  0
   -1.9704    1.7677   -1.4777 H   0  0  0  0  0  0  0  0  0  0  0  0
   -3.3030    2.8584   -1.0531 H   0  0  0  0  0  0  0  0  0  0  0  0
   -1.1107   -0.2839    0.3303 N   0  0  0  0  0  0  0  0  0  0  0  0
    0.0490   -1.0750    0.6539 C   0  0  2  0  0  0  0  0  0  0  0  0
    1.2824   -0.2637    0.2678 C   0  0  0  0  0  0  0  0  0  0  0  0
    2.1297   -0.6687   -0.5256 O   0  0  0  0  0  0  0  0  0  0  0  0
    0.0407   -2.4500   -0.0299 C   0  0  2  0  0  0  0  0  0  0  0  0
    0.0357   -2.3077   -1.4496 O   0  0  0  0  0  0  0  0  0  0  0  0
   -1.1766   -3.2800    0.3591 C   0  0  0  0  0  0  0  0  0  0  0  0
   -1.6733   -0.5660   -0.4691 H   0  0  0  0  0  0  0  0  0  0  0  0
    0.0455   -1.1994    1.7436 H   0  0  0  0  0  0  0  0  0  0  0  0
    0.9428   -3.0127    0.2371 H   0  0  0  0  0  0  0  0  0  0  0  0
    0.0810   -3.2041   -1.8156 H   0  0  0  0  0  0  0  0  0  0  0  0
   -2.1097   -2.7616    0.1130 H   0  0  0  0  0  0  0  0  0  0  0  0
   -1.1734   -3.5140    1.4280 H   0  0  0  0  0  0  0  0  0  0  0  0
   -1.1880   -4.2209   -0.2021 H   0  0  0  0  0  0  0  0  0  0  0  0
    1.3500    0.9426    0.9504 N   0  0  0  0  0  0  0  0  0  0  0  0
    2.4422    1.8718    0.7800 C   0  0  2  0  0  0  0  0  0  0  0  0
    2.2126    2.6345   -0.5180 C   0  0  0  0  0  0  0  0  0  0  0  0
    1.5103    2.2073   -1.4319 O   0  0  0  0  0  0  0  0  0  0  0  0
    3.7821    1.1527    0.7583 C   0  0  0  0  0  0  0  0  0  0  0  0
    0.6021    1.1813    1.5950 H   0  0  0  0  0  0  0  0  0  0  0  0
    2.4005    2.5673    1.6253 H   0  0  0  0  0  0  0  0  0  0  0  0
    3.8425    0.4514   -0.0819 H   0  0  0  0  0  0  0  0  0  0  0  0
    4.6110    1.8612    0.6577 H   0  0  0  0  0  0  0  0  0  0  0  0
    3.9324    0.5806    1.6802 H   0  0  0  0  0  0  0  0  0  0  0  0
    2.9190    3.8287   -0.5535 N   0  0  0  0  0  0  0  0  0  0  0  0
    2.8763    4.7264   -1.6841 C   0  0  0  0  0  0  0  0  0  0  0  0
    3.4614    4.1127    0.2570 H   0  0  0  0  0  0  0  0  0  0  0  0
    3.7035    4.4922   -2.3704 H   0  0  0  0  0  0  0  0  0  0  0  0
    1.9180    4.6071   -2.2109 H   0  0  0  0  0  0  0  0  0  0  0  0
    2.9746    5.7640   -1.3322 H   0  0  0  0  0  0  0  0  0  0  0  0
  1  3  1  0  0  0  0
  1  7  1  0  0  0  0
  1  2  2  0  0  0  0
 32 33  1  0  0  0  0
 33 41  1  0  0  0  0
 33 34  2  0  0  0  0
  8  9  1  0  0  0  0
  9 17  1  0  0  0  0
  9 10  2  0  0  0  0
 18 19  1  0  0  0  0
 19 31  1  0  0  0  0
 19 20  2  0  0  0  0
 32 35  1  0  0  0  0
  8 11  1  0  0  0  0
 21 23  1  0  0  0  0
 41 42  1  0  0  0  0
 31 32  1  0  0  0  0
  7  8  1  0  0  0  0
 18 21  1  0  0  0  0
 17 18  1  0  0  0  0
 21 22  1  0  0  0  0
  3  4  1  0  0  0  0
  3  5  1  0  0  0  0
  3  6  1  0  0  0  0
 35 38  1  0  0  0  0
 35 39  1  0  0  0  0
 35 40  1  0  0  0  0
 11 14  1  0  0  0  0
 11 15  1  0  0  0  0
 11 16  1  0  0  0  0
 23 28  1  0  0  0  0
 23 29  1  0  0  0  0
 23 30  1  0  0  0  0
 42 44  1  0  0  0  0
 42 45  1  0  0  0  0
 42 46  1  0  0  0  0
 32 37  1  0  0  0  0
  8 13  1  0  0  0  0
 18 25  1  0  0  0  0
 21 26  1  0  0  0  0
 41 43  1  0  0  0  0
  7 12  1  0  0  0  0
 31 36  1  0  0  0  0
 17 24  1  0  0  0  0
 22 27  1  0  0  0  0
M  END
$$$$

  -OEChem-05262214473D

 46 45  0     1  0  0  0  0  0999 V2000
   -4.6700    2.7214    1.5150 C   0  0  0  0  0  0  0  0  0  0  0  0
   -5.4532    2.5715    0.5845 O   0  0  0  0  0  0  0  0  0  0  0  0
   -5.0996    3.4865    2.7226 C   0  0  0  0  0  0  0  0  0  0  0  0
   -4.8796    4.5629    2.6387 H   0  0  0  0  0  0  0  0  0  0  0  0
   -6.1861    3.4241    2.8954 H   0  0  0  0  0  0  0  0  0  0  0  0
   -4.6369    3.1693    3.6708 H   0  0  0  0  0  0  0  0  0  0  0  0
   -3.3731    2.2391    1.5790 N   0  0  0  0  0  0  0  0  0  0  0  0
   -2.7599    1.4751    0.5247 C   0  0  2  0  0  0  0  0  0  0  0  0
   -1.5143    0.8067    1.0915 C   0  0  0  0  0  0  0  0  0  0  0  0
   -0.9247    1.2213    2.0872 O   0  0  0  0  0  0  0  0  0  0  0  0
   -2.4106    2.3553   -0.6653 C   0  0  0  0  0  0  0  0  0  0  0  0
   -2.8254    2.4352    2.4150 H   0  0  0  0  0  0  0  0  0  0  0  0
   -3.4836    0.7082    0.2278 H   0  0  0  0  0  0  0  0  0  0  0  0
   -1.6866    3.1298   -0.3871 H   0  0  0  0  0  0  0  0  0  0  0  0
   -1.9704    1.7677   -1.4777 H   0  0  0  0  0  0  0  0  0  0  0  0
   -3.3030    2.8584   -1.0531 H   0  0  0  0  0  0  0  0  0  0  0  0
   -1.1107   -0.2839    0.3303 N   0  0  0  0  0  0  0  0  0  0  0  0
    0.0490   -1.0750    0.6539 C   0  0  2  0  0  0  0  0  0  0  0  0
    1.2824   -0.2637    0.2678 C   0  0  0  0  0  0  0  0  0  0  0  0
    1.9836   -0.5323   -0.7056 O   0  0  0  0  0  0  0  0  0  0  0  0
    0.0407   -2.4500   -0.0299 C   0  0  2  0  0  0  0  0  0  0  0  0
    0.0357   -2.3077   -1.4496 O   0  0  0  0  0  0  0  0  0  0  0  0
   -1.1766   -3.2800    0.3591 C   0  0  0  0  0  0  0  0  0  0  0  0
   -1.6733   -0.5660   -0.4691 H   0  0  0  0  0  0  0  0  0  0  0  0
    0.0455   -1.1994    1.7436 H   0  0  0  0  0  0  0  0  0  0  0  0
    0.9428   -3.0127    0.2371 H   0  0  0  0  0  0  0  0  0  0  0  0
    0.0810   -3.2041   -1.8156 H   0  0  0  0  0  0  0  0  0  0  0  0
   -2.1097   -2.7616    0.1130 H   0  0  0  0  0  0  0  0  0  0  0  0
   -1.1734   -3.5140    1.4280 H   0  0  0  0  0  0  0  0  0  0  0  0
   -1.1880   -4.2209   -0.2021 H   0  0  0  0  0  0  0  0  0  0  0  0
    1.5350    0.7637    1.1657 N   0  0  0  0  0  0  0  0  0  0  0  0
    2.6666    1.6511    1.0330 C   0  0  2  0  0  0  0  0  0  0  0  0
    2.3312    2.6844   -0.0344 C   0  0  0  0  0  0  0  0  0  0  0  0
    1.4835    2.4986   -0.9050 O   0  0  0  0  0  0  0  0  0  0  0  0
    3.9301    0.8862    0.6711 C   0  0  0  0  0  0  0  0  0  0  0  0
    0.8993    0.8968    1.9467 H   0  0  0  0  0  0  0  0  0  0  0  0
    2.7915    2.1510    1.9997 H   0  0  0  0  0  0  0  0  0  0  0  0
    3.8239    0.3785   -0.2946 H   0  0  0  0  0  0  0  0  0  0  0  0
    4.7929    1.5566    0.5989 H   0  0  0  0  0  0  0  0  0  0  0  0
    4.1533    0.1233    1.4248 H   0  0  0  0  0  0  0  0  0  0  0  0
    3.1203    3.8210    0.0734 N   0  0  0  0  0  0  0  0  0  0  0  0
    3.0023    4.9407   -0.8313 C   0  0  0  0  0  0  0  0  0  0  0  0
    3.7849    3.8973    0.8378 H   0  0  0  0  0  0  0  0  0  0  0  0
    3.7113    4.8168   -1.6631 H   0  0  0  0  0  0  0  0  0  0  0  0
    1.9770    4.9856   -1.2271 H   0  0  0  0  0  0  0  0  0  0  0  0
    3.2286    5.8726   -0.2925 H   0  0  0  0  0  0  0  0  0  0  0  0
  1  3  1  0  0  0  0
  1  7  1  0  0  0  0
  1  2  2  0  0  0  0
 32 33  1  0  0  0  0
 33 41  1  0  0  0  0
 33 34  2  0  0  0  0
  8  9  1  0  0  0  0
  9 17  1  0  0  0  0
  9 10  2  0  0  0  0
 18 19  1  0  0  0  0
 19 31  1  0  0  0  0
 19 20  2  0  0  0  0
 32 35  1  0  0  0  0
  8 11  1  0  0  0  0
 21 23  1  0  0  0  0
 41 42  1  0  0  0  0
 31 32  1  0  0  0  0
  7  8  1  0  0  0  0
 18 21  1  0  0  0  0
 17 18  1  0  0  0  0
 21 22  1  0  0  0  0
  3  4  1  0  0  0  0
  3  5  1  0  0  0  0
  3  6  1  0  0  0  0
 35 38  1  0  0  0  0
 35 39  1  0  0  0  0
 35 40  1  0  0  0  0
 11 14  1  0  0  0  0
 11 15  1  0  0  0  0
 11 16  1  0  0  0  0
 23 28  1  0  0  0  0
 23 29  1  0  0  0  0
 23 30  1  0  0  0  0
 42 44  1  0  0  0  0
 42 45  1  0  0  0  0
 42 46  1  0  0  0  0
 32 37  1  0  0  0  0
  8 13  1  0  0  0  0
 18 25  1  0  0  0  0
 21 26  1  0  0  0  0
 41 43  1  0  0  0  0
  7 12  1  0  0  0  0
 31 36  1  0  0  0  0
 17 24  1  0  0  0  0
 22 27  1  0  0  0  0
M  END
$$$$

  -OEChem-05262214473D

 46 45  0     1  0  0  0  0  0999 V2000
   -4.6700    2.7214    1.5150 C   0  0  0  0  0  0  0  0  0  0  0  0
   -5.4532    2.5715    0.5845 O   0  0  0  0  0  0  0  0  0  0  0  0
   -5.0996    3.4865    2.7226 C   0  0  0  0  0  0  0  0  0  0  0  0
   -4.8796    4.5629    2.6387 H   0  0  0  0  0  0  0  0  0  0  0  0
   -6.1861    3.4241    2.8954 H   0  0  0  0  0  0  0  0  0  0  0  0
   -4.6369    3.1693    3.6708 H   0  0  0  0  0  0  0  0  0  0  0  0
   -3.3731    2.2391    1.5790 N   0  0  0  0  0  0  0  0  0  0  0  0
   -2.7599    1.4751    0.5247 C   0  0  2  0  0  0  0  0  0  0  0  0
   -1.5143    0.8067    1.0915 C   0  0  0  0  0  0  0  0  0  0  0  0
   -0.9247    1.2213    2.0872 O   0  0  0  0  0  0  0  0  0  0  0  0
   -2.4106    2.3553   -0.6653 C   0  0  0  0  0  0  0  0  0  0  0  0
   -2.8254    2.4352    2.4150 H   0  0  0  0  0  0  0  0  0  0  0  0
   -3.4836    0.7082    0.2278 H   0  0  0  0  0  0  0  0  0  0  0  0
   -1.6866    3.1298   -0.3871 H   0  0  0  0  0  0  0  0  0  0  0  0
   -1.9704    1.7677   -1.4777 H   0  0  0  0  0  0  0  0  0  0  0  0
   -3.3030    2.8584   -1.0531 H   0  0  0  0  0  0  0  0  0  0  0  0
   -1.1107   -0.2839    0.3303 N   0  0  0  0  0  0  0  0  0  0  0  0
    0.0490   -1.0750    0.6539 C   0  0  2  0  0  0  0  0  0  0  0  0
    1.2824   -0.2637    0.2678 C   0  0  0  0  0  0  0  0  0  0  0  0
    1.8266   -0.3532   -0.8309 O   0  0  0  0  0  0  0  0  0  0  0  0
    0.0407   -2.4500   -0.0299 C   0  0  2  0  0  0  0  0  0  0  0  0
    0.0357   -2.3077   -1.4496 O   0  0  0  0  0  0  0  0  0  0  0  0
   -1.1766   -3.2800    0.3591 C   0  0  0  0  0  0  0  0  0  0  0  0
   -1.6733   -0.5660   -0.4691 H   0  0  0  0  0  0  0  0  0  0  0  0
    0.0455   -1.1994    1.7436 H   0  0  0  0  0  0  0  0  0  0  0  0
    0.9428   -3.0127    0.2371 H   0  0  0  0  0  0  0  0  0  0  0  0
    0.0810   -3.2041   -1.8156 H   0  0  0  0  0  0  0  0  0  0  0  0
   -2.1097   -2.7616    0.1130 H   0  0  0  0  0  0  0  0  0  0  0  0
   -1.1734   -3.5140    1.4280 H   0  0  0  0  0  0  0  0  0  0  0  0
   -1.1880   -4.2209   -0.2021 H   0  0  0  0  0  0  0  0  0  0  0  0
    1.7317    0.5338    1.3107 N   0  0  0  0  0  0  0  0  0  0  0  0
    2.9036    1.3703    1.2003 C   0  0  2  0  0  0  0  0  0  0  0  0
    2.5156    2.6236    0.4268 C   0  0  0  0  0  0  0  0  0  0  0  0
    1.5493    2.6716   -0.3315 O   0  0  0  0  0  0  0  0  0  0  0  0
    4.0437    0.6372    0.5107 C   0  0  0  0  0  0  0  0  0  0  0  0
    1.2161    0.5290    2.1860 H   0  0  0  0  0  0  0  0  0  0  0  0
    3.1934    1.6450    2.2203 H   0  0  0  0  0  0  0  0  0  0  0  0
    3.7719    0.3538   -0.5127 H   0  0  0  0  0  0  0  0  0  0  0  0
    4.9405    1.2629    0.4533 H   0  0  0  0  0  0  0  0  0  0  0  0
    4.3015   -0.2795    1.0520 H   0  0  0  0  0  0  0  0  0  0  0  0
    3.4005    3.6693    0.6497 N   0  0  0  0  0  0  0  0  0  0  0  0
    3.2555    4.9610    0.0200 C   0  0  0  0  0  0  0  0  0  0  0  0
    4.1632    3.5465    1.3092 H   0  0  0  0  0  0  0  0  0  0  0  0
    3.8375    4.9819   -0.9131 H   0  0  0  0  0  0  0  0  0  0  0  0
    2.1942    5.1416   -0.2058 H   0  0  0  0  0  0  0  0  0  0  0  0
    3.6241    5.7435    0.6996 H   0  0  0  0  0  0  0  0  0  0  0  0
  1  3  1  0  0  0  0
  1  7  1  0  0  0  0
  1  2  2  0  0  0  0
 32 33  1  0  0  0  0
 33 41  1  0  0  0  0
 33 34  2  0  0  0  0
  8  9  1  0  0  0  0
  9 17  1  0  0  0  0
  9 10  2  0  0  0  0
 18 19  1  0  0  0  0
 19 31  1  0  0  0  0
 19 20  2  0  0  0  0
 32 35  1  0  0  0  0
  8 11  1  0  0  0  0
 21 23  1  0  0  0  0
 41 42  1  0  0  0  0
 31 32  1  0  0  0  0
  7  8  1  0  0  0  0
 18 21  1  0  0  0  0
 17 18  1  0  0  0  0
 21 22  1  0  0  0  0
  3  4  1  0  0  0  0
  3  5  1  0  0  0  0
  3  6  1  0  0  0  0
 35 38  1  0  0  0  0
 35 39  1  0  0  0  0
 35 40  1  0  0  0  0
 11 14  1  0  0  0  0
 11 15  1  0  0  0  0
 11 16  1  0  0  0  0
 23 28  1  0  0  0  0
 23 29  1  0  0  0  0
 23 30  1  0  0  0  0
 42 44  1  0  0  0  0
 42 45  1  0  0  0  0
 42 46  1  0  0  0  0
 32 37  1  0  0  0  0
  8 13  1  0  0  0  0
 18 25  1  0  0  0  0
 21 26  1  0  0  0  0
 41 43  1  0  0  0  0
  7 12  1  0  0  0  0
 31 36  1  0  0  0  0
 17 24  1  0  0  0  0
 22 27  1  0  0  0  0
M  END
$$$$

  -OEChem-05262214473D

 46 45  0     1  0  0  0  0  0999 V2000
   -4.6700    2.7214    1.5150 C   0  0  0  0  0  0  0  0  0  0  0  0
   -5.4532    2.5715    0.5845 O   0  0  0  0  0  0  0  0  0  0  0  0
   -5.0996    3.4865    2.7226 C   0  0  0  0  0  0  0  0  0  0  0  0
   -4.8796    4.5629    2.6387 H   0  0  0  0  0  0  0  0  0  0  0  0
   -6.1861    3.4241    2.8954 H   0  0  0  0  0  0  0  0  0  0  0  0
   -4.6369    3.1693    3.6708 H   0  0  0  0  0  0  0  0  0  0  0  0
   -3.3731    2.2391    1.5790 N   0  0  0  0  0  0  0  0  0  0  0  0
   -2.7599    1.4751    0.5247 C   0  0  2  0  0  0  0  0  0  0  0  0
   -1.5143    0.8067    1.0915 C   0  0  0  0  0  0  0  0  0  0  0  0
   -0.9247    1.2213    2.0872 O   0  0  0  0  0  0  0  0  0  0  0  0
   -2.4106    2.3553   -0.6653 C   0  0  0  0  0  0  0  0  0  0  0  0
   -2.8254    2.4352    2.4150 H   0  0  0  0  0  0  0  0  0  0  0  0
   -3.4836    0.7082    0.2278 H   0  0  0  0  0  0  0  0  0  0  0  0
   -1.6866    3.1298   -0.3871 H   0  0  0  0  0  0  0  0  0  0  0  0
   -1.9704    1.7677   -1.4777 H   0  0  0  0  0  0  0  0  0  0  0  0
   -3.3030    2.8584   -1.0531 H   0  0  0  0  0  0  0  0  0  0  0  0
   -1.1107   -0.2839    0.3303 N   0  0  0  0  0  0  0  0  0  0  0  0
    0.0490   -1.0750    0.6539 C   0  0  2  0  0  0  0  0  0  0  0  0
    1.2824   -0.2637    0.2678 C   0  0  0  0  0  0  0  0  0  0  0  0
    1.6695   -0.1439   -0.8928 O   0  0  0  0  0  0  0  0  0  0  0  0
    0.0407   -2.4500   -0.0299 C   0  0  2  0  0  0  0  0  0  0  0  0
    0.0357   -2.3077   -1.4496 O   0  0  0  0  0  0  0  0  0  0  0  0
   -1.1766   -3.2800    0.3591 C   0  0  0  0  0  0  0  0  0  0  0  0
   -1.6733   -0.5660   -0.4691 H   0  0  0  0  0  0  0  0  0  0  0  0
    0.0455   -1.1994    1.7436 H   0  0  0  0  0  0  0  0  0  0  0  0
    0.9428   -3.0127    0.2371 H   0  0  0  0  0  0  0  0  0  0  0  0
    0.0810   -3.2041   -1.8156 H   0  0  0  0  0  0  0  0  0  0  0  0
   -2.1097   -2.7616    0.1130 H   0  0  0  0  0  0  0  0  0  0  0  0
   -1.1734   -3.5140    1.4280 H   0  0  0  0  0  0  0  0  0  0  0  0
   -1.1880   -4.2209   -0.2021 H   0  0  0  0  0  0  0  0  0  0  0  0
    1.9265    0.2685    1.3757 N   0  0  0  0  0  0  0  0  0  0  0  0
    3.1372    1.0486    1.2705 C   0  0  2  0  0  0  0  0  0  0  0  0
    2.7532    2.4563    0.8342 C   0  0  0  0  0  0  0  0  0  0  0  0
    1.7031    2.7144    0.2497 O   0  0  0  0  0  0  0  0  0  0  0  0
    4.1150    0.4228    0.2881 C   0  0  0  0  0  0  0  0  0  0  0  0
    1.5310    0.1029    2.2966 H   0  0  0  0  0  0  0  0  0  0  0  0
    3.5788    1.0838    2.2724 H   0  0  0  0  0  0  0  0  0  0  0  0
    3.6900    0.3790   -0.7213 H   0  0  0  0  0  0  0  0  0  0  0  0
    5.0439    0.9999    0.2308 H   0  0  0  0  0  0  0  0  0  0  0  0
    4.3670   -0.6003    0.5873 H   0  0  0  0  0  0  0  0  0  0  0  0
    3.7405    3.3838    1.1361 N   0  0  0  0  0  0  0  0  0  0  0  0
    3.6185    4.7859    0.8117 C   0  0  0  0  0  0  0  0  0  0  0  0
    4.5706    3.0842    1.6391 H   0  0  0  0  0  0  0  0  0  0  0  0
    4.0734    4.9763   -0.1715 H   0  0  0  0  0  0  0  0  0  0  0  0
    2.5547    5.0644    0.7835 H   0  0  0  0  0  0  0  0  0  0  0  0
    4.1342    5.3853    1.5764 H   0  0  0  0  0  0  0  0  0  0  0  0
  1  3  1  0  0  0  0
  1  7  1  0  0  0  0
  1  2  2  0  0  0  0
 32 33  1  0  0  0  0
 33 41  1  0  0  0  0
 33 34  2  0  0  0  0
  8  9  1  0  0  0  0
  9 17  1  0  0  0  0
  9 10  2  0  0  0  0
 18 19  1  0  0  0  0
 19 31  1  0  0  0  0
 19 20  2  0  0  0  0
 32 35  1  0  0  0  0
  8 11  1  0  0  0  0
 21 23  1  0  0  0  0
 41 42  1  0  0  0  0
 31 32  1  0  0  0  0
  7  8  1  0  0  0  0
 18 21  1  0  0  0  0
 17 18  1  0  0  0  0
 21 22  1  0  0  0  0
  3  4  1  0  0  0  0
  3  5  1  0  0  0  0
  3  6  1  0  0  0  0
 35 38  1  0  0  0  0
 35 39  1  0  0  0  0
 35 40  1  0  0  0  0
 11 14  1  0  0  0  0
 11 15  1  0  0  0  0
 11 16  1  0  0  0  0
 23 28  1  0  0  0  0
 23 29  1  0  0  0  0
 23 30  1  0  0  0  0
 42 44  1  0  0  0  0
 42 45  1  0  0  0  0
 42 46  1  0  0  0  0
 32 37  1  0  0  0  0
  8 13  1  0  0  0  0
 18 25  1  0  0  0  0
 21 26  1  0  0  0  0
 41 43  1  0  0  0  0
  7 12  1  0  0  0  0
 31 36  1  0  0  0  0
 17 24  1  0  0  0  0
 22 27  1  0  0  0  0
M  END
$$$$

  -OEChem-05262214473D

 46 45  0     1  0  0  0  0  0999 V2000
   -4.6700    2.7214    1.5150 C   0  0  0  0  0  0  0  0  0  0  0  0
   -5.4532    2.5715    0.5845 O   0  0  0  0  0  0  0  0  0  0  0  0
   -5.0996    3.4865    2.7226 C   0  0  0  0  0  0  0  0  0  0  0  0
   -4.8796    4.5629    2.6387 H   0  0  0  0  0  0  0  0  0  0  0  0
   -6.1861    3.4241    2.8954 H   0  0  0  0  0  0  0  0  0  0  0  0
   -4.6369    3.1693    3.6708 H   0  0  0  0  0  0  0  0  0  0  0  0
   -3.3731    2.2391    1.5790 N   0  0  0  0  0  0  0  0  0  0  0  0
   -2.7599    1.4751    0.5247 C   0  0  2  0  0  0  0  0  0  0  0  0
   -1.5143    0.8067    1.0915 C   0  0  0  0  0  0  0  0  0  0  0  0
   -0.9247    1.2213    2.0872 O   0  0  0  0  0  0  0  0  0  0  0  0
   -2.4106    2.3553   -0.6653 C   0  0  0  0  0  0  0  0  0  0  0  0
   -2.8254    2.4352    2.4150 H   0  0  0  0  0  0  0  0  0  0  0  0
   -3.4836    0.7082    0.2278 H   0  0  0  0  0  0  0  0  0  0  0  0
   -1.6866    3.1298   -0.3871 H   0  0  0  0  0  0  0  0  0  0  0  0
   -1.9704    1.7677   -1.4777 H   0  0  0  0  0  0  0  0  0  0  0  0
   -3.3030    2.8584   -1.0531 H   0  0  0  0  0  0  0  0  0  0  0  0
   -1.1107   -0.2839    0.3303 N   0  0  0  0  0  0  0  0  0  0  0  0
    0.0490   -1.0750    0.6539 C   0  0  2  0  0  0  0  0  0  0  0  0
    1.2824   -0.2637    0.2678 C   0  0  0  0  0  0  0  0  0  0  0  0
    1.5229    0.0817   -0.8873 O   0  0  0  0  0  0  0  0  0  0  0  0
    0.0407   -2.4500   -0.0299 C   0  0  2  0  0  0  0  0  0  0  0  0
    0.0357   -2.3077   -1.4496 O   0  0  0  0  0  0  0  0  0  0  0  0
   -1.1766   -3.2800    0.3591 C   0  0  0  0  0  0  0  0  0  0  0  0
   -1.6733   -0.5660   -0.4691 H   0  0  0  0  0  0  0  0  0  0  0  0
    0.0455   -1.1994    1.7436 H   0  0  0  0  0  0  0  0  0  0  0  0
    0.9428   -3.0127    0.2371 H   0  0  0  0  0  0  0  0  0  0  0  0
    0.0810   -3.2041   -1.8156 H   0  0  0  0  0  0  0  0  0  0  0  0
   -2.1097   -2.7616    0.1130 H   0  0  0  0  0  0  0  0  0  0  0  0
   -1.1734   -3.5140    1.4280 H   0  0  0  0  0  0  0  0  0  0  0  0
   -1.1880   -4.2209   -0.2021 H   0  0  0  0  0  0  0  0  0  0  0  0
    2.1063   -0.0141    1.3562 N   0  0  0  0  0  0  0  0  0  0  0  0
    3.3514    0.7078    1.2389 C   0  0  2  0  0  0  0  0  0  0  0  0
    3.0278    2.1940    1.1601 C   0  0  0  0  0  0  0  0  0  0  0  0
    1.9344    2.6241    0.7988 O   0  0  0  0  0  0  0  0  0  0  0  0
    4.1392    0.2577    0.0184 C   0  0  0  0  0  0  0  0  0  0  0  0
    1.8225   -0.3524    2.2710 H   0  0  0  0  0  0  0  0  0  0  0  0
    3.9216    0.5056    2.1521 H   0  0  0  0  0  0  0  0  0  0  0  0
    3.5839    0.4523   -0.9063 H   0  0  0  0  0  0  0  0  0  0  0  0
    5.0958    0.7857   -0.0532 H   0  0  0  0  0  0  0  0  0  0  0  0
    4.3454   -0.8172    0.0623 H   0  0  0  0  0  0  0  0  0  0  0  0
    4.1172    2.9840    1.4994 N   0  0  0  0  0  0  0  0  0  0  0  0
    4.0666    4.4274    1.4899 C   0  0  0  0  0  0  0  0  0  0  0  0
    4.9791    2.5420    1.8050 H   0  0  0  0  0  0  0  0  0  0  0  0
    4.4029    4.8002    0.5111 H   0  0  0  0  0  0  0  0  0  0  0  0
    3.0340    4.7592    1.6733 H   0  0  0  0  0  0  0  0  0  0  0  0
    4.7242    4.8224    2.2783 H   0  0  0  0  0  0  0  0  0  0  0  0
  1  3  1  0  0  0  0
  1  7  1  0  0  0  0
  1  2  2  0  0  0  0
 32 33  1  0  0  0  0
 33 41  1  0  0  0  0
 33 34  2  0  0  0  0
  8  9  1  0  0  0  0
  9 17  1  0  0  0  0
  9 10  2  0  0  0  0
 18 19  1  0  0  0  0
 19 31  1  0  0  0  0
 19 20  2  0  0  0  0
 32 35  1  0  0  0  0
  8 11  1  0  0  0  0
 21 23  1  0  0  0  0
 41 42  1  0  0  0  0
 31 32  1  0  0  0  0
  7  8  1  0  0  0  0
 18 21  1  0  0  0  0
 17 18  1  0  0  0  0
 21 22  1  0  0  0  0
  3  4  1  0  0  0  0
  3  5  1  0  0  0  0
  3  6  1  0  0  0  0
 35 38  1  0  0  0  0
 35 39  1  0  0  0  0
 35 40  1  0  0  0  0
 11 14  1  0  0  0  0
 11 15  1  0  0  0  0
 11 16  1  0  0  0  0
 23 28  1  0  0  0  0
 23 29  1  0  0  0  0
 23 30  1  0  0  0  0
 42 44  1  0  0  0  0
 42 45  1  0  0  0  0
 42 46  1  0  0  0  0
 32 37  1  0  0  0  0
  8 13  1  0  0  0  0
 18 25  1  0  0  0  0
 21 26  1  0  0  0  0
 41 43  1  0  0  0  0
  7 12  1  0  0  0  0
 31 36  1  0  0  0  0
 17 24  1  0  0  0  0
 22 27  1  0  0  0  0
M  END
$$$$

  -OEChem-05262214473D

 46 45  0     1  0  0  0  0  0999 V2000
   -4.6700    2.7214    1.5150 C   0  0  0  0  0  0  0  0  0  0  0  0
   -5.4532    2.5715    0.5845 O   0  0  0  0  0  0  0  0  0  0  0  0
   -5.0996    3.4865    2.7226 C   0  0  0  0  0  0  0  0  0  0  0  0
   -4.8796    4.5629    2.6387 H   0  0  0  0  0  0  0  0  0  0  0  0
   -6.1861    3.4241    2.8954 H   0  0  0  0  0  0  0  0  0  0  0  0
   -4.6369    3.1693    3.6708 H   0  0  0  0  0  0  0  0  0  0  0  0
   -3.3731    2.2391    1.5790 N   0  0  0  0  0  0  0  0  0  0  0  0
   -2.7599    1.4751    0.5247 C   0  0  2  0  0  0  0  0  0  0  0  0
   -1.5143    0.8067    1.0915 C   0  0  0  0  0  0  0  0  0  0  0  0
   -0.9247    1.2213    2.0872 O   0  0  0  0  0  0  0  0  0  0  0  0
   -2.4106    2.3553   -0.6653 C   0  0  0  0  0  0  0  0  0  0  0  0
   -2.8254    2.4352    2.4150 H   0  0  0  0  0  0  0  0  0  0  0  0
   -3.4836    0.7082    0.2278 H   0  0  0  0  0  0  0  0  0  0  0  0
   -1.6866    3.1298   -0.3871 H   0  0  0  0  0  0  0  0  0  0  0  0
   -1.9704    1.7677   -1.4777 H   0  0  0  0  0  0  0  0  0  0  0  0
   -3.3030    2.8584   -1.0531 H   0  0  0  0  0  0  0  0  0  0  0  0
   -1.1107   -0.2839    0.3303 N   0  0  0  0  0  0  0  0  0  0  0  0
    0.0490   -1.0750    0.6539 C   0  0  2  0  0  0  0  0  0  0  0  0
    1.2824   -0.2637    0.2678 C   0  0  0  0  0  0  0  0  0  0  0  0
    1.3968    0.3079   -0.8145 O   0  0  0  0  0  0  0  0  0  0  0  0
    0.0407   -2.4500   -0.0299 C   0  0  2  0  0  0  0  0  0  0  0  0
    0.0357   -2.3077   -1.4496 O   0  0  0  0  0  0  0  0  0  0  0  0
   -1.1766   -3.2800    0.3591 C   0  0  0  0  0  0  0  0  0  0  0  0
   -1.6733   -0.5660   -0.4691 H   0  0  0  0  0  0  0  0  0  0  0  0
    0.0455   -1.1994    1.7436 H   0  0  0  0  0  0  0  0  0  0  0  0
    0.9428   -3.0127    0.2371 H   0  0  0  0  0  0  0  0  0  0  0  0
    0.0810   -3.2041   -1.8156 H   0  0  0  0  0  0  0  0  0  0  0  0
   -2.1097   -2.7616    0.1130 H   0  0  0  0  0  0  0  0  0  0  0  0
   -1.1734   -3.5140    1.4280 H   0  0  0  0  0  0  0  0  0  0  0  0
   -1.1880   -4.2209   -0.2021 H   0  0  0  0  0  0  0  0  0  0  0  0
    2.2588   -0.2948    1.2534 N   0  0  0  0  0  0  0  0  0  0  0  0
    3.5317    0.3713    1.1076 C   0  0  2  0  0  0  0  0  0  0  0  0
    3.3207    1.8544    1.3822 C   0  0  0  0  0  0  0  0  0  0  0  0
    2.2275    2.4069    1.2785 O   0  0  0  0  0  0  0  0  0  0  0  0
    4.1147    0.1530   -0.2800 C   0  0  0  0  0  0  0  0  0  0  0  0
    2.0707   -0.8059    2.1109 H   0  0  0  0  0  0  0  0  0  0  0  0
    4.1982   -0.0503    1.8679 H   0  0  0  0  0  0  0  0  0  0  0  0
    3.4607    0.5688   -1.0551 H   0  0  0  0  0  0  0  0  0  0  0  0
    5.0930    0.6347   -0.3796 H   0  0  0  0  0  0  0  0  0  0  0  0
    4.2380   -0.9155   -0.4872 H   0  0  0  0  0  0  0  0  0  0  0  0
    4.5048    2.4972    1.7148 N   0  0  0  0  0  0  0  0  0  0  0  0
    4.5692    3.9099    2.0082 C   0  0  0  0  0  0  0  0  0  0  0  0
    5.3611    1.9569    1.7956 H   0  0  0  0  0  0  0  0  0  0  0  0
    4.8036    4.4657    1.0884 H   0  0  0  0  0  0  0  0  0  0  0  0
    3.5994    4.2469    2.4030 H   0  0  0  0  0  0  0  0  0  0  0  0
    5.3537    4.0933    2.7572 H   0  0  0  0  0  0  0  0  0  0  0  0
  1  3  1  0  0  0  0
  1  7  1  0  0  0  0
  1  2  2  0  0  0  0
 32 33  1  0  0  0  0
 33 41  1  0  0  0  0
 33 34  2  0  0  0  0
  8  9  1  0  0  0  0
  9 17  1  0  0  0  0
  9 10  2  0  0  0  0
 18 19  1  0  0  0  0
 19 31  1  0  0  0  0
 19 20  2  0  0  0  0
 32 35  1  0  0  0  0
  8 11  1  0  0  0  0
 21 23  1  0  0  0  0
 41 42  1  0  0  0  0
 31 32  1  0  0  0  0
  7  8  1  0  0  0  0
 18 21  1  0  0  0  0
 17 18  1  0  0  0  0
 21 22  1  0  0  0  0
  3  4  1  0  0  0  0
  3  5  1  0  0  0  0
  3  6  1  0  0  0  0
 35 38  1  0  0  0  0
 35 39  1  0  0  0  0
 35 40  1  0  0  0  0
 11 14  1  0  0  0  0
 11 15  1  0  0  0  0
 11 16  1  0  0  0  0
 23 28  1  0  0  0  0
 23 29  1  0  0  0  0
 23 30  1  0  0  0  0
 42 44  1  0  0  0  0
 42 45  1  0  0  0  0
 42 46  1  0  0  0  0
 32 37  1  0  0  0  0
  8 13  1  0  0  0  0
 18 25  1  0  0  0  0
 21 26  1  0  0  0  0
 41 43  1  0  0  0  0
  7 12  1  0  0  0  0
 31 36  1  0  0  0  0
 17 24  1  0  0  0  0
 22 27  1  0  0  0  0
M  END
$$$$

  -OEChem-05262214473D

 46 45  0     1  0  0  0  0  0999 V2000
   -4.6700    2.7214    1.5150 C   0  0  0  0  0  0  0  0  0  0  0  0
   -5.4532    2.5715    0.5845 O   0  0  0  0  0  0  0  0  0  0  0  0
   -5.0996    3.4865    2.7226 C   0  0  0  0  0  0  0  0  0  0  0  0
   -4.8796    4.5629    2.6387 H   0  0  0  0  0  0  0  0  0  0  0  0
   -6.1861    3.4241    2.8954 H   0  0  0  0  0  0  0  0  0  0  0  0
   -4.6369    3.1693    3.6708 H   0  0  0  0  0  0  0  0  0  0  0  0
   -3.3731    2.2391    1.5790 N   0  0  0  0  0  0  0  0  0  0  0  0
   -2.7599    1.4751    0.5247 C   0  0  2  0  0  0  0  0  0  0  0  0
   -1.5143    0.8067    1.0915 C   0  0  0  0  0  0  0  0  0  0  0  0
   -0.9247    1.2213    2.0872 O   0  0  0  0  0  0  0  0  0  0  0  0
   -2.4106    2.3553   -0.6653 C   0  0  0  0  0  0  0  0  0  0  0  0
   -2.8254    2.4352    2.4150 H   0  0  0  0  0  0  0  0  0  0  0  0
   -3.4836    0.7082    0.2278 H   0  0  0  0  0  0  0  0  0  0  0  0
   -1.6866    3.1298   -0.3871 H   0  0  0  0  0  0  0  0  0  0  0  0
   -1.9704    1.7677   -1.4777 H   0  0  0  0  0  0  0  0  0  0  0  0
   -3.3030    2.8584   -1.0531 H   0  0  0  0  0  0  0  0  0  0  0  0
   -1.1107   -0.2839    0.3303 N   0  0  0  0  0  0  0  0  0  0  0  0
    0.0490   -1.0750    0.6539 C   0  0  2  0  0  0  0  0  0  0  0  0
    1.2824   -0.2637    0.2678 C   0  0  0  0  0  0  0  0  0  0  0  0
    1.2999    0.5195   -0.6796 O   0  0  0  0  0  0  0  0  0  0  0  0
    0.0407   -2.4500   -0.0299 C   0  0  2  0  0  0  0  0  0  0  0  0
    0.0357   -2.3077   -1.4496 O   0  0  0  0  0  0  0  0  0  0  0  0
   -1.1766   -3.2800    0.3591 C   0  0  0  0  0  0  0  0  0  0  0  0
   -1.6733   -0.5660   -0.4691 H   0  0  0  0  0  0  0  0  0  0  0  0
    0.0455   -1.1994    1.7436 H   0  0  0  0  0  0  0  0  0  0  0  0
    0.9428   -3.0127    0.2371 H   0  0  0  0  0  0  0  0  0  0  0  0
    0.0810   -3.2041   -1.8156 H   0  0  0  0  0  0  0  0  0  0  0  0
   -2.1097   -2.7616    0.1130 H   0  0  0  0  0  0  0  0  0  0  0  0
   -1.1734   -3.5140    1.4280 H   0  0  0  0  0  0  0  0  0  0  0  0
   -1.1880   -4.2209   -0.2021 H   0  0  0  0  0  0  0  0  0  0  0  0
    2.3735   -0.5544    1.0745 N   0  0  0  0  0  0  0  0  0  0  0  0
    3.6657    0.0619    0.8855 C   0  0  2  0  0  0  0  0  0  0  0  0
    3.6119    1.4607    1.4854 C   0  0  0  0  0  0  0  0  0  0  0  0
    2.5623    2.0775    1.6561 O   0  0  0  0  0  0  0  0  0  0  0  0
    4.0430    0.1159   -0.5867 C   0  0  0  0  0  0  0  0  0  0  0  0
    2.2587   -1.2268    1.8272 H   0  0  0  0  0  0  0  0  0  0  0  0
    4.3899   -0.5458    1.4390 H   0  0  0  0  0  0  0  0  0  0  0  0
    3.3288    0.7205   -1.1575 H   0  0  0  0  0  0  0  0  0  0  0  0
    5.0354    0.5574   -0.7260 H   0  0  0  0  0  0  0  0  0  0  0  0
    4.0522   -0.8884   -1.0238 H   0  0  0  0  0  0  0  0  0  0  0  0
    4.8770    1.9566    1.7677 N   0  0  0  0  0  0  0  0  0  0  0  0
    5.0922    3.2687    2.3315 C   0  0  0  0  0  0  0  0  0  0  0  0
    5.6905    1.3686    1.6116 H   0  0  0  0  0  0  0  0  0  0  0  0
    5.2482    3.9957    1.5208 H   0  0  0  0  0  0  0  0  0  0  0  0
    4.2124    3.5623    2.9229 H   0  0  0  0  0  0  0  0  0  0  0  0
    5.9800    3.2476    2.9808 H   0  0  0  0  0  0  0  0  0  0  0  0
  1  3  1  0  0  0  0
  1  7  1  0  0  0  0
  1  2  2  0  0  0  0
 32 33  1  0  0  0  0
 33 41  1  0  0  0  0
 33 34  2  0  0  0  0
  8  9  1  0  0  0  0
  9 17  1  0  0  0  0
  9 10  2  0  0  0  0
 18 19  1  0  0  0  0
 19 31  1  0  0  0  0
 19 20  2  0  0  0  0
 32 35  1  0  0  0  0
  8 11  1  0  0  0  0
 21 23  1  0  0  0  0
 41 42  1  0  0  0  0
 31 32  1  0  0  0  0
  7  8  1  0  0  0  0
 18 21  1  0  0  0  0
 17 18  1  0  0  0  0
 21 22  1  0  0  0  0
  3  4  1  0  0  0  0
  3  5  1  0  0  0  0
  3  6  1  0  0  0  0
 35 38  1  0  0  0  0
 35 39  1  0  0  0  0
 35 40  1  0  0  0  0
 11 14  1  0  0  0  0
 11 15  1  0  0  0  0
 11 16  1  0  0  0  0
 23 28  1  0  0  0  0
 23 29  1  0  0  0  0
 23 30  1  0  0  0  0
 42 44  1  0  0  0  0
 42 45  1  0  0  0  0
 42 46  1  0  0  0  0
 32 37  1  0  0  0  0
  8 13  1  0  0  0  0
 18 25  1  0  0  0  0
 21 26  1  0  0  0  0
 41 43  1  0  0  0  0
  7 12  1  0  0  0  0
 31 36  1  0  0  0  0
 17 24  1  0  0  0  0
 22 27  1  0  0  0  0
M  END
$$$$

  -OEChem-05262214473D

 46 45  0     1  0  0  0  0  0999 V2000
   -4.6700    2.7214    1.5150 C   0  0  0  0  0  0  0  0  0  0  0  0
   -5.4532    2.5715    0.5845 O   0  0  0  0  0  0  0  0  0  0  0  0
   -5.0996    3.4865    2.7226 C   0  0  0  0  0  0  0  0  0  0  0  0
   -4.8796    4.5629    2.6387 H   0  0  0  0  0  0  0  0  0  0  0  0
   -6.1861    3.4241    2.8954 H   0  0  0  0  0  0  0  0  0  0  0  0
   -4.6369    3.1693    3.6708 H   0  0  0  0  0  0  0  0  0  0  0  0
   -3.3731    2.2391    1.5790 N   0  0  0  0  0  0  0  0  0  0  0  0
   -2.7599    1.4751    0.5247 C   0  0  2  0  0  0  0  0  0  0  0  0
   -1.5143    0.8067    1.0915 C   0  0  0  0  0  0  0  0  0  0  0  0
   -0.9247    1.2213    2.0872 O   0  0  0  0  0  0  0  0  0  0  0  0
   -2.4106    2.3553   -0.6653 C   0  0  0  0  0  0  0  0  0  0  0  0
   -2.8254    2.4352    2.4150 H   0  0  0  0  0  0  0  0  0  0  0  0
   -3.4836    0.7082    0.2278 H   0  0  0  0  0  0  0  0  0  0  0  0
   -1.6866    3.1298   -0.3871 H   0  0  0  0  0  0  0  0  0  0  0  0
   -1.9704    1.7677   -1.4777 H   0  0  0  0  0  0  0  0  0  0  0  0
   -3.3030    2.8584   -1.0531 H   0  0  0  0  0  0  0  0  0  0  0  0
   -1.1107   -0.2839    0.3303 N   0  0  0  0  0  0  0  0  0  0  0  0
    0.0490   -1.0750    0.6539 C   0  0  2  0  0  0  0  0  0  0  0  0
    1.2824   -0.2637    0.2678 C   0  0  0  0  0  0  0  0  0  0  0  0
    1.2387    0.7020   -0.4916 O   0  0  0  0  0  0  0  0  0  0  0  0
    0.0407   -2.4500   -0.0299 C   0  0  2  0  0  0  0  0  0  0  0  0
    0.0357   -2.3077   -1.4496 O   0  0  0  0  0  0  0  0  0  0  0  0
   -1.1766   -3.2800    0.3591 C   0  0  0  0  0  0  0  0  0  0  0  0
   -1.6733   -0.5660   -0.4691 H   0  0  0  0  0  0  0  0  0  0  0  0
    0.0455   -1.1994    1.7436 H   0  0  0  0  0  0  0  0  0  0  0  0
    0.9428   -3.0127    0.2371 H   0  0  0  0  0  0  0  0  0  0  0  0
    0.0810   -3.2041   -1.8156 H   0  0  0  0  0  0  0  0  0  0  0  0
   -2.1097   -2.7616    0.1130 H   0  0  0  0  0  0  0  0  0  0  0  0
   -1.1734   -3.5140    1.4280 H   0  0  0  0  0  0  0  0  0  0  0  0
   -1.1880   -4.2209   -0.2021 H   0  0  0  0  0  0  0  0  0  0  0  0
    2.4427   -0.7752    0.8315 N   0  0  0  0  0  0  0  0  0  0  0  0
    3.7444   -0.1993    0.5879 C   0  0  2  0  0  0  0  0  0  0  0  0
    3.8816    1.0398    1.4626 C   0  0  0  0  0  0  0  0  0  0  0  0
    2.9162    1.6584    1.9058 O   0  0  0  0  0  0  0  0  0  0  0  0
    3.9292    0.1489   -0.8809 C   0  0  0  0  0  0  0  0  0  0  0  0
    2.3737   -1.5862    1.4392 H   0  0  0  0  0  0  0  0  0  0  0  0
    4.4836   -0.9473    0.8947 H   0  0  0  0  0  0  0  0  0  0  0  0
    3.1973    0.8971   -1.2065 H   0  0  0  0  0  0  0  0  0  0  0  0
    4.9270    0.5590   -1.0689 H   0  0  0  0  0  0  0  0  0  0  0  0
    3.8007   -0.7379   -1.5108 H   0  0  0  0  0  0  0  0  0  0  0  0
    5.2084    1.3989    1.6545 N   0  0  0  0  0  0  0  0  0  0  0  0
    5.5999    2.5475    2.4377 C   0  0  0  0  0  0  0  0  0  0  0  0
    5.9447    0.8172    1.2655 H   0  0  0  0  0  0  0  0  0  0  0  0
    5.7064    3.4220    1.7791 H   0  0  0  0  0  0  0  0  0  0  0  0
    4.8312    2.7522    3.1975 H   0  0  0  0  0  0  0  0  0  0  0  0
    6.5602    2.3429    2.9336 H   0  0  0  0  0  0  0  0  0  0  0  0
  1  3  1  0  0  0  0
  1  7  1  0  0  0  0
  1  2  2  0  0  0  0
 32 33  1  0  0  0  0
 33 41  1  0  0  0  0
 33 34  2  0  0  0  0
  8  9  1  0  0  0  0
  9 17  1  0  0  0  0
  9 10  2  0  0  0  0
 18 19  1  0  0  0  0
 19 31  1  0  0  0  0
 19 20  2  0  0  0  0
 32 35  1  0  0  0  0
  8 11  1  0  0  0  0
 21 23  1  0  0  0  0
 41 42  1  0  0  0  0
 31 32  1  0  0  0  0
  7  8  1  0  0  0  0
 18 21  1  0  0  0  0
 17 18  1  0  0  0  0
 21 22  1  0  0  0  0
  3  4  1  0  0  0  0
  3  5  1  0  0  0  0
  3  6  1  0  0  0  0
 35 38  1  0  0  0  0
 35 39  1  0  0  0  0
 35 40  1  0  0  0  0
 11 14  1  0  0  0  0
 11 15  1  0  0  0  0
 11 16  1  0  0  0  0
 23 28  1  0  0  0  0
 23 29  1  0  0  0  0
 23 30  1  0  0  0  0
 42 44  1  0  0  0  0
 42 45  1  0  0  0  0
 42 46  1  0  0  0  0
 32 37  1  0  0  0  0
  8 13  1  0  0  0  0
 18 25  1  0  0  0  0
 21 26  1  0  0  0  0
 41 43  1  0  0  0  0
  7 12  1  0  0  0  0
 31 36  1  0  0  0  0
 17 24  1  0  0  0  0
 22 27  1  0  0  0  0
M  END
$$$$

  -OEChem-05262214473D

 46 45  0     1  0  0  0  0  0999 V2000
   -4.6700    2.7214    1.5150 C   0  0  0  0  0  0  0  0  0  0  0  0
   -5.4532    2.5715    0.5845 O   0  0  0  0  0  0  0  0  0  0  0  0
   -5.0996    3.4865    2.7226 C   0  0  0  0  0  0  0  0  0  0  0  0
   -4.8796    4.5629    2.6387 H   0  0  0  0  0  0  0  0  0  0  0  0
   -6.1861    3.4241    2.8954 H   0  0  0  0  0  0  0  0  0  0  0  0
   -4.6369    3.1693    3.6708 H   0  0  0  0  0  0  0  0  0  0  0  0
   -3.3731    2.2391    1.5790 N   0  0  0  0  0  0  0  0  0  0  0  0
   -2.7599    1.4751    0.5247 C   0  0  2  0  0  0  0  0  0  0  0  0
   -1.5143    0.8067    1.0915 C   0  0  0  0  0  0  0  0  0  0  0  0
   -0.9247    1.2213    2.0872 O   0  0  0  0  0  0  0  0  0  0  0  0
   -2.4106    2.3553   -0.6653 C   0  0  0  0  0  0  0  0  0  0  0  0
   -2.8254    2.4352    2.4150 H   0  0  0  0  0  0  0  0  0  0  0  0
   -3.4836    0.7082    0.2278 H   0  0  0  0  0  0  0  0  0  0  0  0
   -1.6866    3.1298   -0.3871 H   0  0  0  0  0  0  0  0  0  0  0  0
   -1.9704    1.7677   -1.4777 H   0  0  0  0  0  0  0  0  0  0  0  0
   -3.3030    2.8584   -1.0531 H   0  0  0  0  0  0  0  0  0  0  0  0
   -1.1107   -0.2839    0.3303 N   0  0  0  0  0  0  0  0  0  0  0  0
    0.0490   -1.0750    0.6539 C   0  0  2  0  0  0  0  0  0  0  0  0
    1.2607   -0.1479    0.6288 C   0  0  0  0  0  0  0  0  0  0  0  0
    1.1877    1.0426    0.3310 O   0  0  0  0  0  0  0  0  0  0  0  0
    0.2344   -2.2723   -0.2897 C   0  0  2  0  0  0  0  0  0  0  0  0
    0.4121   -1.8318   -1.6351 O   0  0  0  0  0  0  0  0  0  0  0  0
   -0.9605   -3.2177   -0.2632 C   0  0  0  0  0  0  0  0  0  0  0  0
   -1.6733   -0.5660   -0.4691 H   0  0  0  0  0  0  0  0  0  0  0  0
   -0.0935   -1.4282    1.6825 H   0  0  0  0  0  0  0  0  0  0  0  0
    1.1305   -2.8395   -0.0124 H   0  0  0  0  0  0  0  0  0  0  0  0
    0.5722   -2.6272   -2.1655 H   0  0  0  0  0  0  0  0  0  0  0  0
   -1.8868   -2.6995   -0.5340 H   0  0  0  0  0  0  0  0  0  0  0  0
   -1.0855   -3.6731    0.7238 H   0  0  0  0  0  0  0  0  0  0  0  0
   -0.8265   -4.0174   -1.0000 H   0  0  0  0  0  0  0  0  0  0  0  0
    2.4383   -0.8175    0.9297 N   0  0  0  0  0  0  0  0  0  0  0  0
    3.7249   -0.1617    0.9380 C   0  0  2  0  0  0  0  0  0  0  0  0
    3.8487    0.6144    2.2425 C   0  0  0  0  0  0  0  0  0  0  0  0
    2.8769    0.9746    2.9036 O   0  0  0  0  0  0  0  0  0  0  0  0
    3.8835    0.7608   -0.2605 C   0  0  0  0  0  0  0  0  0  0  0  0
    2.3936   -1.8075    1.1527 H   0  0  0  0  0  0  0  0  0  0  0  0
    4.4829   -0.9521    0.9092 H   0  0  0  0  0  0  0  0  0  0  0  0
    3.1325    1.5592   -0.2489 H   0  0  0  0  0  0  0  0  0  0  0  0
    4.8703    1.2354   -0.2681 H   0  0  0  0  0  0  0  0  0  0  0  0
    3.7645    0.2063   -1.1976 H   0  0  0  0  0  0  0  0  0  0  0  0
    5.1704    0.8949    2.5595 N   0  0  0  0  0  0  0  0  0  0  0  0
    5.5490    1.6318    3.7426 C   0  0  0  0  0  0  0  0  0  0  0  0
    5.9131    0.5407    1.9639 H   0  0  0  0  0  0  0  0  0  0  0  0
    5.6293    2.7014    3.4989 H   0  0  0  0  0  0  0  0  0  0  0  0
    4.7864    1.4898    4.5225 H   0  0  0  0  0  0  0  0  0  0  0  0
    6.5197    1.2652    4.1078 H   0  0  0  0  0  0  0  0  0  0  0  0
  1  3  1  0  0  0  0
  1  7  1  0  0  0  0
  1  2  2  0  0  0  0
 32 33  1  0  0  0  0
 33 41  1  0  0  0  0
 33 34  2  0  0  0  0
  8  9  1  0  0  0  0
  9 17  1  0  0  0  0
  9 10  2  0  0  0  0
 18 19  1  0  0  0  0
 19 31  1  0  0  0  0
 19 20  2  0  0  0  0
 32 35  1  0  0  0  0
  8 11  1  0  0  0  0
 21 23  1  0  0  0  0
 41 42  1  0  0  0  0
 31 32  1  0  0  0  0
  7  8  1  0  0  0  0
 18 21  1  0  0  0  0
 17 18  1  0  0  0  0
 21 22  1  0  0  0  0
  3  4  1  0  0  0  0
  3  5  1  0  0  0  0
  3  6  1  0  0  0  0
 35 38  1  0  0  0  0
 35 39  1  0  0  0  0
 35 40  1  0  0  0  0
 11 14  1  0  0  0  0
 11 15  1  0  0  0  0
 11 16  1  0  0  0  0
 23 28  1  0  0  0  0
 23 29  1  0  0  0  0
 23 30  1  0  0  0  0
 42 44  1  0  0  0  0
 42 45  1  0  0  0  0
 42 46  1  0  0  0  0
 32 37  1  0  0  0  0
  8 13  1  0  0  0  0
 18 25  1  0  0  0  0
 21 26  1  0  0  0  0
 41 43  1  0  0  0  0
  7 12  1  0  0  0  0
 31 36  1  0  0  0  0
 17 24  1  0  0  0  0
 22 27  1  0  0  0  0
M  END
$$$$

  -OEChem-05262214473D

 46 45  0     1  0  0  0  0  0999 V2000
   -4.6700    2.7214    1.5150 C   0  0  0  0  0  0  0  0  0  0  0  0
   -5.4532    2.5715    0.5845 O   0  0  0  0  0  0  0  0  0  0  0  0
   -5.0996    3.4865    2.7226 C   0  0  0  0  0  0  0  0  0  0  0  0
   -4.8796    4.5629    2.6387 H   0  0  0  0  0  0  0  0  0  0  0  0
   -6.1861    3.4241    2.8954 H   0  0  0  0  0  0  0  0  0  0  0  0
   -4.6369    3.1693    3.6708 H   0  0  0  0  0  0  0  0  0  0  0  0
   -3.3731    2.2391    1.5790 N   0  0  0  0  0  0  0  0  0  0  0  0
   -2.7599    1.4751    0.5247 C   0  0  2  0  0  0  0  0  0  0  0  0
   -1.5143    0.8067    1.0915 C   0  0  0  0  0  0  0  0  0  0  0  0
   -0.9247    1.2213    2.0872 O   0  0  0  0  0  0  0  0  0  0  0  0
   -2.4106    2.3553   -0.6653 C   0  0  0  0  0  0  0  0  0  0  0  0
   -2.8254    2.4352    2.4150 H   0  0  0  0  0  0  0  0  0  0  0  0
   -3.4836    0.7082    0.2278 H   0  0  0  0  0  0  0  0  0  0  0  0
   -1.6866    3.1298   -0.3871 H   0  0  0  0  0  0  0  0  0  0  0  0
   -1.9704    1.7677   -1.4777 H   0  0  0  0  0  0  0  0  0  0  0  0
   -3.3030    2.8584   -1.0531 H   0  0  0  0  0  0  0  0  0  0  0  0
   -1.1107   -0.2839    0.3303 N   0  0  0  0  0  0  0  0  0  0  0  0
    0.0490   -1.0750    0.6539 C   0  0  2  0  0  0  0  0  0  0  0  0
    1.2607   -0.1479    0.6288 C   0  0  0  0  0  0  0  0  0  0  0  0
    1.1666    1.0775    0.5969 O   0  0  0  0  0  0  0  0  0  0  0  0
    0.2344   -2.2723   -0.2897 C   0  0  2  0  0  0  0  0  0  0  0  0
    0.4121   -1.8318   -1.6351 O   0  0  0  0  0  0  0  0  0  0  0  0
   -0.9605   -3.2177   -0.2632 C   0  0  0  0  0  0  0  0  0  0  0  0
   -1.6733   -0.5660   -0.4691 H   0  0  0  0  0  0  0  0  0  0  0  0
   -0.0935   -1.4282    1.6825 H   0  0  0  0  0  0  0  0  0  0  0  0
    1.1305   -2.8395   -0.0124 H   0  0  0  0  0  0  0  0  0  0  0  0
    0.5722   -2.6272   -2.1655 H   0  0  0  0  0  0  0  0  0  0  0  0
   -1.8868   -2.6995   -0.5340 H   0  0  0  0  0  0  0  0  0  0  0  0
   -1.0855   -3.6731    0.7238 H   0  0  0  0  0  0  0  0  0  0  0  0
   -0.8265   -4.0174   -1.0000 H   0  0  0  0  0  0  0  0  0  0  0  0
    2.4568   -0.8507    0.5963 N   0  0  0  0  0  0  0  0  0  0  0  0
    3.7421   -0.1951    0.5360 C   0  0  2  0  0  0  0  0  0  0  0  0
    4.0850    0.2973    1.9358 C   0  0  0  0  0  0  0  0  0  0  0  0
    3.2365    0.5019    2.8015 O   0  0  0  0  0  0  0  0  0  0  0  0
    3.7298    0.9563   -0.4574 C   0  0  0  0  0  0  0  0  0  0  0  0
    2.4271   -1.8659    0.6157 H   0  0  0  0  0  0  0  0  0  0  0  0
    4.4697   -0.9533    0.2265 H   0  0  0  0  0  0  0  0  0  0  0  0
    3.0067    1.7260   -0.1639 H   0  0  0  0  0  0  0  0  0  0  0  0
    4.7128    1.4342   -0.5229 H   0  0  0  0  0  0  0  0  0  0  0  0
    3.4539    0.6052   -1.4576 H   0  0  0  0  0  0  0  0  0  0  0  0
    5.4456    0.5226    2.0911 N   0  0  0  0  0  0  0  0  0  0  0  0
    6.0201    1.0048    3.3254 C   0  0  0  0  0  0  0  0  0  0  0  0
    6.0782    0.3077    1.3260 H   0  0  0  0  0  0  0  0  0  0  0  0
    6.0834    2.1026    3.2968 H   0  0  0  0  0  0  0  0  0  0  0  0
    5.3865    0.6960    4.1699 H   0  0  0  0  0  0  0  0  0  0  0  0
    7.0283    0.5827    3.4499 H   0  0  0  0  0  0  0  0  0  0  0  0
  1  3  1  0  0  0  0
  1  7  1  0  0  0  0
  1  2  2  0  0  0  0
 32 33  1  0  0  0  0
 33 41  1  0  0  0  0
 33 34  2  0  0  0  0
  8  9  1  0  0  0  0
  9 17  1  0  0  0  0
  9 10  2  0  0  0  0
 18 19  1  0  0  0  0
 19 31  1  0  0  0  0
 19 20  2  0  0  0  0
 32 35  1  0  0  0  0
  8 11  1  0  0  0  0
 21 23  1  0  0  0  0
 41 42  1  0  0  0  0
 31 32  1  0  0  0  0
  7  8  1  0  0  0  0
 18 21  1  0  0  0  0
 17 18  1  0  0  0  0
 21 22  1  0  0  0  0
  3  4  1  0  0  0  0
  3  5  1  0  0  0  0
  3  6  1  0  0  0  0
 35 38  1  0  0  0  0
 35 39  1  0  0  0  0
 35 40  1  0  0  0  0
 11 14  1  0  0  0  0
 11 15  1  0  0  0  0
 11 16  1  0  0  0  0
 23 28  1  0  0  0  0
 23 29  1  0  0  0  0
 23 30  1  0  0  0  0
 42 44  1  0  0  0  0
 42 45  1  0  0  0  0
 42 46  1  0  0  0  0
 32 37  1  0  0  0  0
  8 13  1  0  0  0  0
 18 25  1  0  0  0  0
 21 26  1  0  0  0  0
 41 43  1  0  0  0  0
  7 12  1  0  0  0  0
 31 36  1  0  0  0  0
 17 24  1  0  0  0  0
 22 27  1  0  0  0  0
M  END
$$$$

  -OEChem-05262214473D

 46 45  0     1  0  0  0  0  0999 V2000
   -4.6700    2.7214    1.5150 C   0  0  0  0  0  0  0  0  0  0  0  0
   -5.4532    2.5715    0.5845 O   0  0  0  0  0  0  0  0  0  0  0  0
   -5.0996    3.4865    2.7226 C   0  0  0  0  0  0  0  0  0  0  0  0
   -4.8796    4.5629    2.6387 H   0  0  0  0  0  0  0  0  0  0  0  0
   -6.1861    3.4241    2.8954 H   0  0  0  0  0  0  0  0  0  0  0  0
   -4.6369    3.1693    3.6708 H   0  0  0  0  0  0  0  0  0  0  0  0
   -3.3731    2.2391    1.5790 N   0  0  0  0  0  0  0  0  0  0  0  0
   -2.7599    1.4751    0.5247 C   0  0  2  0  0  0  0  0  0  0  0  0
   -1.5143    0.8067    1.0915 C   0  0  0  0  0  0  0  0  0  0  0  0
   -0.9247    1.2213    2.0872 O   0  0  0  0  0  0  0  0  0  0  0  0
   -2.4106    2.3553   -0.6653 C   0  0  0  0  0  0  0  0  0  0  0  0
   -2.8254    2.4352    2.4150 H   0  0  0  0  0  0  0  0  0  0  0  0
   -3.4836    0.7082    0.2278 H   0  0  0  0  0  0  0  0  0  0  0  0
   -1.6866    3.1298   -0.3871 H   0  0  0  0  0  0  0  0  0  0  0  0
   -1.9704    1.7677   -1.4777 H   0  0  0  0  0  0  0  0  0  0  0  0
   -3.3030    2.8584   -1.0531 H   0  0  0  0  0  0  0  0  0  0  0  0
   -1.1107   -0.2839    0.3303 N   0  0  0  0  0  0  0  0  0  0  0  0
    0.0490   -1.0750    0.6539 C   0  0  2  0  0  0  0  0  0  0  0  0
    1.2607   -0.1479    0.6288 C   0  0  0  0  0  0  0  0  0  0  0  0
    1.1881    1.0565    0.8642 O   0  0  0  0  0  0  0  0  0  0  0  0
    0.2344   -2.2723   -0.2897 C   0  0  2  0  0  0  0  0  0  0  0  0
    0.4121   -1.8318   -1.6351 O   0  0  0  0  0  0  0  0  0  0  0  0
   -0.9605   -3.2177   -0.2632 C   0  0  0  0  0  0  0  0  0  0  0  0
   -1.6733   -0.5660   -0.4691 H   0  0  0  0  0  0  0  0  0  0  0  0
   -0.0935   -1.4282    1.6825 H   0  0  0  0  0  0  0  0  0  0  0  0
    1.1305   -2.8395   -0.0124 H   0  0  0  0  0  0  0  0  0  0  0  0
    0.5722   -2.6272   -2.1655 H   0  0  0  0  0  0  0  0  0  0  0  0
   -1.8868   -2.6995   -0.5340 H   0  0  0  0  0  0  0  0  0  0  0  0
   -1.0855   -3.6731    0.7238 H   0  0  0  0  0  0  0  0  0  0  0  0
   -0.8265   -4.0174   -1.0000 H   0  0  0  0  0  0  0  0  0  0  0  0
    2.4221   -0.8143    0.2646 N   0  0  0  0  0  0  0  0  0  0  0  0
    3.6953   -0.1447    0.1382 C   0  0  2  0  0  0  0  0  0  0  0  0
    4.2636    0.0531    1.5373 C   0  0  0  0  0  0  0  0  0  0  0  0
    3.5658    0.0647    2.5492 O   0  0  0  0  0  0  0  0  0  0  0  0
    3.5513    1.1863   -0.5832 C   0  0  0  0  0  0  0  0  0  0  0  0
    2.3748   -1.8120    0.0797 H   0  0  0  0  0  0  0  0  0  0  0  0
    4.3495   -0.8140   -0.4311 H   0  0  0  0  0  0  0  0  0  0  0  0
    2.8992    1.8702   -0.0278 H   0  0  0  0  0  0  0  0  0  0  0  0
    4.5215    1.6794   -0.7035 H   0  0  0  0  0  0  0  0  0  0  0  0
    3.1148    1.0452   -1.5779 H   0  0  0  0  0  0  0  0  0  0  0  0
    5.6361    0.2582    1.5189 N   0  0  0  0  0  0  0  0  0  0  0  0
    6.4069    0.4828    2.7194 C   0  0  0  0  0  0  0  0  0  0  0  0
    6.1363    0.2131    0.6360 H   0  0  0  0  0  0  0  0  0  0  0  0
    6.4876    1.5637    2.9071 H   0  0  0  0  0  0  0  0  0  0  0  0
    5.9073   -0.0009    3.5717 H   0  0  0  0  0  0  0  0  0  0  0  0
    7.4132    0.0565    2.5941 H   0  0  0  0  0  0  0  0  0  0  0  0
  1  3  1  0  0  0  0
  1  7  1  0  0  0  0
  1  2  2  0  0  0  0
 32 33  1  0  0  0  0
 33 41  1  0  0  0  0
 33 34  2  0  0  0  0
  8  9  1  0  0  0  0
  9 17  1  0  0  0  0
  9 10  2  0  0  0  0
 18 19  1  0  0  0  0
 19 31  1  0  0  0  0
 19 20  2  0  0  0  0
 32 35  1  0  0  0  0
  8 11  1  0  0  0  0
 21 23  1  0  0  0  0
 41 42  1  0  0  0  0
 31 32  1  0  0  0  0
  7  8  1  0  0  0  0
 18 21  1  0  0  0  0
 17 18  1  0  0  0  0
 21 22  1  0  0  0  0
  3  4  1  0  0  0  0
  3  5  1  0  0  0  0
  3  6  1  0  0  0  0
 35 38  1  0  0  0  0
 35 39  1  0  0  0  0
 35 40  1  0  0  0  0
 11 14  1  0  0  0  0
 11 15  1  0  0  0  0
 11 16  1  0  0  0  0
 23 28  1  0  0  0  0
 23 29  1  0  0  0  0
 23 30  1  0  0  0  0
 42 44  1  0  0  0  0
 42 45  1  0  0  0  0
 42 46  1  0  0  0  0
 32 37  1  0  0  0  0
  8 13  1  0  0  0  0
 18 25  1  0  0  0  0
 21 26  1  0  0  0  0
 41 43  1  0  0  0  0
  7 12  1  0  0  0  0
 31 36  1  0  0  0  0
 17 24  1  0  0  0  0
 22 27  1  0  0  0  0
M  END
$$$$

  -OEChem-05262214473D

 46 45  0     1  0  0  0  0  0999 V2000
   -4.6700    2.7214    1.5150 C   0  0  0  0  0  0  0  0  0  0  0  0
   -5.4532    2.5715    0.5845 O   0  0  0  0  0  0  0  0  0  0  0  0
   -5.0996    3.4865    2.7226 C   0  0  0  0  0  0  0  0  0  0  0  0
   -4.8796    4.5629    2.6387 H   0  0  0  0  0  0  0  0  0  0  0  0
   -6.1861    3.4241    2.8954 H   0  0  0  0  0  0  0  0  0  0  0  0
   -4.6369    3.1693    3.6708 H   0  0  0  0  0  0  0  0  0  0  0  0
   -3.3731    2.2391    1.5790 N   0  0  0  0  0  0  0  0  0  0  0  0
   -2.7599    1.4751    0.5247 C   0  0  2  0  0  0  0  0  0  0  0  0
   -1.5143    0.8067    1.0915 C   0  0  0  0  0  0  0  0  0  0  0  0
   -0.9247    1.2213    2.0872 O   0  0  0  0  0  0  0  0  0  0  0  0
   -2.4106    2.3553   -0.6653 C   0  0  0  0  0  0  0  0  0  0  0  0
   -2.8254    2.4352    2.4150 H   0  0  0  0  0  0  0  0  0  0  0  0
   -3.4836    0.7082    0.2278 H   0  0  0  0  0  0  0  0  0  0  0  0
   -1.6866    3.1298   -0.3871 H   0  0  0  0  0  0  0  0  0  0  0  0
   -1.9704    1.7677   -1.4777 H   0  0  0  0  0  0  0  0  0  0  0  0
   -3.3030    2.8584   -1.0531 H   0  0  0  0  0  0  0  0  0  0  0  0
   -1.1107   -0.2839    0.3303 N   0  0  0  0  0  0  0  0  0  0  0  0
    0.0490   -1.0750    0.6539 C   0  0  2  0  0  0  0  0  0  0  0  0
    1.2607   -0.1479    0.6288 C   0  0  0  0  0  0  0  0  0  0  0  0
    1.2509    0.9813    1.1148 O   0  0  0  0  0  0  0  0  0  0  0  0
    0.2344   -2.2723   -0.2897 C   0  0  2  0  0  0  0  0  0  0  0  0
    0.4121   -1.8318   -1.6351 O   0  0  0  0  0  0  0  0  0  0  0  0
   -0.9605   -3.2177   -0.2632 C   0  0  0  0  0  0  0  0  0  0  0  0
   -1.6733   -0.5660   -0.4691 H   0  0  0  0  0  0  0  0  0  0  0  0
   -0.0935   -1.4282    1.6825 H   0  0  0  0  0  0  0  0  0  0  0  0
    1.1305   -2.8395   -0.0124 H   0  0  0  0  0  0  0  0  0  0  0  0
    0.5722   -2.6272   -2.1655 H   0  0  0  0  0  0  0  0  0  0  0  0
   -1.8868   -2.6995   -0.5340 H   0  0  0  0  0  0  0  0  0  0  0  0
   -1.0855   -3.6731    0.7238 H   0  0  0  0  0  0  0  0  0  0  0  0
   -0.8265   -4.0174   -1.0000 H   0  0  0  0  0  0  0  0  0  0  0  0
    2.3366   -0.7109   -0.0429 N   0  0  0  0  0  0  0  0  0  0  0  0
    3.5878   -0.0141   -0.2284 C   0  0  2  0  0  0  0  0  0  0  0  0
    4.3724   -0.1017    1.0740 C   0  0  0  0  0  0  0  0  0  0  0  0
    3.8423   -0.3071    2.1639 O   0  0  0  0  0  0  0  0  0  0  0  0
    3.3600    1.4350   -0.6294 C   0  0  0  0  0  0  0  0  0  0  0  0
    2.2403   -1.6497   -0.4188 H   0  0  0  0  0  0  0  0  0  0  0  0
    4.1306   -0.5439   -1.0188 H   0  0  0  0  0  0  0  0  0  0  0  0
    2.8174    1.9819    0.1503 H   0  0  0  0  0  0  0  0  0  0  0  0
    4.3094    1.9541   -0.7974 H   0  0  0  0  0  0  0  0  0  0  0  0
    2.7701    1.4964   -1.5503 H   0  0  0  0  0  0  0  0  0  0  0  0
    5.7290    0.1195    0.8819 N   0  0  0  0  0  0  0  0  0  0  0  0
    6.6830    0.1016    1.9660 C   0  0  0  0  0  0  0  0  0  0  0  0
    6.0835    0.2633   -0.0591 H   0  0  0  0  0  0  0  0  0  0  0  0
    6.8145    1.1216    2.3564 H   0  0  0  0  0  0  0  0  0  0  0  0
    6.3134   -0.5533    2.7688 H   0  0  0  0  0  0  0  0  0  0  0  0
    7.6481   -0.2775    1.5988 H   0  0  0  0  0  0  0  0  0  0  0  0
  1  3  1  0  0  0  0
  1  7  1  0  0  0  0
  1  2  2  0  0  0  0
 32 33  1  0  0  0  0
 33 41  1  0  0  0  0
 33 34  2  0  0  0  0
  8  9  1  0  0  0  0
  9 17  1  0  0  0  0
  9 10  2  0  0  0  0
 18 19  1  0  0  0  0
 19 31  1  0  0  0  0
 19 20  2  0  0  0  0
 32 35  1  0  0  0  0
  8 11  1  0  0  0  0
 21 23  1  0  0  0  0
 41 42  1  0  0  0  0
 31 32  1  0  0  0  0
  7  8  1  0  0  0  0
 18 21  1  0  0  0  0
 17 18  1  0  0  0  0
 21 22  1  0  0  0  0
  3  4  1  0  0  0  0
  3  5  1  0  0  0  0
  3  6  1  0  0  0  0
 35 38  1  0  0  0  0
 35 39  1  0  0  0  0
 35 40  1  0  0  0  0
 11 14  1  0  0  0  0
 11 15  1  0  0  0  0
 11 16  1  0  0  0  0
 23 28  1  0  0  0  0
 23 29  1  0  0  0  0
 23 30  1  0  0  0  0
 42 44  1  0  0  0  0
 42 45  1  0  0  0  0
 42 46  1  0  0  0  0
 32 37  1  0  0  0  0
  8 13  1  0  0  0  0
 18 25  1  0  0  0  0
 21 26  1  0  0  0  0
 41 43  1  0  0  0  0
  7 12  1  0  0  0  0
 31 36  1  0  0  0  0
 17 24  1  0  0  0  0
 22 27  1  0  0  0  0
M  END
$$$$

  -OEChem-05262214473D

 46 45  0     1  0  0  0  0  0999 V2000
   -4.6700    2.7214    1.5150 C   0  0  0  0  0  0  0  0  0  0  0  0
   -5.4532    2.5715    0.5845 O   0  0  0  0  0  0  0  0  0  0  0  0
   -5.0996    3.4865    2.7226 C   0  0  0  0  0  0  0  0  0  0  0  0
   -4.8796    4.5629    2.6387 H   0  0  0  0  0  0  0  0  0  0  0  0
   -6.1861    3.4241    2.8954 H   0  0  0  0  0  0  0  0  0  0  0  0
   -4.6369    3.1693    3.6708 H   0  0  0  0  0  0  0  0  0  0  0  0
   -3.3731    2.2391    1.5790 N   0  0  0  0  0  0  0  0  0  0  0  0
   -2.7599    1.4751    0.5247 C   0  0  2  0  0  0  0  0  0  0  0  0
   -1.5143    0.8067    1.0915 C   0  0  0  0  0  0  0  0  0  0  0  0
   -0.9247    1.2213    2.0872 O   0  0  0  0  0  0  0  0  0  0  0  0
   -2.4106    2.3553   -0.6653 C   0  0  0  0  0  0  0  0  0  0  0  0
   -2.8254    2.4352    2.4150 H   0  0  0  0  0  0  0  0  0  0  0  0
   -3.4836    0.7082    0.2278 H   0  0  0  0  0  0  0  0  0  0  0  0
   -1.6866    3.1298   -0.3871 H   0  0  0  0  0  0  0  0  0  0  0  0
   -1.9704    1.7677   -1.4777 H   0  0  0  0  0  0  0  0  0  0  0  0
   -3.3030    2.8584   -1.0531 H   0  0  0  0  0  0  0  0  0  0  0  0
   -1.1107   -0.2839    0.3303 N   0  0  0  0  0  0  0  0  0  0  0  0
    0.0490   -1.0750    0.6539 C   0  0  2  0  0  0  0  0  0  0  0  0
    1.2607   -0.1479    0.6288 C   0  0  0  0  0  0  0  0  0  0  0  0
    1.3506    0.8569    1.3315 O   0  0  0  0  0  0  0  0  0  0  0  0
    0.2344   -2.2723   -0.2897 C   0  0  2  0  0  0  0  0  0  0  0  0
    0.4121   -1.8318   -1.6351 O   0  0  0  0  0  0  0  0  0  0  0  0
   -0.9605   -3.2177   -0.2632 C   0  0  0  0  0  0  0  0  0  0  0  0
   -1.6733   -0.5660   -0.4691 H   0  0  0  0  0  0  0  0  0  0  0  0
   -0.0935   -1.4282    1.6825 H   0  0  0  0  0  0  0  0  0  0  0  0
    1.1305   -2.8395   -0.0124 H   0  0  0  0  0  0  0  0  0  0  0  0
    0.5722   -2.6272   -2.1655 H   0  0  0  0  0  0  0  0  0  0  0  0
   -1.8868   -2.6995   -0.5340 H   0  0  0  0  0  0  0  0  0  0  0  0
   -1.0855   -3.6731    0.7238 H   0  0  0  0  0  0  0  0  0  0  0  0
   -0.8265   -4.0174   -1.0000 H   0  0  0  0  0  0  0  0  0  0  0  0
    2.2061   -0.5474   -0.3052 N   0  0  0  0  0  0  0  0  0  0  0  0
    3.4268    0.1878   -0.5388 C   0  0  2  0  0  0  0  0  0  0  0  0
    4.4040   -0.1564    0.5776 C   0  0  0  0  0  0  0  0  0  0  0  0
    4.0473   -0.5882    1.6718 O   0  0  0  0  0  0  0  0  0  0  0  0
    3.1690    1.6856   -0.5928 C   0  0  0  0  0  0  0  0  0  0  0  0
    2.0326   -1.3898   -0.8457 H   0  0  0  0  0  0  0  0  0  0  0  0
    3.8279   -0.1613   -1.4965 H   0  0  0  0  0  0  0  0  0  0  0  0
    2.7668    2.0536    0.3581 H   0  0  0  0  0  0  0  0  0  0  0  0
    4.0908    2.2397   -0.7984 H   0  0  0  0  0  0  0  0  0  0  0  0
    2.4434    1.9281   -1.3767 H   0  0  0  0  0  0  0  0  0  0  0  0
    5.7179    0.1161    0.2234 N   0  0  0  0  0  0  0  0  0  0  0  0
    6.8296   -0.1130    1.1165 C   0  0  0  0  0  0  0  0  0  0  0  0
    5.9234    0.4548   -0.7119 H   0  0  0  0  0  0  0  0  0  0  0  0
    7.0418    0.8063    1.6821 H   0  0  0  0  0  0  0  0  0  0  0  0
    6.5769   -0.9236    1.8159 H   0  0  0  0  0  0  0  0  0  0  0  0
    7.7171   -0.3966    0.5318 H   0  0  0  0  0  0  0  0  0  0  0  0
  1  3  1  0  0  0  0
  1  7  1  0  0  0  0
  1  2  2  0  0  0  0
 32 33  1  0  0  0  0
 33 41  1  0  0  0  0
 33 34  2  0  0  0  0
  8  9  1  0  0  0  0
  9 17  1  0  0  0  0
  9 10  2  0  0  0  0
 18 19  1  0  0  0  0
 19 31  1  0  0  0  0
 19 20  2  0  0  0  0
 32 35  1  0  0  0  0
  8 11  1  0  0  0  0
 21 23  1  0  0  0  0
 41 42  1  0  0  0  0
 31 32  1  0  0  0  0
  7  8  1  0  0  0  0
 18 21  1  0  0  0  0
 17 18  1  0  0  0  0
 21 22  1  0  0  0  0
  3  4  1  0  0  0  0
  3  5  1  0  0  0  0
  3  6  1  0  0  0  0
 35 38  1  0  0  0  0
 35 39  1  0  0  0  0
 35 40  1  0  0  0  0
 11 14  1  0  0  0  0
 11 15  1  0  0  0  0
 11 16  1  0  0  0  0
 23 28  1  0  0  0  0
 23 29  1  0  0  0  0
 23 30  1  0  0  0  0
 42 44  1  0  0  0  0
 42 45  1  0  0  0  0
 42 46  1  0  0  0  0
 32 37  1  0  0  0  0
  8 13  1  0  0  0  0
 18 25  1  0  0  0  0
 21 26  1  0  0  0  0
 41 43  1  0  0  0  0
  7 12  1  0  0  0  0
 31 36  1  0  0  0  0
 17 24  1  0  0  0  0
 22 27  1  0  0  0  0
M  END
$$$$

  -OEChem-05262214473D

 46 45  0     1  0  0  0  0  0999 V2000
   -4.6700    2.7214    1.5150 C   0  0  0  0  0  0  0  0  0  0  0  0
   -5.4532    2.5715    0.5845 O   0  0  0  0  0  0  0  0  0  0  0  0
   -5.0996    3.4865    2.7226 C   0  0  0  0  0  0  0  0  0  0  0  0
   -4.8796    4.5629    2.6387 H   0  0  0  0  0  0  0  0  0  0  0  0
   -6.1861    3.4241    2.8954 H   0  0  0  0  0  0  0  0  0  0  0  0
   -4.6369    3.1693    3.6708 H   0  0  0  0  0  0  0  0  0  0  0  0
   -3.3731    2.2391    1.5790 N   0  0  0  0  0  0  0  0  0  0  0  0
   -2.7599    1.4751    0.5247 C   0  0  2  0  0  0  0  0  0  0  0  0
   -1.5143    0.8067    1.0915 C   0  0  0  0  0  0  0  0  0  0  0  0
   -0.9247    1.2213    2.0872 O   0  0  0  0  0  0  0  0  0  0  0  0
   -2.4106    2.3553   -0.6653 C   0  0  0  0  0  0  0  0  0  0  0  0
   -2.8254    2.4352    2.4150 H   0  0  0  0  0  0  0  0  0  0  0  0
   -3.4836    0.7082    0.2278 H   0  0  0  0  0  0  0  0  0  0  0  0
   -1.6866    3.1298   -0.3871 H   0  0  0  0  0  0  0  0  0  0  0  0
   -1.9704    1.7677   -1.4777 H   0  0  0  0  0  0  0  0  0  0  0  0
   -3.3030    2.8584   -1.0531 H   0  0  0  0  0  0  0  0  0  0  0  0
   -1.1107   -0.2839    0.3303 N   0  0  0  0  0  0  0  0  0  0  0  0
    0.0490   -1.0750    0.6539 C   0  0  2  0  0  0  0  0  0  0  0  0
    1.2607   -0.1479    0.6288 C   0  0  0  0  0  0  0  0  0  0  0  0
    1.4805    0.6917    1.4995 O   0  0  0  0  0  0  0  0  0  0  0  0
    0.2344   -2.2723   -0.2897 C   0  0  2  0  0  0  0  0  0  0  0  0
    0.4121   -1.8318   -1.6351 O   0  0  0  0  0  0  0  0  0  0  0  0
   -0.9605   -3.2177   -0.2632 C   0  0  0  0  0  0  0  0  0  0  0  0
   -1.6733   -0.5660   -0.4691 H   0  0  0  0  0  0  0  0  0  0  0  0
   -0.0935   -1.4282    1.6825 H   0  0  0  0  0  0  0  0  0  0  0  0
    1.1305   -2.8395   -0.0124 H   0  0  0  0  0  0  0  0  0  0  0  0
    0.5722   -2.6272   -2.1655 H   0  0  0  0  0  0  0  0  0  0  0  0
   -1.8868   -2.6995   -0.5340 H   0  0  0  0  0  0  0  0  0  0  0  0
   -1.0855   -3.6731    0.7238 H   0  0  0  0  0  0  0  0  0  0  0  0
   -0.8265   -4.0174   -1.0000 H   0  0  0  0  0  0  0  0  0  0  0  0
    2.0394   -0.3350   -0.5045 N   0  0  0  0  0  0  0  0  0  0  0  0
    3.2234    0.4473   -0.7717 C   0  0  2  0  0  0  0  0  0  0  0  0
    4.3562   -0.1074    0.0819 C   0  0  0  0  0  0  0  0  0  0  0  0
    4.1666   -0.7595    1.1065 O   0  0  0  0  0  0  0  0  0  0  0  0
    2.9914    1.9209   -0.4760 C   0  0  0  0  0  0  0  0  0  0  0  0
    1.7659   -1.0502   -1.1720 H   0  0  0  0  0  0  0  0  0  0  0  0
    3.4621    0.3078   -1.8317 H   0  0  0  0  0  0  0  0  0  0  0  0
    2.7510    2.0804    0.5815 H   0  0  0  0  0  0  0  0  0  0  0  0
    3.8808    2.5166   -0.7062 H   0  0  0  0  0  0  0  0  0  0  0  0
    2.1570    2.3107   -1.0690 H   0  0  0  0  0  0  0  0  0  0  0  0
    5.6037    0.2482   -0.4115 N   0  0  0  0  0  0  0  0  0  0  0  0
    6.8367   -0.1463    0.2288 C   0  0  0  0  0  0  0  0  0  0  0  0
    5.6670    0.7746   -1.2779 H   0  0  0  0  0  0  0  0  0  0  0  0
    7.1539    0.6394    0.9303 H   0  0  0  0  0  0  0  0  0  0  0  0
    6.6801   -1.0865    0.7779 H   0  0  0  0  0  0  0  0  0  0  0  0
    7.6155   -0.2927   -0.5341 H   0  0  0  0  0  0  0  0  0  0  0  0
  1  3  1  0  0  0  0
  1  7  1  0  0  0  0
  1  2  2  0  0  0  0
 32 33  1  0  0  0  0
 33 41  1  0  0  0  0
 33 34  2  0  0  0  0
  8  9  1  0  0  0  0
  9 17  1  0  0  0  0
  9 10  2  0  0  0  0
 18 19  1  0  0  0  0
 19 31  1  0  0  0  0
 19 20  2  0  0  0  0
 32 35  1  0  0  0  0
  8 11  1  0  0  0  0
 21 23  1  0  0  0  0
 41 42  1  0  0  0  0
 31 32  1  0  0  0  0
  7  8  1  0  0  0  0
 18 21  1  0  0  0  0
 17 18  1  0  0  0  0
 21 22  1  0  0  0  0
  3  4  1  0  0  0  0
  3  5  1  0  0  0  0
  3  6  1  0  0  0  0
 35 38  1  0  0  0  0
 35 39  1  0  0  0  0
 35 40  1  0  0  0  0
 11 14  1  0  0  0  0
 11 15  1  0  0  0  0
 11 16  1  0  0  0  0
 23 28  1  0  0  0  0
 23 29  1  0  0  0  0
 23 30  1  0  0  0  0
 42 44  1  0  0  0  0
 42 45  1  0  0  0  0
 42 46  1  0  0  0  0
 32 37  1  0  0  0  0
  8 13  1  0  0  0  0
 18 25  1  0  0  0  0
 21 26  1  0  0  0  0
 41 43  1  0  0  0  0
  7 12  1  0  0  0  0
 31 36  1  0  0  0  0
 17 24  1  0  0  0  0
 22 27  1  0  0  0  0
M  END
$$$$

  -OEChem-05262214473D

 46 45  0     1  0  0  0  0  0999 V2000
   -4.6700    2.7214    1.5150 C   0  0  0  0  0  0  0  0  0  0  0  0
   -5.4532    2.5715    0.5845 O   0  0  0  0  0  0  0  0  0  0  0  0
   -5.0996    3.4865    2.7226 C   0  0  0  0  0  0  0  0  0  0  0  0
   -4.8796    4.5629    2.6387 H   0  0  0  0  0  0  0  0  0  0  0  0
   -6.1861    3.4241    2.8954 H   0  0  0  0  0  0  0  0  0  0  0  0
   -4.6369    3.1693    3.6708 H   0  0  0  0  0  0  0  0  0  0  0  0
   -3.3731    2.2391    1.5790 N   0  0  0  0  0  0  0  0  0  0  0  0
   -2.7599    1.4751    0.5247 C   0  0  2  0  0  0  0  0  0  0  0  0
   -1.5143    0.8067    1.0915 C   0  0  0  0  0  0  0  0  0  0  0  0
   -0.9247    1.2213    2.0872 O   0  0  0  0  0  0  0  0  0  0  0  0
   -2.4106    2.3553   -0.6653 C   0  0  0  0  0  0  0  0  0  0  0  0
   -2.8254    2.4352    2.4150 H   0  0  0  0  0  0  0  0  0  0  0  0
   -3.4836    0.7082    0.2278 H   0  0  0  0  0  0  0  0  0  0  0  0
   -1.6866    3.1298   -0.3871 H   0  0  0  0  0  0  0  0  0  0  0  0
   -1.9704    1.7677   -1.4777 H   0  0  0  0  0  0  0  0  0  0  0  0
   -3.3030    2.8584   -1.0531 H   0  0  0  0  0  0  0  0  0  0  0  0
   -1.1107   -0.2839    0.3303 N   0  0  0  0  0  0  0  0  0  0  0  0
    0.0490   -1.0750    0.6539 C   0  0  2  0  0  0  0  0  0  0  0  0
    1.2607   -0.1479    0.6288 C   0  0  0  0  0  0  0  0  0  0  0  0
    1.6316    0.4971    1.6074 O   0  0  0  0  0  0  0  0  0  0  0  0
    0.2344   -2.2723   -0.2897 C   0  0  2  0  0  0  0  0  0  0  0  0
    0.4121   -1.8318   -1.6351 O   0  0  0  0  0  0  0  0  0  0  0  0
   -0.9605   -3.2177   -0.2632 C   0  0  0  0  0  0  0  0  0  0  0  0
   -1.6733   -0.5660   -0.4691 H   0  0  0  0  0  0  0  0  0  0  0  0
   -0.0935   -1.4282    1.6825 H   0  0  0  0  0  0  0  0  0  0  0  0
    1.1305   -2.8395   -0.0124 H   0  0  0  0  0  0  0  0  0  0  0  0
    0.5722   -2.6272   -2.1655 H   0  0  0  0  0  0  0  0  0  0  0  0
   -1.8868   -2.6995   -0.5340 H   0  0  0  0  0  0  0  0  0  0  0  0
   -1.0855   -3.6731    0.7238 H   0  0  0  0  0  0  0  0  0  0  0  0
   -0.8265   -4.0174   -1.0000 H   0  0  0  0  0  0  0  0  0  0  0  0
    1.8480   -0.0882   -0.6271 N   0  0  0  0  0  0  0  0  0  0  0  0
    2.9914    0.7467   -0.9114 C   0  0  2  0  0  0  0  0  0  0  0  0
    4.2323    0.0420   -0.3794 C   0  0  0  0  0  0  0  0  0  0  0  0
    4.1923   -0.8093    0.5064 O   0  0  0  0  0  0  0  0  0  0  0  0
    2.8392    2.1249   -0.2868 C   0  0  0  0  0  0  0  0  0  0  0  0
    1.4585   -0.6539   -1.3755 H   0  0  0  0  0  0  0  0  0  0  0  0
    3.0579    0.8314   -2.0016 H   0  0  0  0  0  0  0  0  0  0  0  0
    2.7709    2.0604    0.8053 H   0  0  0  0  0  0  0  0  0  0  0  0
    3.6937    2.7661   -0.5272 H   0  0  0  0  0  0  0  0  0  0  0  0
    1.9304    2.6183   -0.6480 H   0  0  0  0  0  0  0  0  0  0  0  0
    5.3941    0.5067   -0.9797 N   0  0  0  0  0  0  0  0  0  0  0  0
    6.7039    0.0039   -0.6366 C   0  0  0  0  0  0  0  0  0  0  0  0
    5.3316    1.2010   -1.7185 H   0  0  0  0  0  0  0  0  0  0  0  0
    7.1433    0.6322    0.1522 H   0  0  0  0  0  0  0  0  0  0  0  0
    6.6159   -1.0310   -0.2744 H   0  0  0  0  0  0  0  0  0  0  0  0
    7.3502    0.0273   -1.5264 H   0  0  0  0  0  0  0  0  0  0  0  0
  1  3  1  0  0  0  0
  1  7  1  0  0  0  0
  1  2  2  0  0  0  0
 32 33  1  0  0  0  0
 33 41  1  0  0  0  0
 33 34  2  0  0  0  0
  8  9  1  0  0  0  0
  9 17  1  0  0  0  0
  9 10  2  0  0  0  0
 18 19  1  0  0  0  0
 19 31  1  0  0  0  0
 19 20  2  0  0  0  0
 32 35  1  0  0  0  0
  8 11  1  0  0  0  0
 21 23  1  0  0  0  0
 41 42  1  0  0  0  0
 31 32  1  0  0  0  0
  7  8  1  0  0  0  0
 18 21  1  0  0  0  0
 17 18  1  0  0  0  0
 21 22  1  0  0  0  0
  3  4  1  0  0  0  0
  3  5  1  0  0  0  0
  3  6  1  0  0  0  0
 35 38  1  0  0  0  0
 35 39  1  0  0  0  0
 35 40  1  0  0  0  0
 11 14  1  0  0  0  0
 11 15  1  0  0  0  0
 11 16  1  0  0  0  0
 23 28  1  0  0  0  0
 23 29  1  0  0  0  0
 23 30  1  0  0  0  0
 42 44  1  0  0  0  0
 42 45  1  0  0  0  0
 42 46  1  0  0  0  0
 32 37  1  0  0  0  0
  8 13  1  0  0  0  0
 18 25  1  0  0  0  0
 21 26  1  0  0  0  0
 41 43  1  0  0  0  0
  7 12  1  0  0  0  0
 31 36  1  0  0  0  0
 17 24  1  0  0  0  0
 22 27  1  0  0  0  0
M  END
$$$$

  -OEChem-05262214473D

 46 45  0     1  0  0  0  0  0999 V2000
   -4.6700    2.7214    1.5150 C   0  0  0  0  0  0  0  0  0  0  0  0
   -5.4532    2.5715    0.5845 O   0  0  0  0  0  0  0  0  0  0  0  0
   -5.0996    3.4865    2.7226 C   0  0  0  0  0  0  0  0  0  0  0  0
   -4.8796    4.5629    2.6387 H   0  0  0  0  0  0  0  0  0  0  0  0
   -6.1861    3.4241    2.8954 H   0  0  0  0  0  0  0  0  0  0  0  0
   -4.6369    3.1693    3.6708 H   0  0  0  0  0  0  0  0  0  0  0  0
   -3.3731    2.2391    1.5790 N   0  0  0  0  0  0  0  0  0  0  0  0
   -2.7599    1.4751    0.5247 C   0  0  2  0  0  0  0  0  0  0  0  0
   -1.5143    0.8067    1.0915 C   0  0  0  0  0  0  0  0  0  0  0  0
   -0.9247    1.2213    2.0872 O   0  0  0  0  0  0  0  0  0  0  0  0
   -2.4106    2.3553   -0.6653 C   0  0  0  0  0  0  0  0  0  0  0  0
   -2.8254    2.4352    2.4150 H   0  0  0  0  0  0  0  0  0  0  0  0
   -3.4836    0.7082    0.2278 H   0  0  0  0  0  0  0  0  0  0  0  0
   -1.6866    3.1298   -0.3871 H   0  0  0  0  0  0  0  0  0  0  0  0
   -1.9704    1.7677   -1.4777 H   0  0  0  0  0  0  0  0  0  0  0  0
   -3.3030    2.8584   -1.0531 H   0  0  0  0  0  0  0  0  0  0  0  0
   -1.1107   -0.2839    0.3303 N   0  0  0  0  0  0  0  0  0  0  0  0
    0.0490   -1.0750    0.6539 C   0  0  2  0  0  0  0  0  0  0  0  0
    1.2607   -0.1479    0.6288 C   0  0  0  0  0  0  0  0  0  0  0  0
    1.7938    0.2863    1.6480 O   0  0  0  0  0  0  0  0  0  0  0  0
    0.2344   -2.2723   -0.2897 C   0  0  2  0  0  0  0  0  0  0  0  0
    0.4121   -1.8318   -1.6351 O   0  0  0  0  0  0  0  0  0  0  0  0
   -0.9605   -3.2177   -0.2632 C   0  0  0  0  0  0  0  0  0  0  0  0
   -1.6733   -0.5660   -0.4691 H   0  0  0  0  0  0  0  0  0  0  0  0
   -0.0935   -1.4282    1.6825 H   0  0  0  0  0  0  0  0  0  0  0  0
    1.1305   -2.8395   -0.0124 H   0  0  0  0  0  0  0  0  0  0  0  0
    0.5722   -2.6272   -2.1655 H   0  0  0  0  0  0  0  0  0  0  0  0
   -1.8868   -2.6995   -0.5340 H   0  0  0  0  0  0  0  0  0  0  0  0
   -1.0855   -3.6731    0.7238 H   0  0  0  0  0  0  0  0  0  0  0  0
   -0.8265   -4.0174   -1.0000 H   0  0  0  0  0  0  0  0  0  0  0  0
    1.6449    0.1762   -0.6647 N   0  0  0  0  0  0  0  0  0  0  0  0
    2.7466    1.0657   -0.9483 C   0  0  2  0  0  0  0  0  0  0  0  0
    4.0407    0.2817   -0.7747 C   0  0  0  0  0  0  0  0  0  0  0  0
    4.1225   -0.7342   -0.0875 O   0  0  0  0  0  0  0  0  0  0  0  0
    2.7228    2.2838   -0.0382 C   0  0  0  0  0  0  0  0  0  0  0  0
    1.1312   -0.2280   -1.4422 H   0  0  0  0  0  0  0  0  0  0  0  0
    2.6431    1.3737   -1.9945 H   0  0  0  0  0  0  0  0  0  0  0  0
    2.8253    1.9950    1.0142 H   0  0  0  0  0  0  0  0  0  0  0  0
    3.5421    2.9711   -0.2736 H   0  0  0  0  0  0  0  0  0  0  0  0
    1.7790    2.8298   -0.1426 H   0  0  0  0  0  0  0  0  0  0  0  0
    5.1034    0.8741   -1.4425 N   0  0  0  0  0  0  0  0  0  0  0  0
    6.4401    0.3274   -1.4207 C   0  0  0  0  0  0  0  0  0  0  0  0
    4.9402    1.7048   -2.0038 H   0  0  0  0  0  0  0  0  0  0  0  0
    7.0107    0.7852   -0.5992 H   0  0  0  0  0  0  0  0  0  0  0  0
    6.3885   -0.7609   -1.2694 H   0  0  0  0  0  0  0  0  0  0  0  0
    6.9392    0.5413   -2.3774 H   0  0  0  0  0  0  0  0  0  0  0  0
  1  3  1  0  0  0  0
  1  7  1  0  0  0  0
  1  2  2  0  0  0  0
 32 33  1  0  0  0  0
 33 41  1  0  0  0  0
 33 34  2  0  0  0  0
  8  9  1  0  0  0  0
  9 17  1  0  0  0  0
  9 10  2  0  0  0  0
 18 19  1  0  0  0  0
 19 31  1  0  0  0  0
 19 20  2  0  0  0  0
 32 35  1  0  0  0  0
  8 11  1  0  0  0  0
 21 23  1  0  0  0  0
 41 42  1  0  0  0  0
 31 32  1  0  0  0  0
  7  8  1  0  0  0  0
 18 21  1  0  0  0  0
 17 18  1  0  0  0  0
 21 22  1  0  0  0  0
  3  4  1  0  0  0  0
  3  5  1  0  0  0  0
  3  6  1  0  0  0  0
 35 38  1  0  0  0  0
 35 39  1  0  0  0  0
 35 40  1  0  0  0  0
 11 14  1  0  0  0  0
 11 15  1  0  0  0  0
 11 16  1  0  0  0  0
 23 28  1  0  0  0  0
 23 29  1  0  0  0  0
 23 30  1  0  0  0  0
 42 44  1  0  0  0  0
 42 45  1  0  0  0  0
 42 46  1  0  0  0  0
 32 37  1  0  0  0  0
  8 13  1  0  0  0  0
 18 25  1  0  0  0  0
 21 26  1  0  0  0  0
 41 43  1  0  0  0  0
  7 12  1  0  0  0  0
 31 36  1  0  0  0  0
 17 24  1  0  0  0  0
 22 27  1  0  0  0  0
M  END
$$$$

  -OEChem-05262214473D

 46 45  0     1  0  0  0  0  0999 V2000
   -4.6700    2.7214    1.5150 C   0  0  0  0  0  0  0  0  0  0  0  0
   -5.4532    2.5715    0.5845 O   0  0  0  0  0  0  0  0  0  0  0  0
   -5.0996    3.4865    2.7226 C   0  0  0  0  0  0  0  0  0  0  0  0
   -4.8796    4.5629    2.6387 H   0  0  0  0  0  0  0  0  0  0  0  0
   -6.1861    3.4241    2.8954 H   0  0  0  0  0  0  0  0  0  0  0  0
   -4.6369    3.1693    3.6708 H   0  0  0  0  0  0  0  0  0  0  0  0
   -3.3731    2.2391    1.5790 N   0  0  0  0  0  0  0  0  0  0  0  0
   -2.7599    1.4751    0.5247 C   0  0  2  0  0  0  0  0  0  0  0  0
   -1.5143    0.8067    1.0915 C   0  0  0  0  0  0  0  0  0  0  0  0
   -0.9247    1.2213    2.0872 O   0  0  0  0  0  0  0  0  0  0  0  0
   -2.4106    2.3553   -0.6653 C   0  0  0  0  0  0  0  0  0  0  0  0
   -2.8254    2.4352    2.4150 H   0  0  0  0  0  0  0  0  0  0  0  0
   -3.4836    0.7082    0.2278 H   0  0  0  0  0  0  0  0  0  0  0  0
   -1.6866    3.1298   -0.3871 H   0  0  0  0  0  0  0  0  0  0  0  0
   -1.9704    1.7677   -1.4777 H   0  0  0  0  0  0  0  0  0  0  0  0
   -3.3030    2.8584   -1.0531 H   0  0  0  0  0  0  0  0  0  0  0  0
   -1.1107   -0.2839    0.3303 N   0  0  0  0  0  0  0  0  0  0  0  0
    0.0490   -1.0750    0.6539 C   0  0  2  0  0  0  0  0  0  0  0  0
    1.2607   -0.1479    0.6288 C   0  0  0  0  0  0  0  0  0  0  0  0
    1.9558    0.0736    1.6182 O   0  0  0  0  0  0  0  0  0  0  0  0
    0.2344   -2.2723   -0.2897 C   0  0  2  0  0  0  0  0  0  0  0  0
    0.4121   -1.8318   -1.6351 O   0  0  0  0  0  0  0  0  0  0  0  0
   -0.9605   -3.2177   -0.2632 C   0  0  0  0  0  0  0  0  0  0  0  0
   -1.6733   -0.5660   -0.4691 H   0  0  0  0  0  0  0  0  0  0  0  0
   -0.0935   -1.4282    1.6825 H   0  0  0  0  0  0  0  0  0  0  0  0
    1.1305   -2.8395   -0.0124 H   0  0  0  0  0  0  0  0  0  0  0  0
    0.5722   -2.6272   -2.1655 H   0  0  0  0  0  0  0  0  0  0  0  0
   -1.8868   -2.6995   -0.5340 H   0  0  0  0  0  0  0  0  0  0  0  0
   -1.0855   -3.6731    0.7238 H   0  0  0  0  0  0  0  0  0  0  0  0
   -0.8265   -4.0174   -1.0000 H   0  0  0  0  0  0  0  0  0  0  0  0
    1.4440    0.4402   -0.6147 N   0  0  0  0  0  0  0  0  0  0  0  0
    2.5057    1.3824   -0.8800 C   0  0  2  0  0  0  0  0  0  0  0  0
    3.7945    0.5953   -1.0772 C   0  0  0  0  0  0  0  0  0  0  0  0
    3.9620   -0.5393   -0.6347 O   0  0  0  0  0  0  0  0  0  0  0  0
    2.6501    2.3867    0.2529 C   0  0  0  0  0  0  0  0  0  0  0  0
    0.8064    0.1985   -1.3677 H   0  0  0  0  0  0  0  0  0  0  0  0
    2.2458    1.8979   -1.8109 H   0  0  0  0  0  0  0  0  0  0  0  0
    2.9104    1.8886    1.1940 H   0  0  0  0  0  0  0  0  0  0  0  0
    3.4364    3.1176    0.0373 H   0  0  0  0  0  0  0  0  0  0  0  0
    1.7131    2.9309    0.4129 H   0  0  0  0  0  0  0  0  0  0  0  0
    4.7514    1.3254   -1.7683 N   0  0  0  0  0  0  0  0  0  0  0  0
    6.0633    0.8022   -2.0702 C   0  0  0  0  0  0  0  0  0  0  0  0
    4.5194    2.2518   -2.1143 H   0  0  0  0  0  0  0  0  0  0  0  0
    6.7650    1.0880   -1.2727 H   0  0  0  0  0  0  0  0  0  0  0  0
    6.0136   -0.2945   -2.1391 H   0  0  0  0  0  0  0  0  0  0  0  0
    6.4105    1.2146   -3.0291 H   0  0  0  0  0  0  0  0  0  0  0  0
  1  3  1  0  0  0  0
  1  7  1  0  0  0  0
  1  2  2  0  0  0  0
 32 33  1  0  0  0  0
 33 41  1  0  0  0  0
 33 34  2  0  0  0  0
  8  9  1  0  0  0  0
  9 17  1  0  0  0  0
  9 10  2  0  0  0  0
 18 19  1  0  0  0  0
 19 31  1  0  0  0  0
 19 20  2  0  0  0  0
 32 35  1  0  0  0  0
  8 11  1  0  0  0  0
 21 23  1  0  0  0  0
 41 42  1  0  0  0  0
 31 32  1  0  0  0  0
  7  8  1  0  0  0  0
 18 21  1  0  0  0  0
 17 18  1  0  0  0  0
 21 22  1  0  0  0  0
  3  4  1  0  0  0  0
  3  5  1  0  0  0  0
  3  6  1  0  0  0  0
 35 38  1  0  0  0  0
 35 39  1  0  0  0  0
 35 40  1  0  0  0  0
 11 14  1  0  0  0  0
 11 15  1  0  0  0  0
 11 16  1  0  0  0  0
 23 28  1  0  0  0  0
 23 29  1  0  0  0  0
 23 30  1  0  0  0  0
 42 44  1  0  0  0  0
 42 45  1  0  0  0  0
 42 46  1  0  0  0  0
 32 37  1  0  0  0  0
  8 13  1  0  0  0  0
 18 25  1  0  0  0  0
 21 26  1  0  0  0  0
 41 43  1  0  0  0  0
  7 12  1  0  0  0  0
 31 36  1  0  0  0  0
 17 24  1  0  0  0  0
 22 27  1  0  0  0  0
M  END
$$$$

  -OEChem-05262214473D

 46 45  0     1  0  0  0  0  0999 V2000
   -4.6700    2.7214    1.5150 C   0  0  0  0  0  0  0  0  0  0  0  0
   -5.4532    2.5715    0.5845 O   0  0  0  0  0  0  0  0  0  0  0  0
   -5.0996    3.4865    2.7226 C   0  0  0  0  0  0  0  0  0  0  0  0
   -4.8796    4.5629    2.6387 H   0  0  0  0  0  0  0  0  0  0  0  0
   -6.1861    3.4241    2.8954 H   0  0  0  0  0  0  0  0  0  0  0  0
   -4.6369    3.1693    3.6708 H   0  0  0  0  0  0  0  0  0  0  0  0
   -3.3731    2.2391    1.5790 N   0  0  0  0  0  0  0  0  0  0  0  0
   -2.7599    1.4751    0.5247 C   0  0  2  0  0  0  0  0  0  0  0  0
   -1.5143    0.8067    1.0915 C   0  0  0  0  0  0  0  0  0  0  0  0
   -0.9247    1.2213    2.0872 O   0  0  0  0  0  0  0  0  0  0  0  0
   -2.4106    2.3553   -0.6653 C   0  0  0  0  0  0  0  0  0  0  0  0
   -2.8254    2.4352    2.4150 H   0  0  0  0  0  0  0  0  0  0  0  0
   -3.4836    0.7082    0.2278 H   0  0  0  0  0  0  0  0  0  0  0  0
   -1.6866    3.1298   -0.3871 H   0  0  0  0  0  0  0  0  0  0  0  0
   -1.9704    1.7677   -1.4777 H   0  0  0  0  0  0  0  0  0  0  0  0
   -3.3030    2.8584   -1.0531 H   0  0  0  0  0  0  0  0  0  0  0  0
   -1.1107   -0.2839    0.3303 N   0  0  0  0  0  0  0  0  0  0  0  0
    0.0490   -1.0750    0.6539 C   0  0  2  0  0  0  0  0  0  0  0  0
    1.2607   -0.1479    0.6288 C   0  0  0  0  0  0  0  0  0  0  0  0
    2.1068   -0.1263    1.5204 O   0  0  0  0  0  0  0  0  0  0  0  0
    0.2344   -2.2723   -0.2897 C   0  0  2  0  0  0  0  0  0  0  0  0
    0.4121   -1.8318   -1.6351 O   0  0  0  0  0  0  0  0  0  0  0  0
   -0.9605   -3.2177   -0.2632 C   0  0  0  0  0  0  0  0  0  0  0  0
   -1.6733   -0.5660   -0.4691 H   0  0  0  0  0  0  0  0  0  0  0  0
   -0.0935   -1.4282    1.6825 H   0  0  0  0  0  0  0  0  0  0  0  0
    1.1305   -2.8395   -0.0124 H   0  0  0  0  0  0  0  0  0  0  0  0
    0.5722   -2.6272   -2.1655 H   0  0  0  0  0  0  0  0  0  0  0  0
   -1.8868   -2.6995   -0.5340 H   0  0  0  0  0  0  0  0  0  0  0  0
   -1.0855   -3.6731    0.7238 H   0  0  0  0  0  0  0  0  0  0  0  0
   -0.8265   -4.0174   -1.0000 H   0  0  0  0  0  0  0  0  0  0  0  0
    1.2588    0.6858   -0.4806 N   0  0  0  0  0  0  0  0  0  0  0  0
    2.2851    1.6752   -0.7109 C   0  0  2  0  0  0  0  0  0  0  0  0
    3.5105    0.9614   -1.2662 C   0  0  0  0  0  0  0  0  0  0  0  0
    3.7218   -0.2379   -1.0980 O   0  0  0  0  0  0  0  0  0  0  0  0
    2.6261    2.4265    0.5666 C   0  0  0  0  0  0  0  0  0  0  0  0
    0.5063    0.5965   -1.1570 H   0  0  0  0  0  0  0  0  0  0  0  0
    1.8932    2.3682   -1.4634 H   0  0  0  0  0  0  0  0  0  0  0  0
    3.0204    1.7486    1.3324 H   0  0  0  0  0  0  0  0  0  0  0  0
    3.3838    3.1957    0.3843 H   0  0  0  0  0  0  0  0  0  0  0  0
    1.7373    2.9147    0.9806 H   0  0  0  0  0  0  0  0  0  0  0  0
    4.3620    1.8297   -1.9348 N   0  0  0  0  0  0  0  0  0  0  0  0
    5.5993    1.3959   -2.5407 C   0  0  0  0  0  0  0  0  0  0  0  0
    4.0979    2.8046   -2.0424 H   0  0  0  0  0  0  0  0  0  0  0  0
    6.4231    1.5199   -1.8224 H   0  0  0  0  0  0  0  0  0  0  0  0
    5.5167    0.3364   -2.8245 H   0  0  0  0  0  0  0  0  0  0  0  0
    5.8003    2.0010   -3.4371 H   0  0  0  0  0  0  0  0  0  0  0  0
  1  3  1  0  0  0  0
  1  7  1  0  0  0  0
  1  2  2  0  0  0  0
 32 33  1  0  0  0  0
 33 41  1  0  0  0  0
 33 34  2  0  0  0  0
  8  9  1  0  0  0  0
  9 17  1  0  0  0  0
  9 10  2  0  0  0  0
 18 19  1  0  0  0  0
 19 31  1  0  0  0  0
 19 20  2  0  0  0  0
 32 35  1  0  0  0  0
  8 11  1  0  0  0  0
 21 23  1  0  0  0  0
 41 42  1  0  0  0  0
 31 32  1  0  0  0  0
  7  8  1  0  0  0  0
 18 21  1  0  0  0  0
 17 18  1  0  0  0  0
 21 22  1  0  0  0  0
  3  4  1  0  0  0  0
  3  5  1  0  0  0  0
  3  6  1  0  0  0  0
 35 38  1  0  0  0  0
 35 39  1  0  0  0  0
 35 40  1  0  0  0  0
 11 14  1  0  0  0  0
 11 15  1  0  0  0  0
 11 16  1  0  0  0  0
 23 28  1  0  0  0  0
 23 29  1  0  0  0  0
 23 30  1  0  0  0  0
 42 44  1  0  0  0  0
 42 45  1  0  0  0  0
 42 46  1  0  0  0  0
 32 37  1  0  0  0  0
  8 13  1  0  0  0  0
 18 25  1  0  0  0  0
 21 26  1  0  0  0  0
 41 43  1  0  0  0  0
  7 12  1  0  0  0  0
 31 36  1  0  0  0  0
 17 24  1  0  0  0  0
 22 27  1  0  0  0  0
M  END
$$$$

  -OEChem-05262214473D

 46 45  0     1  0  0  0  0  0999 V2000
   -4.6700    2.7214    1.5150 C   0  0  0  0  0  0  0  0  0  0  0  0
   -5.4532    2.5715    0.5845 O   0  0  0  0  0  0  0  0  0  0  0  0
   -5.0996    3.4865    2.7226 C   0  0  0  0  0  0  0  0  0  0  0  0
   -4.8796    4.5629    2.6387 H   0  0  0  0  0  0  0  0  0  0  0  0
   -6.1861    3.4241    2.8954 H   0  0  0  0  0  0  0  0  0  0  0  0
   -4.6369    3.1693    3.6708 H   0  0  0  0  0  0  0  0  0  0  0  0
   -3.3731    2.2391    1.5790 N   0  0  0  0  0  0  0  0  0  0  0  0
   -2.7599    1.4751    0.5247 C   0  0  2  0  0  0  0  0  0  0  0  0
   -1.5143    0.8067    1.0915 C   0  0  0  0  0  0  0  0  0  0  0  0
   -0.9247    1.2213    2.0872 O   0  0  0  0  0  0  0  0  0  0  0  0
   -2.4106    2.3553   -0.6653 C   0  0  0  0  0  0  0  0  0  0  0  0
   -2.8254    2.4352    2.4150 H   0  0  0  0  0  0  0  0  0  0  0  0
   -3.4836    0.7082    0.2278 H   0  0  0  0  0  0  0  0  0  0  0  0
   -1.6866    3.1298   -0.3871 H   0  0  0  0  0  0  0  0  0  0  0  0
   -1.9704    1.7677   -1.4777 H   0  0  0  0  0  0  0  0  0  0  0  0
   -3.3030    2.8584   -1.0531 H   0  0  0  0  0  0  0  0  0  0  0  0
   -1.1107   -0.2839    0.3303 N   0  0  0  0  0  0  0  0  0  0  0  0
    0.0490   -1.0750    0.6539 C   0  0  2  0  0  0  0  0  0  0  0  0
    1.2607   -0.1479    0.6288 C   0  0  0  0  0  0  0  0  0  0  0  0
    2.2364   -0.3000    1.3610 O   0  0  0  0  0  0  0  0  0  0  0  0
    0.2344   -2.2723   -0.2897 C   0  0  2  0  0  0  0  0  0  0  0  0
    0.4121   -1.8318   -1.6351 O   0  0  0  0  0  0  0  0  0  0  0  0
   -0.9605   -3.2177   -0.2632 C   0  0  0  0  0  0  0  0  0  0  0  0
   -1.6733   -0.5660   -0.4691 H   0  0  0  0  0  0  0  0  0  0  0  0
   -0.0935   -1.4282    1.6825 H   0  0  0  0  0  0  0  0  0  0  0  0
    1.1305   -2.8395   -0.0124 H   0  0  0  0  0  0  0  0  0  0  0  0
    0.5722   -2.6272   -2.1655 H   0  0  0  0  0  0  0  0  0  0  0  0
   -1.8868   -2.6995   -0.5340 H   0  0  0  0  0  0  0  0  0  0  0  0
   -1.0855   -3.6731    0.7238 H   0  0  0  0  0  0  0  0  0  0  0  0
   -0.8265   -4.0174   -1.0000 H   0  0  0  0  0  0  0  0  0  0  0  0
    1.1022    0.8962   -0.2715 N   0  0  0  0  0  0  0  0  0  0  0  0
    2.0999    1.9243   -0.4528 C   0  0  2  0  0  0  0  0  0  0  0  0
    3.2080    1.3550   -1.3288 C   0  0  0  0  0  0  0  0  0  0  0  0
    3.4182    0.1495   -1.4457 O   0  0  0  0  0  0  0  0  0  0  0  0
    2.6524    2.4006    0.8816 C   0  0  0  0  0  0  0  0  0  0  0  0
    0.2511    0.9389   -0.8244 H   0  0  0  0  0  0  0  0  0  0  0  0
    1.6092    2.7525   -0.9757 H   0  0  0  0  0  0  0  0  0  0  0  0
    3.1478    1.5844    1.4201 H   0  0  0  0  0  0  0  0  0  0  0  0
    3.3880    3.2000    0.7438 H   0  0  0  0  0  0  0  0  0  0  0  0
    1.8499    2.7823    1.5219 H   0  0  0  0  0  0  0  0  0  0  0  0
    3.9619    2.3527   -1.9308 N   0  0  0  0  0  0  0  0  0  0  0  0
    5.0796    2.0681   -2.8002 C   0  0  0  0  0  0  0  0  0  0  0  0
    3.7044    3.3256   -1.7930 H   0  0  0  0  0  0  0  0  0  0  0  0
    6.0083    2.0516   -2.2109 H   0  0  0  0  0  0  0  0  0  0  0  0
    4.9316    1.0887   -3.2787 H   0  0  0  0  0  0  0  0  0  0  0  0
    5.1500    2.8471   -3.5736 H   0  0  0  0  0  0  0  0  0  0  0  0
  1  3  1  0  0  0  0
  1  7  1  0  0  0  0
  1  2  2  0  0  0  0
 32 33  1  0  0  0  0
 33 41  1  0  0  0  0
 33 34  2  0  0  0  0
  8  9  1  0  0  0  0
  9 17  1  0  0  0  0
  9 10  2  0  0  0  0
 18 19  1  0  0  0  0
 19 31  1  0  0  0  0
 19 20  2  0  0  0  0
 32 35  1  0  0  0  0
  8 11  1  0  0  0  0
 21 23  1  0  0  0  0
 41 42  1  0  0  0  0
 31 32  1  0  0  0  0
  7  8  1  0  0  0  0
 18 21  1  0  0  0  0
 17 18  1  0  0  0  0
 21 22  1  0  0  0  0
  3  4  1  0  0  0  0
  3  5  1  0  0  0  0
  3  6  1  0  0  0  0
 35 38  1  0  0  0  0
 35 39  1  0  0  0  0
 35 40  1  0  0  0  0
 11 14  1  0  0  0  0
 11 15  1  0  0  0  0
 11 16  1  0  0  0  0
 23 28  1  0  0  0  0
 23 29  1  0  0  0  0
 23 30  1  0  0  0  0
 42 44  1  0  0  0  0
 42 45  1  0  0  0  0
 42 46  1  0  0  0  0
 32 37  1  0  0  0  0
  8 13  1  0  0  0  0
 18 25  1  0  0  0  0
 21 26  1  0  0  0  0
 41 43  1  0  0  0  0
  7 12  1  0  0  0  0
 31 36  1  0  0  0  0
 17 24  1  0  0  0  0
 22 27  1  0  0  0  0
M  END
$$$$

  -OEChem-05262214473D

 46 45  0     1  0  0  0  0  0999 V2000
   -4.6700    2.7214    1.5150 C   0  0  0  0  0  0  0  0  0  0  0  0
   -5.4532    2.5715    0.5845 O   0  0  0  0  0  0  0  0  0  0  0  0
   -5.0996    3.4865    2.7226 C   0  0  0  0  0  0  0  0  0  0  0  0
   -4.8796    4.5629    2.6387 H   0  0  0  0  0  0  0  0  0  0  0  0
   -6.1861    3.4241    2.8954 H   0  0  0  0  0  0  0  0  0  0  0  0
   -4.6369    3.1693    3.6708 H   0  0  0  0  0  0  0  0  0  0  0  0
   -3.3731    2.2391    1.5790 N   0  0  0  0  0  0  0  0  0  0  0  0
   -2.7599    1.4751    0.5247 C   0  0  2  0  0  0  0  0  0  0  0  0
   -1.5143    0.8067    1.0915 C   0  0  0  0  0  0  0  0  0  0  0  0
   -0.9247    1.2213    2.0872 O   0  0  0  0  0  0  0  0  0  0  0  0
   -2.4106    2.3553   -0.6653 C   0  0  0  0  0  0  0  0  0  0  0  0
   -2.8254    2.4352    2.4150 H   0  0  0  0  0  0  0  0  0  0  0  0
   -3.4836    0.7082    0.2278 H   0  0  0  0  0  0  0  0  0  0  0  0
   -1.6866    3.1298   -0.3871 H   0  0  0  0  0  0  0  0  0  0  0  0
   -1.9704    1.7677   -1.4777 H   0  0  0  0  0  0  0  0  0  0  0  0
   -3.3030    2.8584   -1.0531 H   0  0  0  0  0  0  0  0  0  0  0  0
   -1.1107   -0.2839    0.3303 N   0  0  0  0  0  0  0  0  0  0  0  0
    0.0490   -1.0750    0.6539 C   0  0  2  0  0  0  0  0  0  0  0  0
    1.2607   -0.1479    0.6288 C   0  0  0  0  0  0  0  0  0  0  0  0
    2.3358   -0.4356    1.1509 O   0  0  0  0  0  0  0  0  0  0  0  0
    0.2344   -2.2723   -0.2897 C   0  0  2  0  0  0  0  0  0  0  0  0
    0.4121   -1.8318   -1.6351 O   0  0  0  0  0  0  0  0  0  0  0  0
   -0.9605   -3.2177   -0.2632 C   0  0  0  0  0  0  0  0  0  0  0  0
   -1.6733   -0.5660   -0.4691 H   0  0  0  0  0  0  0  0  0  0  0  0
   -0.0935   -1.4282    1.6825 H   0  0  0  0  0  0  0  0  0  0  0  0
    1.1305   -2.8395   -0.0124 H   0  0  0  0  0  0  0  0  0  0  0  0
    0.5722   -2.6272   -2.1655 H   0  0  0  0  0  0  0  0  0  0  0  0
   -1.8868   -2.6995   -0.5340 H   0  0  0  0  0  0  0  0  0  0  0  0
   -1.0855   -3.6731    0.7238 H   0  0  0  0  0  0  0  0  0  0  0  0
   -0.8265   -4.0174   -1.0000 H   0  0  0  0  0  0  0  0  0  0  0  0
    0.9846    1.0572   -0.0016 N   0  0  0  0  0  0  0  0  0  0  0  0
    1.9626    2.1127   -0.1231 C   0  0  2  0  0  0  0  0  0  0  0  0
    2.9076    1.7494   -1.2609 C   0  0  0  0  0  0  0  0  0  0  0  0
    3.0718    0.5965   -1.6543 O   0  0  0  0  0  0  0  0  0  0  0  0
    2.7273    2.3107    1.1764 C   0  0  0  0  0  0  0  0  0  0  0  0
    0.0584    1.2024   -0.3927 H   0  0  0  0  0  0  0  0  0  0  0  0
    1.4133    3.0247   -0.3809 H   0  0  0  0  0  0  0  0  0  0  0  0
    3.2840    1.4073    1.4509 H   0  0  0  0  0  0  0  0  0  0  0  0
    3.4485    3.1303    1.0914 H   0  0  0  0  0  0  0  0  0  0  0  0
    2.0431    2.5426    1.9998 H   0  0  0  0  0  0  0  0  0  0  0  0
    3.5783    2.8588   -1.7566 N   0  0  0  0  0  0  0  0  0  0  0  0
    4.5397    2.7729   -2.8310 C   0  0  0  0  0  0  0  0  0  0  0  0
    3.3657    3.7792   -1.3832 H   0  0  0  0  0  0  0  0  0  0  0  0
    5.5487    2.6467   -2.4116 H   0  0  0  0  0  0  0  0  0  0  0  0
    4.2983    1.9113   -3.4708 H   0  0  0  0  0  0  0  0  0  0  0  0
    4.5041    3.6953   -3.4293 H   0  0  0  0  0  0  0  0  0  0  0  0
  1  3  1  0  0  0  0
  1  7  1  0  0  0  0
  1  2  2  0  0  0  0
 32 33  1  0  0  0  0
 33 41  1  0  0  0  0
 33 34  2  0  0  0  0
  8  9  1  0  0  0  0
  9 17  1  0  0  0  0
  9 10  2  0  0  0  0
 18 19  1  0  0  0  0
 19 31  1  0  0  0  0
 19 20  2  0  0  0  0
 32 35  1  0  0  0  0
  8 11  1  0  0  0  0
 21 23  1  0  0  0  0
 41 42  1  0  0  0  0
 31 32  1  0  0  0  0
  7  8  1  0  0  0  0
 18 21  1  0  0  0  0
 17 18  1  0  0  0  0
 21 22  1  0  0  0  0
  3  4  1  0  0  0  0
  3  5  1  0  0  0  0
  3  6  1  0  0  0  0
 35 38  1  0  0  0  0
 35 39  1  0  0  0  0
 35 40  1  0  0  0  0
 11 14  1  0  0  0  0
 11 15  1  0  0  0  0
 11 16  1  0  0  0  0
 23 28  1  0  0  0  0
 23 29  1  0  0  0  0
 23 30  1  0  0  0  0
 42 44  1  0  0  0  0
 42 45  1  0  0  0  0
 42 46  1  0  0  0  0
 32 37  1  0  0  0  0
  8 13  1  0  0  0  0
 18 25  1  0  0  0  0
 21 26  1  0  0  0  0
 41 43  1  0  0  0  0
  7 12  1  0  0  0  0
 31 36  1  0  0  0  0
 17 24  1  0  0  0  0
 22 27  1  0  0  0  0
M  END
$$$$

  -OEChem-05262214473D

 46 45  0     1  0  0  0  0  0999 V2000
   -4.6700    2.7214    1.5150 C   0  0  0  0  0  0  0  0  0  0  0  0
   -5.4532    2.5715    0.5845 O   0  0  0  0  0  0  0  0  0  0  0  0
   -5.0996    3.4865    2.7226 C   0  0  0  0  0  0  0  0  0  0  0  0
   -4.8796    4.5629    2.6387 H   0  0  0  0  0  0  0  0  0  0  0  0
   -6.1861    3.4241    2.8954 H   0  0  0  0  0  0  0  0  0  0  0  0
   -4.6369    3.1693    3.6708 H   0  0  0  0  0  0  0  0  0  0  0  0
   -3.3731    2.2391    1.5790 N   0  0  0  0  0  0  0  0  0  0  0  0
   -2.7599    1.4751    0.5247 C   0  0  2  0  0  0  0  0  0  0  0  0
   -1.5143    0.8067    1.0915 C   0  0  0  0  0  0  0  0  0  0  0  0
   -0.9247    1.2213    2.0872 O   0  0  0  0  0  0  0  0  0  0  0  0
   -2.4106    2.3553   -0.6653 C   0  0  0  0  0  0  0  0  0  0  0  0
   -2.8254    2.4352    2.4150 H   0  0  0  0  0  0  0  0  0  0  0  0
   -3.4836    0.7082    0.2278 H   0  0  0  0  0  0  0  0  0  0  0  0
   -1.6866    3.1298   -0.3871 H   0  0  0  0  0  0  0  0  0  0  0  0
   -1.9704    1.7677   -1.4777 H   0  0  0  0  0  0  0  0  0  0  0  0
   -3.3030    2.8584   -1.0531 H   0  0  0  0  0  0  0  0  0  0  0  0
   -1.1107   -0.2839    0.3303 N   0  0  0  0  0  0  0  0  0  0  0  0
    0.0490   -1.0750    0.6539 C   0  0  2  0  0  0  0  0  0  0  0  0
    1.2607   -0.1479    0.6288 C   0  0  0  0  0  0  0  0  0  0  0  0
    2.3982   -0.5238    0.9046 O   0  0  0  0  0  0  0  0  0  0  0  0
    0.2344   -2.2723   -0.2897 C   0  0  2  0  0  0  0  0  0  0  0  0
    0.4121   -1.8318   -1.6351 O   0  0  0  0  0  0  0  0  0  0  0  0
   -0.9605   -3.2177   -0.2632 C   0  0  0  0  0  0  0  0  0  0  0  0
   -1.6733   -0.5660   -0.4691 H   0  0  0  0  0  0  0  0  0  0  0  0
   -0.0935   -1.4282    1.6825 H   0  0  0  0  0  0  0  0  0  0  0  0
    1.1305   -2.8395   -0.0124 H   0  0  0  0  0  0  0  0  0  0  0  0
    0.5722   -2.6272   -2.1655 H   0  0  0  0  0  0  0  0  0  0  0  0
   -1.8868   -2.6995   -0.5340 H   0  0  0  0  0  0  0  0  0  0  0  0
   -1.0855   -3.6731    0.7238 H   0  0  0  0  0  0  0  0  0  0  0  0
   -0.8265   -4.0174   -1.0000 H   0  0  0  0  0  0  0  0  0  0  0  0
    0.9142    1.1577    0.3107 N   0  0  0  0  0  0  0  0  0  0  0  0
    1.8826    2.2274    0.2556 C   0  0  2  0  0  0  0  0  0  0  0  0
    2.6298    2.1177   -1.0669 C   0  0  0  0  0  0  0  0  0  0  0  0
    2.7064    1.0725   -1.7094 O   0  0  0  0  0  0  0  0  0  0  0  0
    2.8456    2.1630    1.4309 C   0  0  0  0  0  0  0  0  0  0  0  0
   -0.0587    1.3691    0.1087 H   0  0  0  0  0  0  0  0  0  0  0  0
    1.3187    3.1662    0.2804 H   0  0  0  0  0  0  0  0  0  0  0  0
    3.4196    1.2293    1.4229 H   0  0  0  0  0  0  0  0  0  0  0  0
    3.5614    2.9913    1.4032 H   0  0  0  0  0  0  0  0  0  0  0  0
    2.3040    2.2121    2.3817 H   0  0  0  0  0  0  0  0  0  0  0  0
    3.2373    3.3134   -1.4239 N   0  0  0  0  0  0  0  0  0  0  0  0
    4.0163    3.4623   -2.6309 C   0  0  0  0  0  0  0  0  0  0  0  0
    3.1050    4.1347   -0.8409 H   0  0  0  0  0  0  0  0  0  0  0  0
    5.0758    3.2648   -2.4108 H   0  0  0  0  0  0  0  0  0  0  0  0
    3.6598    2.7480   -3.3877 H   0  0  0  0  0  0  0  0  0  0  0  0
    3.9064    4.4876   -3.0140 H   0  0  0  0  0  0  0  0  0  0  0  0
  1  3  1  0  0  0  0
  1  7  1  0  0  0  0
  1  2  2  0  0  0  0
 32 33  1  0  0  0  0
 33 41  1  0  0  0  0
 33 34  2  0  0  0  0
  8  9  1  0  0  0  0
  9 17  1  0  0  0  0
  9 10  2  0  0  0  0
 18 19  1  0  0  0  0
 19 31  1  0  0  0  0
 19 20  2  0  0  0  0
 32 35  1  0  0  0  0
  8 11  1  0  0  0  0
 21 23  1  0  0  0  0
 41 42  1  0  0  0  0
 31 32  1  0  0  0  0
  7  8  1  0  0  0  0
 18 21  1  0  0  0  0
 17 18  1  0  0  0  0
 21 22  1  0  0  0  0
  3  4  1  0  0  0  0
  3  5  1  0  0  0  0
  3  6  1  0  0  0  0
 35 38  1  0  0  0  0
 35 39  1  0  0  0  0
 35 40  1  0  0  0  0
 11 14  1  0  0  0  0
 11 15  1  0  0  0  0
 11 16  1  0  0  0  0
 23 28  1  0  0  0  0
 23 29  1  0  0  0  0
 23 30  1  0  0  0  0
 42 44  1  0  0  0  0
 42 45  1  0  0  0  0
 42 46  1  0  0  0  0
 32 37  1  0  0  0  0
  8 13  1  0  0  0  0
 18 25  1  0  0  0  0
 21 26  1  0  0  0  0
 41 43  1  0  0  0  0
  7 12  1  0  0  0  0
 31 36  1  0  0  0  0
 17 24  1  0  0  0  0
 22 27  1  0  0  0  0
M  END
$$$$

  -OEChem-05262214473D

 46 45  0     1  0  0  0  0  0999 V2000
   -4.6700    2.7214    1.5150 C   0  0  0  0  0  0  0  0  0  0  0  0
   -5.4532    2.5715    0.5845 O   0  0  0  0  0  0  0  0  0  0  0  0
   -5.0996    3.4865    2.7226 C   0  0  0  0  0  0  0  0  0  0  0  0
   -4.8796    4.5629    2.6387 H   0  0  0  0  0  0  0  0  0  0  0  0
   -6.1861    3.4241    2.8954 H   0  0  0  0  0  0  0  0  0  0  0  0
   -4.6369    3.1693    3.6708 H   0  0  0  0  0  0  0  0  0  0  0  0
   -3.3731    2.2391    1.5790 N   0  0  0  0  0  0  0  0  0  0  0  0
   -2.7599    1.4751    0.5247 C   0  0  2  0  0  0  0  0  0  0  0  0
   -1.5143    0.8067    1.0915 C   0  0  0  0  0  0  0  0  0  0  0  0
   -0.9247    1.2213    2.0872 O   0  0  0  0  0  0  0  0  0  0  0  0
   -2.4106    2.3553   -0.6653 C   0  0  0  0  0  0  0  0  0  0  0  0
   -2.8254    2.4352    2.4150 H   0  0  0  0  0  0  0  0  0  0  0  0
   -3.4836    0.7082    0.2278 H   0  0  0  0  0  0  0  0  0  0  0  0
   -1.6866    3.1298   -0.3871 H   0  0  0  0  0  0  0  0  0  0  0  0
   -1.9704    1.7677   -1.4777 H   0  0  0  0  0  0  0  0  0  0  0  0
   -3.3030    2.8584   -1.0531 H   0  0  0  0  0  0  0  0  0  0  0  0
   -1.1107   -0.2839    0.3303 N   0  0  0  0  0  0  0  0  0  0  0  0
    0.0490   -1.0750    0.6539 C   0  0  2  0  0  0  0  0  0  0  0  0
    1.2607   -0.1479    0.6288 C   0  0  0  0  0  0  0  0  0  0  0  0
    2.4194   -0.5586    0.6386 O   0  0  0  0  0  0  0  0  0  0  0  0
    0.2344   -2.2723   -0.2897 C   0  0  2  0  0  0  0  0  0  0  0  0
    0.4121   -1.8318   -1.6351 O   0  0  0  0  0  0  0  0  0  0  0  0
   -0.9605   -3.2177   -0.2632 C   0  0  0  0  0  0  0  0  0  0  0  0
   -1.6733   -0.5660   -0.4691 H   0  0  0  0  0  0  0  0  0  0  0  0
   -0.0935   -1.4282    1.6825 H   0  0  0  0  0  0  0  0  0  0  0  0
    1.1305   -2.8395   -0.0124 H   0  0  0  0  0  0  0  0  0  0  0  0
    0.5722   -2.6272   -2.1655 H   0  0  0  0  0  0  0  0  0  0  0  0
   -1.8868   -2.6995   -0.5340 H   0  0  0  0  0  0  0  0  0  0  0  0
   -1.0855   -3.6731    0.7238 H   0  0  0  0  0  0  0  0  0  0  0  0
   -0.8265   -4.0174   -1.0000 H   0  0  0  0  0  0  0  0  0  0  0  0
    0.8957    1.1909    0.6441 N   0  0  0  0  0  0  0  0  0  0  0  0
    1.8655    2.2607    0.6576 C   0  0  2  0  0  0  0  0  0  0  0  0
    2.3935    2.4348   -0.7602 C   0  0  0  0  0  0  0  0  0  0  0  0
    2.3468    1.5453   -1.6074 O   0  0  0  0  0  0  0  0  0  0  0  0
    2.9993    1.9675    1.6278 C   0  0  0  0  0  0  0  0  0  0  0  0
   -0.0922    1.4275    0.6458 H   0  0  0  0  0  0  0  0  0  0  0  0
    1.3319    3.1674    0.9631 H   0  0  0  0  0  0  0  0  0  0  0  0
    3.5455    1.0625    1.3380 H   0  0  0  0  0  0  0  0  0  0  0  0
    3.7188    2.7924    1.6581 H   0  0  0  0  0  0  0  0  0  0  0  0
    2.6146    1.8132    2.6417 H   0  0  0  0  0  0  0  0  0  0  0  0
    2.9622    3.6857   -0.9555 N   0  0  0  0  0  0  0  0  0  0  0  0
    3.5452    4.0893   -2.2137 C   0  0  0  0  0  0  0  0  0  0  0  0
    2.9400    4.3676   -0.2030 H   0  0  0  0  0  0  0  0  0  0  0  0
    4.6218    3.8636   -2.2088 H   0  0  0  0  0  0  0  0  0  0  0  0
    3.0597    3.5418   -3.0350 H   0  0  0  0  0  0  0  0  0  0  0  0
    3.3978    5.1701   -2.3560 H   0  0  0  0  0  0  0  0  0  0  0  0
  1  3  1  0  0  0  0
  1  7  1  0  0  0  0
  1  2  2  0  0  0  0
 32 33  1  0  0  0  0
 33 41  1  0  0  0  0
 33 34  2  0  0  0  0
  8  9  1  0  0  0  0
  9 17  1  0  0  0  0
  9 10  2  0  0  0  0
 18 19  1  0  0  0  0
 19 31  1  0  0  0  0
 19 20  2  0  0  0  0
 32 35  1  0  0  0  0
  8 11  1  0  0  0  0
 21 23  1  0  0  0  0
 41 42  1  0  0  0  0
 31 32  1  0  0  0  0
  7  8  1  0  0  0  0
 18 21  1  0  0  0  0
 17 18  1  0  0  0  0
 21 22  1  0  0  0  0
  3  4  1  0  0  0  0
  3  5  1  0  0  0  0
  3  6  1  0  0  0  0
 35 38  1  0  0  0  0
 35 39  1  0  0  0  0
 35 40  1  0  0  0  0
 11 14  1  0  0  0  0
 11 15  1  0  0  0  0
 11 16  1  0  0  0  0
 23 28  1  0  0  0  0
 23 29  1  0  0  0  0
 23 30  1  0  0  0  0
 42 44  1  0  0  0  0
 42 45  1  0  0  0  0
 42 46  1  0  0  0  0
 32 37  1  0  0  0  0
  8 13  1  0  0  0  0
 18 25  1  0  0  0  0
 21 26  1  0  0  0  0
 41 43  1  0  0  0  0
  7 12  1  0  0  0  0
 31 36  1  0  0  0  0
 17 24  1  0  0  0  0
 22 27  1  0  0  0  0
M  END
$$$$

  -OEChem-05262214473D

 46 45  0     1  0  0  0  0  0999 V2000
   -4.6700    2.7214    1.5150 C   0  0  0  0  0  0  0  0  0  0  0  0
   -5.4532    2.5715    0.5845 O   0  0  0  0  0  0  0  0  0  0  0  0
   -5.0996    3.4865    2.7226 C   0  0  0  0  0  0  0  0  0  0  0  0
   -4.8796    4.5629    2.6387 H   0  0  0  0  0  0  0  0  0  0  0  0
   -6.1861    3.4241    2.8954 H   0  0  0  0  0  0  0  0  0  0  0  0
   -4.6369    3.1693    3.6708 H   0  0  0  0  0  0  0  0  0  0  0  0
   -3.3731    2.2391    1.5790 N   0  0  0  0  0  0  0  0  0  0  0  0
   -2.7599    1.4751    0.5247 C   0  0  2  0  0  0  0  0  0  0  0  0
   -1.5143    0.8067    1.0915 C   0  0  0  0  0  0  0  0  0  0  0  0
   -0.9247    1.2213    2.0872 O   0  0  0  0  0  0  0  0  0  0  0  0
   -2.4106    2.3553   -0.6653 C   0  0  0  0  0  0  0  0  0  0  0  0
   -2.8254    2.4352    2.4150 H   0  0  0  0  0  0  0  0  0  0  0  0
   -3.4836    0.7082    0.2278 H   0  0  0  0  0  0  0  0  0  0  0  0
   -1.6866    3.1298   -0.3871 H   0  0  0  0  0  0  0  0  0  0  0  0
   -1.9704    1.7677   -1.4777 H   0  0  0  0  0  0  0  0  0  0  0  0
   -3.3030    2.8584   -1.0531 H   0  0  0  0  0  0  0  0  0  0  0  0
   -1.1107   -0.2839    0.3303 N   0  0  0  0  0  0  0  0  0  0  0  0
    0.0490   -1.0750    0.6539 C   0  0  2  0  0  0  0  0  0  0  0  0
    1.2607   -0.1479    0.6288 C   0  0  0  0  0  0  0  0  0  0  0  0
    2.3978   -0.5377    0.3713 O   0  0  0  0  0  0  0  0  0  0  0  0
    0.2344   -2.2723   -0.2897 C   0  0  2  0  0  0  0  0  0  0  0  0
    0.4121   -1.8318   -1.6351 O   0  0  0  0  0  0  0  0  0  0  0  0
   -0.9605   -3.2177   -0.2632 C   0  0  0  0  0  0  0  0  0  0  0  0
   -1.6733   -0.5660   -0.4691 H   0  0  0  0  0  0  0  0  0  0  0  0
   -0.0935   -1.4282    1.6825 H   0  0  0  0  0  0  0  0  0  0  0  0
    1.1305   -2.8395   -0.0124 H   0  0  0  0  0  0  0  0  0  0  0  0
    0.5722   -2.6272   -2.1655 H   0  0  0  0  0  0  0  0  0  0  0  0
   -1.8868   -2.6995   -0.5340 H   0  0  0  0  0  0  0  0  0  0  0  0
   -1.0855   -3.6731    0.7238 H   0  0  0  0  0  0  0  0  0  0  0  0
   -0.8265   -4.0174   -1.0000 H   0  0  0  0  0  0  0  0  0  0  0  0
    0.9304    1.1545    0.9758 N   0  0  0  0  0  0  0  0  0  0  0  0
    1.9122    2.2104    1.0555 C   0  0  2  0  0  0  0  0  0  0  0  0
    2.2149    2.6790   -0.3617 C   0  0  0  0  0  0  0  0  0  0  0  0
    2.0175    1.9824   -1.3551 O   0  0  0  0  0  0  0  0  0  0  0  0
    3.1778    1.7376    1.7536 C   0  0  0  0  0  0  0  0  0  0  0  0
   -0.0399    1.3736    1.1818 H   0  0  0  0  0  0  0  0  0  0  0  0
    1.4520    3.0282    1.6207 H   0  0  0  0  0  0  0  0  0  0  0  0
    3.6530    0.9183    1.2018 H   0  0  0  0  0  0  0  0  0  0  0  0
    3.9101    2.5472    1.8386 H   0  0  0  0  0  0  0  0  0  0  0  0
    2.9537    1.3732    2.7620 H   0  0  0  0  0  0  0  0  0  0  0  0
    2.7716    3.9502   -0.3833 N   0  0  0  0  0  0  0  0  0  0  0  0
    3.1584    4.6112   -1.6078 C   0  0  0  0  0  0  0  0  0  0  0  0
    2.8819    4.4623    0.4870 H   0  0  0  0  0  0  0  0  0  0  0  0
    4.2175    4.4025   -1.8191 H   0  0  0  0  0  0  0  0  0  0  0  0
    2.5389    4.2386   -2.4369 H   0  0  0  0  0  0  0  0  0  0  0  0
    3.0129    5.6962   -1.5003 H   0  0  0  0  0  0  0  0  0  0  0  0
  1  3  1  0  0  0  0
  1  7  1  0  0  0  0
  1  2  2  0  0  0  0
 32 33  1  0  0  0  0
 33 41  1  0  0  0  0
 33 34  2  0  0  0  0
  8  9  1  0  0  0  0
  9 17  1  0  0  0  0
  9 10  2  0  0  0  0
 18 19  1  0  0  0  0
 19 31  1  0  0  0  0
 19 20  2  0  0  0  0
 32 35  1  0  0  0  0
  8 11  1  0  0  0  0
 21 23  1  0  0  0  0
 41 42  1  0  0  0  0
 31 32  1  0  0  0  0
  7  8  1  0  0  0  0
 18 21  1  0  0  0  0
 17 18  1  0  0  0  0
 21 22  1  0  0  0  0
  3  4  1  0  0  0  0
  3  5  1  0  0  0  0
  3  6  1  0  0  0  0
 35 38  1  0  0  0  0
 35 39  1  0  0  0  0
 35 40  1  0  0  0  0
 11 14  1  0  0  0  0
 11 15  1  0  0  0  0
 11 16  1  0  0  0  0
 23 28  1  0  0  0  0
 23 29  1  0  0  0  0
 23 30  1  0  0  0  0
 42 44  1  0  0  0  0
 42 45  1  0  0  0  0
 42 46  1  0  0  0  0
 32 37  1  0  0  0  0
  8 13  1  0  0  0  0
 18 25  1  0  0  0  0
 21 26  1  0  0  0  0
 41 43  1  0  0  0  0
  7 12  1  0  0  0  0
 31 36  1  0  0  0  0
 17 24  1  0  0  0  0
 22 27  1  0  0  0  0
M  END
$$$$

  -OEChem-05262214473D

 46 45  0     1  0  0  0  0  0999 V2000
   -4.6700    2.7214    1.5150 C   0  0  0  0  0  0  0  0  0  0  0  0
   -5.4532    2.5715    0.5845 O   0  0  0  0  0  0  0  0  0  0  0  0
   -5.0996    3.4865    2.7226 C   0  0  0  0  0  0  0  0  0  0  0  0
   -4.8796    4.5629    2.6387 H   0  0  0  0  0  0  0  0  0  0  0  0
   -6.1861    3.4241    2.8954 H   0  0  0  0  0  0  0  0  0  0  0  0
   -4.6369    3.1693    3.6708 H   0  0  0  0  0  0  0  0  0  0  0  0
   -3.3731    2.2391    1.5790 N   0  0  0  0  0  0  0  0  0  0  0  0
   -2.7599    1.4751    0.5247 C   0  0  2  0  0  0  0  0  0  0  0  0
   -1.5143    0.8067    1.0915 C   0  0  0  0  0  0  0  0  0  0  0  0
   -0.9247    1.2213    2.0872 O   0  0  0  0  0  0  0  0  0  0  0  0
   -2.4106    2.3553   -0.6653 C   0  0  0  0  0  0  0  0  0  0  0  0
   -2.8254    2.4352    2.4150 H   0  0  0  0  0  0  0  0  0  0  0  0
   -3.4836    0.7082    0.2278 H   0  0  0  0  0  0  0  0  0  0  0  0
   -1.6866    3.1298   -0.3871 H   0  0  0  0  0  0  0  0  0  0  0  0
   -1.9704    1.7677   -1.4777 H   0  0  0  0  0  0  0  0  0  0  0  0
   -3.3030    2.8584   -1.0531 H   0  0  0  0  0  0  0  0  0  0  0  0
   -1.1107   -0.2839    0.3303 N   0  0  0  0  0  0  0  0  0  0  0  0
    0.0490   -1.0750    0.6539 C   0  0  2  0  0  0  0  0  0  0  0  0
    1.2607   -0.1479    0.6288 C   0  0  0  0  0  0  0  0  0  0  0  0
    2.3350   -0.4625    0.1207 O   0  0  0  0  0  0  0  0  0  0  0  0
    0.2344   -2.2723   -0.2897 C   0  0  2  0  0  0  0  0  0  0  0  0
    0.4121   -1.8318   -1.6351 O   0  0  0  0  0  0  0  0  0  0  0  0
   -0.9605   -3.2177   -0.2632 C   0  0  0  0  0  0  0  0  0  0  0  0
   -1.6733   -0.5660   -0.4691 H   0  0  0  0  0  0  0  0  0  0  0  0
   -0.0935   -1.4282    1.6825 H   0  0  0  0  0  0  0  0  0  0  0  0
    1.1305   -2.8395   -0.0124 H   0  0  0  0  0  0  0  0  0  0  0  0
    0.5722   -2.6272   -2.1655 H   0  0  0  0  0  0  0  0  0  0  0  0
   -1.8868   -2.6995   -0.5340 H   0  0  0  0  0  0  0  0  0  0  0  0
   -1.0855   -3.6731    0.7238 H   0  0  0  0  0  0  0  0  0  0  0  0
   -0.8265   -4.0174   -1.0000 H   0  0  0  0  0  0  0  0  0  0  0  0
    1.0159    1.0511    1.2833 N   0  0  0  0  0  0  0  0  0  0  0  0
    2.0197    2.0798    1.4221 C   0  0  2  0  0  0  0  0  0  0  0  0
    2.1061    2.8338    0.1016 C   0  0  0  0  0  0  0  0  0  0  0  0
    1.7410    2.3543   -0.9698 O   0  0  0  0  0  0  0  0  0  0  0  0
    3.3691    1.4889    1.7998 C   0  0  0  0  0  0  0  0  0  0  0  0
    0.0947    1.2112    1.6802 H   0  0  0  0  0  0  0  0  0  0  0  0
    1.6709    2.7581    2.2084 H   0  0  0  0  0  0  0  0  0  0  0  0
    3.7348    0.8066    1.0238 H   0  0  0  0  0  0  0  0  0  0  0  0
    4.1223    2.2725    1.9326 H   0  0  0  0  0  0  0  0  0  0  0  0
    3.2984    0.9220    2.7344 H   0  0  0  0  0  0  0  0  0  0  0  0
    2.6787    4.0888    0.2538 N   0  0  0  0  0  0  0  0  0  0  0  0
    2.8822    4.9925   -0.8544 C   0  0  0  0  0  0  0  0  0  0  0  0
    2.9346    4.4121    1.1821 H   0  0  0  0  0  0  0  0  0  0  0  0
    3.8906    4.8446   -1.2683 H   0  0  0  0  0  0  0  0  0  0  0  0
    2.1328    4.7910   -1.6340 H   0  0  0  0  0  0  0  0  0  0  0  0
    2.7780    6.0303   -0.5050 H   0  0  0  0  0  0  0  0  0  0  0  0
  1  3  1  0  0  0  0
  1  7  1  0  0  0  0
  1  2  2  0  0  0  0
 32 33  1  0  0  0  0
 33 41  1  0  0  0  0
 33 34  2  0  0  0  0
  8  9  1  0  0  0  0
  9 17  1  0  0  0  0
  9 10  2  0  0  0  0
 18 19  1  0  0  0  0
 19 31  1  0  0  0  0
 19 20  2  0  0  0  0
 32 35  1  0  0  0  0
  8 11  1  0  0  0  0
 21 23  1  0  0  0  0
 41 42  1  0  0  0  0
 31 32  1  0  0  0  0
  7  8  1  0  0  0  0
 18 21  1  0  0  0  0
 17 18  1  0  0  0  0
 21 22  1  0  0  0  0
  3  4  1  0  0  0  0
  3  5  1  0  0  0  0
  3  6  1  0  0  0  0
 35 38  1  0  0  0  0
 35 39  1  0  0  0  0
 35 40  1  0  0  0  0
 11 14  1  0  0  0  0
 11 15  1  0  0  0  0
 11 16  1  0  0  0  0
 23 28  1  0  0  0  0
 23 29  1  0  0  0  0
 23 30  1  0  0  0  0
 42 44  1  0  0  0  0
 42 45  1  0  0  0  0
 42 46  1  0  0  0  0
 32 37  1  0  0  0  0
  8 13  1  0  0  0  0
 18 25  1  0  0  0  0
 21 26  1  0  0  0  0
 41 43  1  0  0  0  0
  7 12  1  0  0  0  0
 31 36  1  0  0  0  0
 17 24  1  0  0  0  0
 22 27  1  0  0  0  0
M  END
$$$$

  -OEChem-05262214473D

 46 45  0     1  0  0  0  0  0999 V2000
   -4.6700    2.7214    1.5150 C   0  0  0  0  0  0  0  0  0  0  0  0
   -5.4532    2.5715    0.5845 O   0  0  0  0  0  0  0  0  0  0  0  0
   -5.0996    3.4865    2.7226 C   0  0  0  0  0  0  0  0  0  0  0  0
   -4.8796    4.5629    2.6387 H   0  0  0  0  0  0  0  0  0  0  0  0
   -6.1861    3.4241    2.8954 H   0  0  0  0  0  0  0  0  0  0  0  0
   -4.6369    3.1693    3.6708 H   0  0  0  0  0  0  0  0  0  0  0  0
   -3.3731    2.2391    1.5790 N   0  0  0  0  0  0  0  0  0  0  0  0
   -2.7599    1.4751    0.5247 C   0  0  2  0  0  0  0  0  0  0  0  0
   -1.5143    0.8067    1.0915 C   0  0  0  0  0  0  0  0  0  0  0  0
   -0.9247    1.2213    2.0872 O   0  0  0  0  0  0  0  0  0  0  0  0
   -2.4106    2.3553   -0.6653 C   0  0  0  0  0  0  0  0  0  0  0  0
   -2.8254    2.4352    2.4150 H   0  0  0  0  0  0  0  0  0  0  0  0
   -3.4836    0.7082    0.2278 H   0  0  0  0  0  0  0  0  0  0  0  0
   -1.6866    3.1298   -0.3871 H   0  0  0  0  0  0  0  0  0  0  0  0
   -1.9704    1.7677   -1.4777 H   0  0  0  0  0  0  0  0  0  0  0  0
   -3.3030    2.8584   -1.0531 H   0  0  0  0  0  0  0  0  0  0  0  0
   -1.1107   -0.2839    0.3303 N   0  0  0  0  0  0  0  0  0  0  0  0
    0.0490   -1.0750    0.6539 C   0  0  2  0  0  0  0  0  0  0  0  0
    1.2607   -0.1479    0.6288 C   0  0  0  0  0  0  0  0  0  0  0  0
    2.2353   -0.3380   -0.0959 O   0  0  0  0  0  0  0  0  0  0  0  0
    0.2344   -2.2723   -0.2897 C   0  0  2  0  0  0  0  0  0  0  0  0
    0.4121   -1.8318   -1.6351 O   0  0  0  0  0  0  0  0  0  0  0  0
   -0.9605   -3.2177   -0.2632 C   0  0  0  0  0  0  0  0  0  0  0  0
   -1.6733   -0.5660   -0.4691 H   0  0  0  0  0  0  0  0  0  0  0  0
   -0.0935   -1.4282    1.6825 H   0  0  0  0  0  0  0  0  0  0  0  0
    1.1305   -2.8395   -0.0124 H   0  0  0  0  0  0  0  0  0  0  0  0
    0.5722   -2.6272   -2.1655 H   0  0  0  0  0  0  0  0  0  0  0  0
   -1.8868   -2.6995   -0.5340 H   0  0  0  0  0  0  0  0  0  0  0  0
   -1.0855   -3.6731    0.7238 H   0  0  0  0  0  0  0  0  0  0  0  0
   -0.8265   -4.0174   -1.0000 H   0  0  0  0  0  0  0  0  0  0  0  0
    1.1464    0.8876    1.5456 N   0  0  0  0  0  0  0  0  0  0  0  0
    2.1807    1.8779    1.7324 C   0  0  2  0  0  0  0  0  0  0  0  0
    2.0745    2.8885    0.5980 C   0  0  0  0  0  0  0  0  0  0  0  0
    1.5361    2.6354   -0.4777 O   0  0  0  0  0  0  0  0  0  0  0  0
    3.5601    1.2383    1.7633 C   0  0  0  0  0  0  0  0  0  0  0  0
    0.3024    0.9514    2.1071 H   0  0  0  0  0  0  0  0  0  0  0  0
    1.9736    2.3754    2.6861 H   0  0  0  0  0  0  0  0  0  0  0  0
    3.7854    0.7349    0.8160 H   0  0  0  0  0  0  0  0  0  0  0  0
    4.3408    1.9870    1.9335 H   0  0  0  0  0  0  0  0  0  0  0  0
    3.6251    0.4903    2.5608 H   0  0  0  0  0  0  0  0  0  0  0  0
    2.6898    4.0922    0.9122 N   0  0  0  0  0  0  0  0  0  0  0  0
    2.7356    5.2071   -0.0049 C   0  0  0  0  0  0  0  0  0  0  0  0
    3.0947    4.2206    1.8349 H   0  0  0  0  0  0  0  0  0  0  0  0
    3.6634    5.1599   -0.5941 H   0  0  0  0  0  0  0  0  0  0  0  0
    1.8692    5.1613   -0.6811 H   0  0  0  0  0  0  0  0  0  0  0  0
    2.7090    6.1494    0.5620 H   0  0  0  0  0  0  0  0  0  0  0  0
  1  3  1  0  0  0  0
  1  7  1  0  0  0  0
  1  2  2  0  0  0  0
 32 33  1  0  0  0  0
 33 41  1  0  0  0  0
 33 34  2  0  0  0  0
  8  9  1  0  0  0  0
  9 17  1  0  0  0  0
  9 10  2  0  0  0  0
 18 19  1  0  0  0  0
 19 31  1  0  0  0  0
 19 20  2  0  0  0  0
 32 35  1  0  0  0  0
  8 11  1  0  0  0  0
 21 23  1  0  0  0  0
 41 42  1  0  0  0  0
 31 32  1  0  0  0  0
  7  8  1  0  0  0  0
 18 21  1  0  0  0  0
 17 18  1  0  0  0  0
 21 22  1  0  0  0  0
  3  4  1  0  0  0  0
  3  5  1  0  0  0  0
  3  6  1  0  0  0  0
 35 38  1  0  0  0  0
 35 39  1  0  0  0  0
 35 40  1  0  0  0  0
 11 14  1  0  0  0  0
 11 15  1  0  0  0  0
 11 16  1  0  0  0  0
 23 28  1  0  0  0  0
 23 29  1  0  0  0  0
 23 30  1  0  0  0  0
 42 44  1  0  0  0  0
 42 45  1  0  0  0  0
 42 46  1  0  0  0  0
 32 37  1  0  0  0  0
  8 13  1  0  0  0  0
 18 25  1  0  0  0  0
 21 26  1  0  0  0  0
 41 43  1  0  0  0  0
  7 12  1  0  0  0  0
 31 36  1  0  0  0  0
 17 24  1  0  0  0  0
 22 27  1  0  0  0  0
M  END
$$$$

  -OEChem-05262214473D

 46 45  0     1  0  0  0  0  0999 V2000
   -4.6700    2.7214    1.5150 C   0  0  0  0  0  0  0  0  0  0  0  0
   -5.4532    2.5715    0.5845 O   0  0  0  0  0  0  0  0  0  0  0  0
   -5.0996    3.4865    2.7226 C   0  0  0  0  0  0  0  0  0  0  0  0
   -4.8796    4.5629    2.6387 H   0  0  0  0  0  0  0  0  0  0  0  0
   -6.1861    3.4241    2.8954 H   0  0  0  0  0  0  0  0  0  0  0  0
   -4.6369    3.1693    3.6708 H   0  0  0  0  0  0  0  0  0  0  0  0
   -3.3731    2.2391    1.5790 N   0  0  0  0  0  0  0  0  0  0  0  0
   -2.7599    1.4751    0.5247 C   0  0  2  0  0  0  0  0  0  0  0  0
   -1.5143    0.8067    1.0915 C   0  0  0  0  0  0  0  0  0  0  0  0
   -0.9247    1.2213    2.0872 O   0  0  0  0  0  0  0  0  0  0  0  0
   -2.4106    2.3553   -0.6653 C   0  0  0  0  0  0  0  0  0  0  0  0
   -2.8254    2.4352    2.4150 H   0  0  0  0  0  0  0  0  0  0  0  0
   -3.4836    0.7082    0.2278 H   0  0  0  0  0  0  0  0  0  0  0  0
   -1.6866    3.1298   -0.3871 H   0  0  0  0  0  0  0  0  0  0  0  0
   -1.9704    1.7677   -1.4777 H   0  0  0  0  0  0  0  0  0  0  0  0
   -3.3030    2.8584   -1.0531 H   0  0  0  0  0  0  0  0  0  0  0  0
   -1.1107   -0.2839    0.3303 N   0  0  0  0  0  0  0  0  0  0  0  0
    0.0490   -1.0750    0.6539 C   0  0  2  0  0  0  0  0  0  0  0  0
    1.2607   -0.1479    0.6288 C   0  0  0  0  0  0  0  0  0  0  0  0
    2.1055   -0.1729   -0.2640 O   0  0  0  0  0  0  0  0  0  0  0  0
    0.2344   -2.2723   -0.2897 C   0  0  2  0  0  0  0  0  0  0  0  0
    0.4121   -1.8318   -1.6351 O   0  0  0  0  0  0  0  0  0  0  0  0
   -0.9605   -3.2177   -0.2632 C   0  0  0  0  0  0  0  0  0  0  0  0
   -1.6733   -0.5660   -0.4691 H   0  0  0  0  0  0  0  0  0  0  0  0
   -0.0935   -1.4282    1.6825 H   0  0  0  0  0  0  0  0  0  0  0  0
    1.1305   -2.8395   -0.0124 H   0  0  0  0  0  0  0  0  0  0  0  0
    0.5722   -2.6272   -2.1655 H   0  0  0  0  0  0  0  0  0  0  0  0
   -1.8868   -2.6995   -0.5340 H   0  0  0  0  0  0  0  0  0  0  0  0
   -1.0855   -3.6731    0.7238 H   0  0  0  0  0  0  0  0  0  0  0  0
   -0.8265   -4.0174   -1.0000 H   0  0  0  0  0  0  0  0  0  0  0  0
    1.3131    0.6752    1.7448 N   0  0  0  0  0  0  0  0  0  0  0  0
    2.3841    1.6184    1.9654 C   0  0  2  0  0  0  0  0  0  0  0  0
    2.1223    2.8395    1.0937 C   0  0  0  0  0  0  0  0  0  0  0  0
    1.4167    2.8067    0.0877 O   0  0  0  0  0  0  0  0  0  0  0  0
    3.7377    1.0030    1.6464 C   0  0  0  0  0  0  0  0  0  0  0  0
    0.5690    0.6117    2.4335 H   0  0  0  0  0  0  0  0  0  0  0  0
    2.3395    1.9063    3.0214 H   0  0  0  0  0  0  0  0  0  0  0  0
    3.8012    0.7081    0.5926 H   0  0  0  0  0  0  0  0  0  0  0  0
    4.5508    1.7100    1.8413 H   0  0  0  0  0  0  0  0  0  0  0  0
    3.9115    0.1077    2.2531 H   0  0  0  0  0  0  0  0  0  0  0  0
    2.8040    3.9602    1.5472 N   0  0  0  0  0  0  0  0  0  0  0  0
    2.7285    5.2404    0.8828 C   0  0  0  0  0  0  0  0  0  0  0  0
    3.3512    3.9007    2.4009 H   0  0  0  0  0  0  0  0  0  0  0  0
    3.5512    5.3268    0.1577 H   0  0  0  0  0  0  0  0  0  0  0  0
    1.7661    5.3242    0.3569 H   0  0  0  0  0  0  0  0  0  0  0  0
    2.8106    6.0454    1.6279 H   0  0  0  0  0  0  0  0  0  0  0  0
  1  3  1  0  0  0  0
  1  7  1  0  0  0  0
  1  2  2  0  0  0  0
 32 33  1  0  0  0  0
 33 41  1  0  0  0  0
 33 34  2  0  0  0  0
  8  9  1  0  0  0  0
  9 17  1  0  0  0  0
  9 10  2  0  0  0  0
 18 19  1  0  0  0  0
 19 31  1  0  0  0  0
 19 20  2  0  0  0  0
 32 35  1  0  0  0  0
  8 11  1  0  0  0  0
 21 23  1  0  0  0  0
 41 42  1  0  0  0  0
 31 32  1  0  0  0  0
  7  8  1  0  0  0  0
 18 21  1  0  0  0  0
 17 18  1  0  0  0  0
 21 22  1  0  0  0  0
  3  4  1  0  0  0  0
  3  5  1  0  0  0  0
  3  6  1  0  0  0  0
 35 38  1  0  0  0  0
 35 39  1  0  0  0  0
 35 40  1  0  0  0  0
 11 14  1  0  0  0  0
 11 15  1  0  0  0  0
 11 16  1  0  0  0  0
 23 28  1  0  0  0  0
 23 29  1  0  0  0  0
 23 30  1  0  0  0  0
 42 44  1  0  0  0  0
 42 45  1  0  0  0  0
 42 46  1  0  0  0  0
 32 37  1  0  0  0  0
  8 13  1  0  0  0  0
 18 25  1  0  0  0  0
 21 26  1  0  0  0  0
 41 43  1  0  0  0  0
  7 12  1  0  0  0  0
 31 36  1  0  0  0  0
 17 24  1  0  0  0  0
 22 27  1  0  0  0  0
M  END
$$$$

  -OEChem-05262214473D

 46 45  0     1  0  0  0  0  0999 V2000
   -4.6700    2.7214    1.5150 C   0  0  0  0  0  0  0  0  0  0  0  0
   -5.4532    2.5715    0.5845 O   0  0  0  0  0  0  0  0  0  0  0  0
   -5.0996    3.4865    2.7226 C   0  0  0  0  0  0  0  0  0  0  0  0
   -4.8796    4.5629    2.6387 H   0  0  0  0  0  0  0  0  0  0  0  0
   -6.1861    3.4241    2.8954 H   0  0  0  0  0  0  0  0  0  0  0  0
   -4.6369    3.1693    3.6708 H   0  0  0  0  0  0  0  0  0  0  0  0
   -3.3731    2.2391    1.5790 N   0  0  0  0  0  0  0  0  0  0  0  0
   -2.7599    1.4751    0.5247 C   0  0  2  0  0  0  0  0  0  0  0  0
   -1.5143    0.8067    1.0915 C   0  0  0  0  0  0  0  0  0  0  0  0
   -0.9247    1.2213    2.0872 O   0  0  0  0  0  0  0  0  0  0  0  0
   -2.4106    2.3553   -0.6653 C   0  0  0  0  0  0  0  0  0  0  0  0
   -2.8254    2.4352    2.4150 H   0  0  0  0  0  0  0  0  0  0  0  0
   -3.4836    0.7082    0.2278 H   0  0  0  0  0  0  0  0  0  0  0  0
   -1.6866    3.1298   -0.3871 H   0  0  0  0  0  0  0  0  0  0  0  0
   -1.9704    1.7677   -1.4777 H   0  0  0  0  0  0  0  0  0  0  0  0
   -3.3030    2.8584   -1.0531 H   0  0  0  0  0  0  0  0  0  0  0  0
   -1.1107   -0.2839    0.3303 N   0  0  0  0  0  0  0  0  0  0  0  0
    0.0490   -1.0750    0.6539 C   0  0  2  0  0  0  0  0  0  0  0  0
    1.2607   -0.1479    0.6288 C   0  0  0  0  0  0  0  0  0  0  0  0
    1.9543    0.0217   -0.3719 O   0  0  0  0  0  0  0  0  0  0  0  0
    0.2344   -2.2723   -0.2897 C   0  0  2  0  0  0  0  0  0  0  0  0
    0.4121   -1.8318   -1.6351 O   0  0  0  0  0  0  0  0  0  0  0  0
   -0.9605   -3.2177   -0.2632 C   0  0  0  0  0  0  0  0  0  0  0  0
   -1.6733   -0.5660   -0.4691 H   0  0  0  0  0  0  0  0  0  0  0  0
   -0.0935   -1.4282    1.6825 H   0  0  0  0  0  0  0  0  0  0  0  0
    1.1305   -2.8395   -0.0124 H   0  0  0  0  0  0  0  0  0  0  0  0
    0.5722   -2.6272   -2.1655 H   0  0  0  0  0  0  0  0  0  0  0  0
   -1.8868   -2.6995   -0.5340 H   0  0  0  0  0  0  0  0  0  0  0  0
   -1.0855   -3.6731    0.7238 H   0  0  0  0  0  0  0  0  0  0  0  0
   -0.8265   -4.0174   -1.0000 H   0  0  0  0  0  0  0  0  0  0  0  0
    1.5044    0.4284    1.8674 N   0  0  0  0  0  0  0  0  0  0  0  0
    2.6161    1.3189    2.1051 C   0  0  2  0  0  0  0  0  0  0  0  0
    2.2462    2.6901    1.5550 C   0  0  0  0  0  0  0  0  0  0  0  0
    1.3911    2.8565    0.6877 O   0  0  0  0  0  0  0  0  0  0  0  0
    3.8899    0.7989    1.4572 C   0  0  0  0  0  0  0  0  0  0  0  0
    0.8764    0.2155    2.6369 H   0  0  0  0  0  0  0  0  0  0  0  0
    2.7436    1.3828    3.1912 H   0  0  0  0  0  0  0  0  0  0  0  0
    3.7813    0.7281    0.3688 H   0  0  0  0  0  0  0  0  0  0  0  0
    4.7380    1.4605    1.6624 H   0  0  0  0  0  0  0  0  0  0  0  0
    4.1381   -0.1999    1.8321 H   0  0  0  0  0  0  0  0  0  0  0  0
    3.0136    3.7016    2.1154 N   0  0  0  0  0  0  0  0  0  0  0  0
    2.8614    5.0901    1.7482 C   0  0  0  0  0  0  0  0  0  0  0  0
    3.6865    3.4744    2.8415 H   0  0  0  0  0  0  0  0  0  0  0  0
    3.5618    5.3340    0.9358 H   0  0  0  0  0  0  0  0  0  0  0  0
    1.8303    5.2688    1.4092 H   0  0  0  0  0  0  0  0  0  0  0  0
    3.0760    5.7255    2.6202 H   0  0  0  0  0  0  0  0  0  0  0  0
  1  3  1  0  0  0  0
  1  7  1  0  0  0  0
  1  2  2  0  0  0  0
 32 33  1  0  0  0  0
 33 41  1  0  0  0  0
 33 34  2  0  0  0  0
  8  9  1  0  0  0  0
  9 17  1  0  0  0  0
  9 10  2  0  0  0  0
 18 19  1  0  0  0  0
 19 31  1  0  0  0  0
 19 20  2  0  0  0  0
 32 35  1  0  0  0  0
  8 11  1  0  0  0  0
 21 23  1  0  0  0  0
 41 42  1  0  0  0  0
 31 32  1  0  0  0  0
  7  8  1  0  0  0  0
 18 21  1  0  0  0  0
 17 18  1  0  0  0  0
 21 22  1  0  0  0  0
  3  4  1  0  0  0  0
  3  5  1  0  0  0  0
  3  6  1  0  0  0  0
 35 38  1  0  0  0  0
 35 39  1  0  0  0  0
 35 40  1  0  0  0  0
 11 14  1  0  0  0  0
 11 15  1  0  0  0  0
 11 16  1  0  0  0  0
 23 28  1  0  0  0  0
 23 29  1  0  0  0  0
 23 30  1  0  0  0  0
 42 44  1  0  0  0  0
 42 45  1  0  0  0  0
 42 46  1  0  0  0  0
 32 37  1  0  0  0  0
  8 13  1  0  0  0  0
 18 25  1  0  0  0  0
 21 26  1  0  0  0  0
 41 43  1  0  0  0  0
  7 12  1  0  0  0  0
 31 36  1  0  0  0  0
 17 24  1  0  0  0  0
 22 27  1  0  0  0  0
M  END
$$$$

  -OEChem-05262214473D

 46 45  0     1  0  0  0  0  0999 V2000
   -4.6700    2.7214    1.5150 C   0  0  0  0  0  0  0  0  0  0  0  0
   -5.4532    2.5715    0.5845 O   0  0  0  0  0  0  0  0  0  0  0  0
   -5.0996    3.4865    2.7226 C   0  0  0  0  0  0  0  0  0  0  0  0
   -4.8796    4.5629    2.6387 H   0  0  0  0  0  0  0  0  0  0  0  0
   -6.1861    3.4241    2.8954 H   0  0  0  0  0  0  0  0  0  0  0  0
   -4.6369    3.1693    3.6708 H   0  0  0  0  0  0  0  0  0  0  0  0
   -3.3731    2.2391    1.5790 N   0  0  0  0  0  0  0  0  0  0  0  0
   -2.7599    1.4751    0.5247 C   0  0  2  0  0  0  0  0  0  0  0  0
   -1.5143    0.8067    1.0915 C   0  0  0  0  0  0  0  0  0  0  0  0
   -0.9247    1.2213    2.0872 O   0  0  0  0  0  0  0  0  0  0  0  0
   -2.4106    2.3553   -0.6653 C   0  0  0  0  0  0  0  0  0  0  0  0
   -2.8254    2.4352    2.4150 H   0  0  0  0  0  0  0  0  0  0  0  0
   -3.4836    0.7082    0.2278 H   0  0  0  0  0  0  0  0  0  0  0  0
   -1.6866    3.1298   -0.3871 H   0  0  0  0  0  0  0  0  0  0  0  0
   -1.9704    1.7677   -1.4777 H   0  0  0  0  0  0  0  0  0  0  0  0
   -3.3030    2.8584   -1.0531 H   0  0  0  0  0  0  0  0  0  0  0  0
   -1.1107   -0.2839    0.3303 N   0  0  0  0  0  0  0  0  0  0  0  0
    0.0490   -1.0750    0.6539 C   0  0  2  0  0  0  0  0  0  0  0  0
    1.2607   -0.1479    0.6288 C   0  0  0  0  0  0  0  0  0  0  0  0
    1.7922    0.2325   -0.4124 O   0  0  0  0  0  0  0  0  0  0  0  0
    0.2344   -2.2723   -0.2897 C   0  0  2  0  0  0  0  0  0  0  0  0
    0.4121   -1.8318   -1.6351 O   0  0  0  0  0  0  0  0  0  0  0  0
   -0.9605   -3.2177   -0.2632 C   0  0  0  0  0  0  0  0  0  0  0  0
   -1.6733   -0.5660   -0.4691 H   0  0  0  0  0  0  0  0  0  0  0  0
   -0.0935   -1.4282    1.6825 H   0  0  0  0  0  0  0  0  0  0  0  0
    1.1305   -2.8395   -0.0124 H   0  0  0  0  0  0  0  0  0  0  0  0
    0.5722   -2.6272   -2.1655 H   0  0  0  0  0  0  0  0  0  0  0  0
   -1.8868   -2.6995   -0.5340 H   0  0  0  0  0  0  0  0  0  0  0  0
   -1.0855   -3.6731    0.7238 H   0  0  0  0  0  0  0  0  0  0  0  0
   -0.8265   -4.0174   -1.0000 H   0  0  0  0  0  0  0  0  0  0  0  0
    1.7075    0.1640    1.9050 N   0  0  0  0  0  0  0  0  0  0  0  0
    2.8609    1.0000    2.1420 C   0  0  2  0  0  0  0  0  0  0  0  0
    2.4378    2.4504    1.9503 C   0  0  0  0  0  0  0  0  0  0  0  0
    1.4608    2.7814    1.2816 O   0  0  0  0  0  0  0  0  0  0  0  0
    4.0063    0.6401    1.2086 C   0  0  0  0  0  0  0  0  0  0  0  0
    1.2037   -0.2104    2.7037 H   0  0  0  0  0  0  0  0  0  0  0  0
    3.1584    0.8404    3.1841 H   0  0  0  0  0  0  0  0  0  0  0  0
    3.7269    0.7935    0.1599 H   0  0  0  0  0  0  0  0  0  0  0  0
    4.8896    1.2556    1.4088 H   0  0  0  0  0  0  0  0  0  0  0  0
    4.2895   -0.4114    1.3267 H   0  0  0  0  0  0  0  0  0  0  0  0
    3.3043    3.3342    2.5781 N   0  0  0  0  0  0  0  0  0  0  0  0
    3.1252    4.7666    2.5324 C   0  0  0  0  0  0  0  0  0  0  0  0
    4.0780    2.9706    3.1268 H   0  0  0  0  0  0  0  0  0  0  0  0
    3.6945    5.1810    1.6873 H   0  0  0  0  0  0  0  0  0  0  0  0
    2.0577    4.9986    2.4042 H   0  0  0  0  0  0  0  0  0  0  0  0
    3.4870    5.2114    3.4712 H   0  0  0  0  0  0  0  0  0  0  0  0
  1  3  1  0  0  0  0
  1  7  1  0  0  0  0
  1  2  2  0  0  0  0
 32 33  1  0  0  0  0
 33 41  1  0  0  0  0
 33 34  2  0  0  0  0
  8  9  1  0  0  0  0
  9 17  1  0  0  0  0
  9 10  2  0  0  0  0
 18 19  1  0  0  0  0
 19 31  1  0  0  0  0
 19 20  2  0  0  0  0
 32 35  1  0  0  0  0
  8 11  1  0  0  0  0
 21 23  1  0  0  0  0
 41 42  1  0  0  0  0
 31 32  1  0  0  0  0
  7  8  1  0  0  0  0
 18 21  1  0  0  0  0
 17 18  1  0  0  0  0
 21 22  1  0  0  0  0
  3  4  1  0  0  0  0
  3  5  1  0  0  0  0
  3  6  1  0  0  0  0
 35 38  1  0  0  0  0
 35 39  1  0  0  0  0
 35 40  1  0  0  0  0
 11 14  1  0  0  0  0
 11 15  1  0  0  0  0
 11 16  1  0  0  0  0
 23 28  1  0  0  0  0
 23 29  1  0  0  0  0
 23 30  1  0  0  0  0
 42 44  1  0  0  0  0
 42 45  1  0  0  0  0
 42 46  1  0  0  0  0
 32 37  1  0  0  0  0
  8 13  1  0  0  0  0
 18 25  1  0  0  0  0
 21 26  1  0  0  0  0
 41 43  1  0  0  0  0
  7 12  1  0  0  0  0
 31 36  1  0  0  0  0
 17 24  1  0  0  0  0
 22 27  1  0  0  0  0
M  END
$$$$

  -OEChem-05262214473D

 46 45  0     1  0  0  0  0  0999 V2000
   -4.6700    2.7214    1.5150 C   0  0  0  0  0  0  0  0  0  0  0  0
   -5.4532    2.5715    0.5845 O   0  0  0  0  0  0  0  0  0  0  0  0
   -5.0996    3.4865    2.7226 C   0  0  0  0  0  0  0  0  0  0  0  0
   -4.8796    4.5629    2.6387 H   0  0  0  0  0  0  0  0  0  0  0  0
   -6.1861    3.4241    2.8954 H   0  0  0  0  0  0  0  0  0  0  0  0
   -4.6369    3.1693    3.6708 H   0  0  0  0  0  0  0  0  0  0  0  0
   -3.3731    2.2391    1.5790 N   0  0  0  0  0  0  0  0  0  0  0  0
   -2.7599    1.4751    0.5247 C   0  0  2  0  0  0  0  0  0  0  0  0
   -1.5143    0.8067    1.0915 C   0  0  0  0  0  0  0  0  0  0  0  0
   -0.9247    1.2213    2.0872 O   0  0  0  0  0  0  0  0  0  0  0  0
   -2.4106    2.3553   -0.6653 C   0  0  0  0  0  0  0  0  0  0  0  0
   -2.8254    2.4352    2.4150 H   0  0  0  0  0  0  0  0  0  0  0  0
   -3.4836    0.7082    0.2278 H   0  0  0  0  0  0  0  0  0  0  0  0
   -1.6866    3.1298   -0.3871 H   0  0  0  0  0  0  0  0  0  0  0  0
   -1.9704    1.7677   -1.4777 H   0  0  0  0  0  0  0  0  0  0  0  0
   -3.3030    2.8584   -1.0531 H   0  0  0  0  0  0  0  0  0  0  0  0
   -1.1107   -0.2839    0.3303 N   0  0  0  0  0  0  0  0  0  0  0  0
    0.0490   -1.0750    0.6539 C   0  0  2  0  0  0  0  0  0  0  0  0
    1.2607   -0.1479    0.6288 C   0  0  0  0  0  0  0  0  0  0  0  0
    1.6301    0.4452   -0.3827 O   0  0  0  0  0  0  0  0  0  0  0  0
    0.2344   -2.2723   -0.2897 C   0  0  2  0  0  0  0  0  0  0  0  0
    0.4121   -1.8318   -1.6351 O   0  0  0  0  0  0  0  0  0  0  0  0
   -0.9605   -3.2177   -0.2632 C   0  0  0  0  0  0  0  0  0  0  0  0
   -1.6733   -0.5660   -0.4691 H   0  0  0  0  0  0  0  0  0  0  0  0
   -0.0935   -1.4282    1.6825 H   0  0  0  0  0  0  0  0  0  0  0  0
    1.1305   -2.8395   -0.0124 H   0  0  0  0  0  0  0  0  0  0  0  0
    0.5722   -2.6272   -2.1655 H   0  0  0  0  0  0  0  0  0  0  0  0
   -1.8868   -2.6995   -0.5340 H   0  0  0  0  0  0  0  0  0  0  0  0
   -1.0855   -3.6731    0.7238 H   0  0  0  0  0  0  0  0  0  0  0  0
   -0.8265   -4.0174   -1.0000 H   0  0  0  0  0  0  0  0  0  0  0  0
    1.9085   -0.1000    1.8551 N   0  0  0  0  0  0  0  0  0  0  0  0
    3.1018    0.6833    2.0736 C   0  0  2  0  0  0  0  0  0  0  0  0
    2.6840    2.1369    2.2528 C   0  0  0  0  0  0  0  0  0  0  0  0
    1.6213    2.5865    1.8288 O   0  0  0  0  0  0  0  0  0  0  0  0
    4.0790    0.5372    0.9176 C   0  0  0  0  0  0  0  0  0  0  0  0
    1.5285   -0.6369    2.6292 H   0  0  0  0  0  0  0  0  0  0  0  0
    3.5557    0.3163    3.0006 H   0  0  0  0  0  0  0  0  0  0  0  0
    3.6418    0.8999   -0.0199 H   0  0  0  0  0  0  0  0  0  0  0  0
    4.9953    1.1090    1.0979 H   0  0  0  0  0  0  0  0  0  0  0  0
    4.3554   -0.5125    0.7712 H   0  0  0  0  0  0  0  0  0  0  0  0
    3.6564    2.8829    2.9039 N   0  0  0  0  0  0  0  0  0  0  0  0
    3.5020    4.2918    3.1819 C   0  0  0  0  0  0  0  0  0  0  0  0
    4.4988    2.4236    3.2372 H   0  0  0  0  0  0  0  0  0  0  0  0
    3.9401    4.8782    2.3608 H   0  0  0  0  0  0  0  0  0  0  0  0
    2.4326    4.5322    3.2740 H   0  0  0  0  0  0  0  0  0  0  0  0
    4.0156    4.5382    4.1229 H   0  0  0  0  0  0  0  0  0  0  0  0
  1  3  1  0  0  0  0
  1  7  1  0  0  0  0
  1  2  2  0  0  0  0
 32 33  1  0  0  0  0
 33 41  1  0  0  0  0
 33 34  2  0  0  0  0
  8  9  1  0  0  0  0
  9 17  1  0  0  0  0
  9 10  2  0  0  0  0
 18 19  1  0  0  0  0
 19 31  1  0  0  0  0
 19 20  2  0  0  0  0
 32 35  1  0  0  0  0
  8 11  1  0  0  0  0
 21 23  1  0  0  0  0
 41 42  1  0  0  0  0
 31 32  1  0  0  0  0
  7  8  1  0  0  0  0
 18 21  1  0  0  0  0
 17 18  1  0  0  0  0
 21 22  1  0  0  0  0
  3  4  1  0  0  0  0
  3  5  1  0  0  0  0
  3  6  1  0  0  0  0
 35 38  1  0  0  0  0
 35 39  1  0  0  0  0
 35 40  1  0  0  0  0
 11 14  1  0  0  0  0
 11 15  1  0  0  0  0
 11 16  1  0  0  0  0
 23 28  1  0  0  0  0
 23 29  1  0  0  0  0
 23 30  1  0  0  0  0
 42 44  1  0  0  0  0
 42 45  1  0  0  0  0
 42 46  1  0  0  0  0
 32 37  1  0  0  0  0
  8 13  1  0  0  0  0
 18 25  1  0  0  0  0
 21 26  1  0  0  0  0
 41 43  1  0  0  0  0
  7 12  1  0  0  0  0
 31 36  1  0  0  0  0
 17 24  1  0  0  0  0
 22 27  1  0  0  0  0
M  END
$$$$

  -OEChem-05262214473D

 46 45  0     1  0  0  0  0  0999 V2000
   -4.6700    2.7214    1.5150 C   0  0  0  0  0  0  0  0  0  0  0  0
   -5.4532    2.5715    0.5845 O   0  0  0  0  0  0  0  0  0  0  0  0
   -5.0996    3.4865    2.7226 C   0  0  0  0  0  0  0  0  0  0  0  0
   -4.8796    4.5629    2.6387 H   0  0  0  0  0  0  0  0  0  0  0  0
   -6.1861    3.4241    2.8954 H   0  0  0  0  0  0  0  0  0  0  0  0
   -4.6369    3.1693    3.6708 H   0  0  0  0  0  0  0  0  0  0  0  0
   -3.3731    2.2391    1.5790 N   0  0  0  0  0  0  0  0  0  0  0  0
   -2.7599    1.4751    0.5247 C   0  0  2  0  0  0  0  0  0  0  0  0
   -1.5143    0.8067    1.0915 C   0  0  0  0  0  0  0  0  0  0  0  0
   -0.9247    1.2213    2.0872 O   0  0  0  0  0  0  0  0  0  0  0  0
   -2.4106    2.3553   -0.6653 C   0  0  0  0  0  0  0  0  0  0  0  0
   -2.8254    2.4352    2.4150 H   0  0  0  0  0  0  0  0  0  0  0  0
   -3.4836    0.7082    0.2278 H   0  0  0  0  0  0  0  0  0  0  0  0
   -1.6866    3.1298   -0.3871 H   0  0  0  0  0  0  0  0  0  0  0  0
   -1.9704    1.7677   -1.4777 H   0  0  0  0  0  0  0  0  0  0  0  0
   -3.3030    2.8584   -1.0531 H   0  0  0  0  0  0  0  0  0  0  0  0
   -1.1107   -0.2839    0.3303 N   0  0  0  0  0  0  0  0  0  0  0  0
    0.0490   -1.0750    0.6539 C   0  0  2  0  0  0  0  0  0  0  0  0
    1.2607   -0.1479    0.6288 C   0  0  0  0  0  0  0  0  0  0  0  0
    1.4791    0.6452   -0.2848 O   0  0  0  0  0  0  0  0  0  0  0  0
    0.2344   -2.2723   -0.2897 C   0  0  2  0  0  0  0  0  0  0  0  0
    0.4121   -1.8318   -1.6351 O   0  0  0  0  0  0  0  0  0  0  0  0
   -0.9605   -3.2177   -0.2632 C   0  0  0  0  0  0  0  0  0  0  0  0
   -1.6733   -0.5660   -0.4691 H   0  0  0  0  0  0  0  0  0  0  0  0
   -0.0935   -1.4282    1.6825 H   0  0  0  0  0  0  0  0  0  0  0  0
    1.1305   -2.8395   -0.0124 H   0  0  0  0  0  0  0  0  0  0  0  0
    0.5722   -2.6272   -2.1655 H   0  0  0  0  0  0  0  0  0  0  0  0
   -1.8868   -2.6995   -0.5340 H   0  0  0  0  0  0  0  0  0  0  0  0
   -1.0855   -3.6731    0.7238 H   0  0  0  0  0  0  0  0  0  0  0  0
   -0.8265   -4.0174   -1.0000 H   0  0  0  0  0  0  0  0  0  0  0  0
    2.0936   -0.3456    1.7210 N   0  0  0  0  0  0  0  0  0  0  0  0
    3.3224    0.3904    1.9046 C   0  0  2  0  0  0  0  0  0  0  0  0
    2.9680    1.7708    2.4418 C   0  0  0  0  0  0  0  0  0  0  0  0
    1.8616    2.2851    2.2921 O   0  0  0  0  0  0  0  0  0  0  0  0
    4.1030    0.4974    0.6038 C   0  0  0  0  0  0  0  0  0  0  0  0
    1.8287   -1.0349    2.4184 H   0  0  0  0  0  0  0  0  0  0  0  0
    3.9084   -0.1540    2.6531 H   0  0  0  0  0  0  0  0  0  0  0  0
    3.5318    1.0399   -0.1583 H   0  0  0  0  0  0  0  0  0  0  0  0
    5.0478    1.0309    0.7508 H   0  0  0  0  0  0  0  0  0  0  0  0
    4.3312   -0.4963    0.2034 H   0  0  0  0  0  0  0  0  0  0  0  0
    4.0457    2.3786    3.0704 N   0  0  0  0  0  0  0  0  0  0  0  0
    3.9660    3.6981    3.6524 C   0  0  0  0  0  0  0  0  0  0  0  0
    4.9203    1.8708    3.1654 H   0  0  0  0  0  0  0  0  0  0  0  0
    4.2820    4.4463    2.9105 H   0  0  0  0  0  0  0  0  0  0  0  0
    2.9295    3.9014    3.9593 H   0  0  0  0  0  0  0  0  0  0  0  0
    4.6258    3.7517    4.5309 H   0  0  0  0  0  0  0  0  0  0  0  0
  1  3  1  0  0  0  0
  1  7  1  0  0  0  0
  1  2  2  0  0  0  0
 32 33  1  0  0  0  0
 33 41  1  0  0  0  0
 33 34  2  0  0  0  0
  8  9  1  0  0  0  0
  9 17  1  0  0  0  0
  9 10  2  0  0  0  0
 18 19  1  0  0  0  0
 19 31  1  0  0  0  0
 19 20  2  0  0  0  0
 32 35  1  0  0  0  0
  8 11  1  0  0  0  0
 21 23  1  0  0  0  0
 41 42  1  0  0  0  0
 31 32  1  0  0  0  0
  7  8  1  0  0  0  0
 18 21  1  0  0  0  0
 17 18  1  0  0  0  0
 21 22  1  0  0  0  0
  3  4  1  0  0  0  0
  3  5  1  0  0  0  0
  3  6  1  0  0  0  0
 35 38  1  0  0  0  0
 35 39  1  0  0  0  0
 35 40  1  0  0  0  0
 11 14  1  0  0  0  0
 11 15  1  0  0  0  0
 11 16  1  0  0  0  0
 23 28  1  0  0  0  0
 23 29  1  0  0  0  0
 23 30  1  0  0  0  0
 42 44  1  0  0  0  0
 42 45  1  0  0  0  0
 42 46  1  0  0  0  0
 32 37  1  0  0  0  0
  8 13  1  0  0  0  0
 18 25  1  0  0  0  0
 21 26  1  0  0  0  0
 41 43  1  0  0  0  0
  7 12  1  0  0  0  0
 31 36  1  0  0  0  0
 17 24  1  0  0  0  0
 22 27  1  0  0  0  0
M  END
$$$$

  -OEChem-05262214473D

 46 45  0     1  0  0  0  0  0999 V2000
   -4.6700    2.7214    1.5150 C   0  0  0  0  0  0  0  0  0  0  0  0
   -5.4532    2.5715    0.5845 O   0  0  0  0  0  0  0  0  0  0  0  0
   -5.0996    3.4865    2.7226 C   0  0  0  0  0  0  0  0  0  0  0  0
   -4.8796    4.5629    2.6387 H   0  0  0  0  0  0  0  0  0  0  0  0
   -6.1861    3.4241    2.8954 H   0  0  0  0  0  0  0  0  0  0  0  0
   -4.6369    3.1693    3.6708 H   0  0  0  0  0  0  0  0  0  0  0  0
   -3.3731    2.2391    1.5790 N   0  0  0  0  0  0  0  0  0  0  0  0
   -2.7599    1.4751    0.5247 C   0  0  2  0  0  0  0  0  0  0  0  0
   -1.5143    0.8067    1.0915 C   0  0  0  0  0  0  0  0  0  0  0  0
   -0.9247    1.2213    2.0872 O   0  0  0  0  0  0  0  0  0  0  0  0
   -2.4106    2.3553   -0.6653 C   0  0  0  0  0  0  0  0  0  0  0  0
   -2.8254    2.4352    2.4150 H   0  0  0  0  0  0  0  0  0  0  0  0
   -3.4836    0.7082    0.2278 H   0  0  0  0  0  0  0  0  0  0  0  0
   -1.6866    3.1298   -0.3871 H   0  0  0  0  0  0  0  0  0  0  0  0
   -1.9704    1.7677   -1.4777 H   0  0  0  0  0  0  0  0  0  0  0  0
   -3.3030    2.8584   -1.0531 H   0  0  0  0  0  0  0  0  0  0  0  0
   -1.1107   -0.2839    0.3303 N   0  0  0  0  0  0  0  0  0  0  0  0
    0.0490   -1.0750    0.6539 C   0  0  2  0  0  0  0  0  0  0  0  0
    1.2607   -0.1479    0.6288 C   0  0  0  0  0  0  0  0  0  0  0  0
    1.3495    0.8189   -0.1254 O   0  0  0  0  0  0  0  0  0  0  0  0
    0.2344   -2.2723   -0.2897 C   0  0  2  0  0  0  0  0  0  0  0  0
    0.4121   -1.8318   -1.6351 O   0  0  0  0  0  0  0  0  0  0  0  0
   -0.9605   -3.2177   -0.2632 C   0  0  0  0  0  0  0  0  0  0  0  0
   -1.6733   -0.5660   -0.4691 H   0  0  0  0  0  0  0  0  0  0  0  0
   -0.0935   -1.4282    1.6825 H   0  0  0  0  0  0  0  0  0  0  0  0
    1.1305   -2.8395   -0.0124 H   0  0  0  0  0  0  0  0  0  0  0  0
    0.5722   -2.6272   -2.1655 H   0  0  0  0  0  0  0  0  0  0  0  0
   -1.8868   -2.6995   -0.5340 H   0  0  0  0  0  0  0  0  0  0  0  0
   -1.0855   -3.6731    0.7238 H   0  0  0  0  0  0  0  0  0  0  0  0
   -0.8265   -4.0174   -1.0000 H   0  0  0  0  0  0  0  0  0  0  0  0
    2.2503   -0.5560    1.5118 N   0  0  0  0  0  0  0  0  0  0  0  0
    3.5076    0.1414    1.6464 C   0  0  2  0  0  0  0  0  0  0  0  0
    3.2705    1.3771    2.5044 C   0  0  0  0  0  0  0  0  0  0  0  0
    2.1652    1.8977    2.6399 O   0  0  0  0  0  0  0  0  0  0  0  0
    4.0767    0.5233    0.2888 C   0  0  0  0  0  0  0  0  0  0  0  0
    2.0838   -1.3774    2.0859 H   0  0  0  0  0  0  0  0  0  0  0  0
    4.1923   -0.5383    2.1653 H   0  0  0  0  0  0  0  0  0  0  0  0
    3.4044    1.2041   -0.2460 H   0  0  0  0  0  0  0  0  0  0  0  0
    5.0437    1.0266    0.3913 H   0  0  0  0  0  0  0  0  0  0  0  0
    4.2186   -0.3639   -0.3378 H   0  0  0  0  0  0  0  0  0  0  0  0
    4.4458    1.8556    3.0665 N   0  0  0  0  0  0  0  0  0  0  0  0
    4.4857    3.0260    3.9118 C   0  0  0  0  0  0  0  0  0  0  0  0
    5.3137    1.3498    2.9160 H   0  0  0  0  0  0  0  0  0  0  0  0
    4.6969    3.9146    3.2989 H   0  0  0  0  0  0  0  0  0  0  0  0
    3.5146    3.1490    4.4135 H   0  0  0  0  0  0  0  0  0  0  0  0
    5.2761    2.9056    4.6674 H   0  0  0  0  0  0  0  0  0  0  0  0
  1  3  1  0  0  0  0
  1  7  1  0  0  0  0
  1  2  2  0  0  0  0
 32 33  1  0  0  0  0
 33 41  1  0  0  0  0
 33 34  2  0  0  0  0
  8  9  1  0  0  0  0
  9 17  1  0  0  0  0
  9 10  2  0  0  0  0
 18 19  1  0  0  0  0
 19 31  1  0  0  0  0
 19 20  2  0  0  0  0
 32 35  1  0  0  0  0
  8 11  1  0  0  0  0
 21 23  1  0  0  0  0
 41 42  1  0  0  0  0
 31 32  1  0  0  0  0
  7  8  1  0  0  0  0
 18 21  1  0  0  0  0
 17 18  1  0  0  0  0
 21 22  1  0  0  0  0
  3  4  1  0  0  0  0
  3  5  1  0  0  0  0
  3  6  1  0  0  0  0
 35 38  1  0  0  0  0
 35 39  1  0  0  0  0
 35 40  1  0  0  0  0
 11 14  1  0  0  0  0
 11 15  1  0  0  0  0
 11 16  1  0  0  0  0
 23 28  1  0  0  0  0
 23 29  1  0  0  0  0
 23 30  1  0  0  0  0
 42 44  1  0  0  0  0
 42 45  1  0  0  0  0
 42 46  1  0  0  0  0
 32 37  1  0  0  0  0
  8 13  1  0  0  0  0
 18 25  1  0  0  0  0
 21 26  1  0  0  0  0
 41 43  1  0  0  0  0
  7 12  1  0  0  0  0
 31 36  1  0  0  0  0
 17 24  1  0  0  0  0
 22 27  1  0  0  0  0
M  END
$$$$

  -OEChem-05262214473D

 46 45  0     1  0  0  0  0  0999 V2000
   -4.6700    2.7214    1.5150 C   0  0  0  0  0  0  0  0  0  0  0  0
   -5.4532    2.5715    0.5845 O   0  0  0  0  0  0  0  0  0  0  0  0
   -5.0996    3.4865    2.7226 C   0  0  0  0  0  0  0  0  0  0  0  0
   -4.8796    4.5629    2.6387 H   0  0  0  0  0  0  0  0  0  0  0  0
   -6.1861    3.4241    2.8954 H   0  0  0  0  0  0  0  0  0  0  0  0
   -4.6369    3.1693    3.6708 H   0  0  0  0  0  0  0  0  0  0  0  0
   -3.3731    2.2391    1.5790 N   0  0  0  0  0  0  0  0  0  0  0  0
   -2.7599    1.4751    0.5247 C   0  0  2  0  0  0  0  0  0  0  0  0
   -1.5143    0.8067    1.0915 C   0  0  0  0  0  0  0  0  0  0  0  0
   -0.9247    1.2213    2.0872 O   0  0  0  0  0  0  0  0  0  0  0  0
   -2.4106    2.3553   -0.6653 C   0  0  0  0  0  0  0  0  0  0  0  0
   -2.8254    2.4352    2.4150 H   0  0  0  0  0  0  0  0  0  0  0  0
   -3.4836    0.7082    0.2278 H   0  0  0  0  0  0  0  0  0  0  0  0
   -1.6866    3.1298   -0.3871 H   0  0  0  0  0  0  0  0  0  0  0  0
   -1.9704    1.7677   -1.4777 H   0  0  0  0  0  0  0  0  0  0  0  0
   -3.3030    2.8584   -1.0531 H   0  0  0  0  0  0  0  0  0  0  0  0
   -1.1107   -0.2839    0.3303 N   0  0  0  0  0  0  0  0  0  0  0  0
    0.0490   -1.0750    0.6539 C   0  0  2  0  0  0  0  0  0  0  0  0
    1.2607   -0.1479    0.6288 C   0  0  0  0  0  0  0  0  0  0  0  0
    1.2501    0.9544    0.0846 O   0  0  0  0  0  0  0  0  0  0  0  0
    0.2344   -2.2723   -0.2897 C   0  0  2  0  0  0  0  0  0  0  0  0
    0.4121   -1.8318   -1.6351 O   0  0  0  0  0  0  0  0  0  0  0  0
   -0.9605   -3.2177   -0.2632 C   0  0  0  0  0  0  0  0  0  0  0  0
   -1.6733   -0.5660   -0.4691 H   0  0  0  0  0  0  0  0  0  0  0  0
   -0.0935   -1.4282    1.6825 H   0  0  0  0  0  0  0  0  0  0  0  0
    1.1305   -2.8395   -0.0124 H   0  0  0  0  0  0  0  0  0  0  0  0
    0.5722   -2.6272   -2.1655 H   0  0  0  0  0  0  0  0  0  0  0  0
   -1.8868   -2.6995   -0.5340 H   0  0  0  0  0  0  0  0  0  0  0  0
   -1.0855   -3.6731    0.7238 H   0  0  0  0  0  0  0  0  0  0  0  0
   -0.8265   -4.0174   -1.0000 H   0  0  0  0  0  0  0  0  0  0  0  0
    2.3679   -0.7170    1.2419 N   0  0  0  0  0  0  0  0  0  0  0  0
    3.6449   -0.0470    1.3168 C   0  0  2  0  0  0  0  0  0  0  0  0
    3.5709    0.9827    2.4365 C   0  0  0  0  0  0  0  0  0  0  0  0
    2.5115    1.4507    2.8484 O   0  0  0  0  0  0  0  0  0  0  0  0
    4.0018    0.6131   -0.0060 C   0  0  0  0  0  0  0  0  0  0  0  0
    2.2765   -1.6409    1.6542 H   0  0  0  0  0  0  0  0  0  0  0  0
    4.3883   -0.8105    1.5705 H   0  0  0  0  0  0  0  0  0  0  0  0
    3.2682    1.3812   -0.2769 H   0  0  0  0  0  0  0  0  0  0  0  0
    4.9831    1.0963    0.0438 H   0  0  0  0  0  0  0  0  0  0  0  0
    4.0254   -0.1242   -0.8157 H   0  0  0  0  0  0  0  0  0  0  0  0
    4.8294    1.3495    2.8922 N   0  0  0  0  0  0  0  0  0  0  0  0
    5.0256    2.3212    3.9426 C   0  0  0  0  0  0  0  0  0  0  0  0
    5.6524    0.8961    2.5062 H   0  0  0  0  0  0  0  0  0  0  0  0
    5.1564    3.3195    3.4996 H   0  0  0  0  0  0  0  0  0  0  0  0
    4.1479    2.3265    4.6056 H   0  0  0  0  0  0  0  0  0  0  0  0
    5.9220    2.0575    4.5231 H   0  0  0  0  0  0  0  0  0  0  0  0
  1  3  1  0  0  0  0
  1  7  1  0  0  0  0
  1  2  2  0  0  0  0
 32 33  1  0  0  0  0
 33 41  1  0  0  0  0
 33 34  2  0  0  0  0
  8  9  1  0  0  0  0
  9 17  1  0  0  0  0
  9 10  2  0  0  0  0
 18 19  1  0  0  0  0
 19 31  1  0  0  0  0
 19 20  2  0  0  0  0
 32 35  1  0  0  0  0
  8 11  1  0  0  0  0
 21 23  1  0  0  0  0
 41 42  1  0  0  0  0
 31 32  1  0  0  0  0
  7  8  1  0  0  0  0
 18 21  1  0  0  0  0
 17 18  1  0  0  0  0
 21 22  1  0  0  0  0
  3  4  1  0  0  0  0
  3  5  1  0  0  0  0
  3  6  1  0  0  0  0
 35 38  1  0  0  0  0
 35 39  1  0  0  0  0
 35 40  1  0  0  0  0
 11 14  1  0  0  0  0
 11 15  1  0  0  0  0
 11 16  1  0  0  0  0
 23 28  1  0  0  0  0
 23 29  1  0  0  0  0
 23 30  1  0  0  0  0
 42 44  1  0  0  0  0
 42 45  1  0  0  0  0
 42 46  1  0  0  0  0
 32 37  1  0  0  0  0
  8 13  1  0  0  0  0
 18 25  1  0  0  0  0
 21 26  1  0  0  0  0
 41 43  1  0  0  0  0
  7 12  1  0  0  0  0
 31 36  1  0  0  0  0
 17 24  1  0  0  0  0
 22 27  1  0  0  0  0
M  END
$$$$

  -OEChem-05262214473D

 46 45  0     1  0  0  0  0  0999 V2000
   -4.6700    2.7214    1.5150 C   0  0  0  0  0  0  0  0  0  0  0  0
   -5.4532    2.5715    0.5845 O   0  0  0  0  0  0  0  0  0  0  0  0
   -5.0996    3.4865    2.7226 C   0  0  0  0  0  0  0  0  0  0  0  0
   -4.8796    4.5629    2.6387 H   0  0  0  0  0  0  0  0  0  0  0  0
   -6.1861    3.4241    2.8954 H   0  0  0  0  0  0  0  0  0  0  0  0
   -4.6369    3.1693    3.6708 H   0  0  0  0  0  0  0  0  0  0  0  0
   -3.3731    2.2391    1.5790 N   0  0  0  0  0  0  0  0  0  0  0  0
   -2.7599    1.4751    0.5247 C   0  0  2  0  0  0  0  0  0  0  0  0
   -1.5143    0.8067    1.0915 C   0  0  0  0  0  0  0  0  0  0  0  0
   -0.9247    1.2213    2.0872 O   0  0  0  0  0  0  0  0  0  0  0  0
   -2.4106    2.3553   -0.6653 C   0  0  0  0  0  0  0  0  0  0  0  0
   -2.8254    2.4352    2.4150 H   0  0  0  0  0  0  0  0  0  0  0  0
   -3.4836    0.7082    0.2278 H   0  0  0  0  0  0  0  0  0  0  0  0
   -1.6866    3.1298   -0.3871 H   0  0  0  0  0  0  0  0  0  0  0  0
   -1.9704    1.7677   -1.4777 H   0  0  0  0  0  0  0  0  0  0  0  0
   -3.3030    2.8584   -1.0531 H   0  0  0  0  0  0  0  0  0  0  0  0
   -1.1107   -0.2839    0.3303 N   0  0  0  0  0  0  0  0  0  0  0  0
    0.0490   -1.0750    0.6539 C   0  0  2  0  0  0  0  0  0  0  0  0
    1.1817   -0.1124    0.9986 C   0  0  0  0  0  0  0  0  0  0  0  0
    1.0630    1.1099    0.9426 O   0  0  0  0  0  0  0  0  0  0  0  0
    0.4481   -2.0352   -0.4761 C   0  0  2  0  0  0  0  0  0  0  0  0
    0.7744   -1.3117   -1.6617 O   0  0  0  0  0  0  0  0  0  0  0  0
   -0.6669   -3.0152   -0.8206 C   0  0  0  0  0  0  0  0  0  0  0  0
   -1.6733   -0.5660   -0.4691 H   0  0  0  0  0  0  0  0  0  0  0  0
   -0.2058   -1.6446    1.5559 H   0  0  0  0  0  0  0  0  0  0  0  0
    1.3373   -2.6093   -0.1907 H   0  0  0  0  0  0  0  0  0  0  0  0
    1.0629   -1.9684   -2.3136 H   0  0  0  0  0  0  0  0  0  0  0  0
   -1.5832   -2.4917   -1.1142 H   0  0  0  0  0  0  0  0  0  0  0  0
   -0.8912   -3.6750    0.0229 H   0  0  0  0  0  0  0  0  0  0  0  0
   -0.3758   -3.6335   -1.6770 H   0  0  0  0  0  0  0  0  0  0  0  0
    2.3533   -0.7793    1.3276 N   0  0  0  0  0  0  0  0  0  0  0  0
    3.5753   -0.0855    1.6603 C   0  0  2  0  0  0  0  0  0  0  0  0
    3.4635    0.4002    3.0995 C   0  0  0  0  0  0  0  0  0  0  0  0
    2.3871    0.5695    3.6685 O   0  0  0  0  0  0  0  0  0  0  0  0
    3.8274    1.0766    0.7125 C   0  0  0  0  0  0  0  0  0  0  0  0
    2.3513   -1.7951    1.3347 H   0  0  0  0  0  0  0  0  0  0  0  0
    4.3860   -0.8183    1.5835 H   0  0  0  0  0  0  0  0  0  0  0  0
    3.0255    1.8212    0.7754 H   0  0  0  0  0  0  0  0  0  0  0  0
    4.7687    1.5840    0.9484 H   0  0  0  0  0  0  0  0  0  0  0  0
    3.8779    0.7294   -0.3251 H   0  0  0  0  0  0  0  0  0  0  0  0
    4.7057    0.6635    3.6594 N   0  0  0  0  0  0  0  0  0  0  0  0
    4.8650    1.1477    5.0108 C   0  0  0  0  0  0  0  0  0  0  0  0
    5.5464    0.4764    3.1209 H   0  0  0  0  0  0  0  0  0  0  0  0
    4.8992    2.2472    5.0052 H   0  0  0  0  0  0  0  0  0  0  0  0
    4.0159    0.8105    5.6234 H   0  0  0  0  0  0  0  0  0  0  0  0
    5.8012    0.7540    5.4333 H   0  0  0  0  0  0  0  0  0  0  0  0
  1  3  1  0  0  0  0
  1  7  1  0  0  0  0
  1  2  2  0  0  0  0
 32 33  1  0  0  0  0
 33 41  1  0  0  0  0
 33 34  2  0  0  0  0
  8  9  1  0  0  0  0
  9 17  1  0  0  0  0
  9 10  2  0  0  0  0
 18 19  1  0  0  0  0
 19 31  1  0  0  0  0
 19 20  2  0  0  0  0
 32 35  1  0  0  0  0
  8 11  1  0  0  0  0
 21 23  1  0  0  0  0
 41 42  1  0  0  0  0
 31 32  1  0  0  0  0
  7  8  1  0  0  0  0
 18 21  1  0  0  0  0
 17 18  1  0  0  0  0
 21 22  1  0  0  0  0
  3  4  1  0  0  0  0
  3  5  1  0  0  0  0
  3  6  1  0  0  0  0
 35 38  1  0  0  0  0
 35 39  1  0  0  0  0
 35 40  1  0  0  0  0
 11 14  1  0  0  0  0
 11 15  1  0  0  0  0
 11 16  1  0  0  0  0
 23 28  1  0  0  0  0
 23 29  1  0  0  0  0
 23 30  1  0  0  0  0
 42 44  1  0  0  0  0
 42 45  1  0  0  0  0
 42 46  1  0  0  0  0
 32 37  1  0  0  0  0
  8 13  1  0  0  0  0
 18 25  1  0  0  0  0
 21 26  1  0  0  0  0
 41 43  1  0  0  0  0
  7 12  1  0  0  0  0
 31 36  1  0  0  0  0
 17 24  1  0  0  0  0
 22 27  1  0  0  0  0
M  END
$$$$

  -OEChem-05262214473D

 46 45  0     1  0  0  0  0  0999 V2000
   -4.6700    2.7214    1.5150 C   0  0  0  0  0  0  0  0  0  0  0  0
   -5.4532    2.5715    0.5845 O   0  0  0  0  0  0  0  0  0  0  0  0
   -5.0996    3.4865    2.7226 C   0  0  0  0  0  0  0  0  0  0  0  0
   -4.8796    4.5629    2.6387 H   0  0  0  0  0  0  0  0  0  0  0  0
   -6.1861    3.4241    2.8954 H   0  0  0  0  0  0  0  0  0  0  0  0
   -4.6369    3.1693    3.6708 H   0  0  0  0  0  0  0  0  0  0  0  0
   -3.3731    2.2391    1.5790 N   0  0  0  0  0  0  0  0  0  0  0  0
   -2.7599    1.4751    0.5247 C   0  0  2  0  0  0  0  0  0  0  0  0
   -1.5143    0.8067    1.0915 C   0  0  0  0  0  0  0  0  0  0  0  0
   -0.9247    1.2213    2.0872 O   0  0  0  0  0  0  0  0  0  0  0  0
   -2.4106    2.3553   -0.6653 C   0  0  0  0  0  0  0  0  0  0  0  0
   -2.8254    2.4352    2.4150 H   0  0  0  0  0  0  0  0  0  0  0  0
   -3.4836    0.7082    0.2278 H   0  0  0  0  0  0  0  0  0  0  0  0
   -1.6866    3.1298   -0.3871 H   0  0  0  0  0  0  0  0  0  0  0  0
   -1.9704    1.7677   -1.4777 H   0  0  0  0  0  0  0  0  0  0  0  0
   -3.3030    2.8584   -1.0531 H   0  0  0  0  0  0  0  0  0  0  0  0
   -1.1107   -0.2839    0.3303 N   0  0  0  0  0  0  0  0  0  0  0  0
    0.0490   -1.0750    0.6539 C   0  0  2  0  0  0  0  0  0  0  0  0
    1.1817   -0.1124    0.9986 C   0  0  0  0  0  0  0  0  0  0  0  0
    1.0034    1.0865    1.2039 O   0  0  0  0  0  0  0  0  0  0  0  0
    0.4481   -2.0352   -0.4761 C   0  0  2  0  0  0  0  0  0  0  0  0
    0.7744   -1.3117   -1.6617 O   0  0  0  0  0  0  0  0  0  0  0  0
   -0.6669   -3.0152   -0.8206 C   0  0  0  0  0  0  0  0  0  0  0  0
   -1.6733   -0.5660   -0.4691 H   0  0  0  0  0  0  0  0  0  0  0  0
   -0.2058   -1.6446    1.5559 H   0  0  0  0  0  0  0  0  0  0  0  0
    1.3373   -2.6093   -0.1907 H   0  0  0  0  0  0  0  0  0  0  0  0
    1.0629   -1.9684   -2.3136 H   0  0  0  0  0  0  0  0  0  0  0  0
   -1.5832   -2.4917   -1.1142 H   0  0  0  0  0  0  0  0  0  0  0  0
   -0.8912   -3.6750    0.0229 H   0  0  0  0  0  0  0  0  0  0  0  0
   -0.3758   -3.6335   -1.6770 H   0  0  0  0  0  0  0  0  0  0  0  0
    2.4193   -0.7401    1.0010 N   0  0  0  0  0  0  0  0  0  0  0  0
    3.6494   -0.0319    1.2671 C   0  0  2  0  0  0  0  0  0  0  0  0
    3.7618    0.1660    2.7730 C   0  0  0  0  0  0  0  0  0  0  0  0
    2.7909    0.1452    3.5266 O   0  0  0  0  0  0  0  0  0  0  0  0
    3.6881    1.3027    0.5391 C   0  0  0  0  0  0  0  0  0  0  0  0
    2.4617   -1.7365    0.8081 H   0  0  0  0  0  0  0  0  0  0  0  0
    4.4658   -0.6749    0.9207 H   0  0  0  0  0  0  0  0  0  0  0  0
    2.8774    1.9605    0.8730 H   0  0  0  0  0  0  0  0  0  0  0  0
    4.6333    1.8255    0.7190 H   0  0  0  0  0  0  0  0  0  0  0  0
    3.5772    1.1606   -0.5413 H   0  0  0  0  0  0  0  0  0  0  0  0
    5.0685    0.4115    3.1710 N   0  0  0  0  0  0  0  0  0  0  0  0
    5.4331    0.6446    4.5489 C   0  0  0  0  0  0  0  0  0  0  0  0
    5.8133    0.3916    2.4805 H   0  0  0  0  0  0  0  0  0  0  0  0
    5.4191    1.7251    4.7548 H   0  0  0  0  0  0  0  0  0  0  0  0
    4.7148    0.1364    5.2091 H   0  0  0  0  0  0  0  0  0  0  0  0
    6.4431    0.2495    4.7327 H   0  0  0  0  0  0  0  0  0  0  0  0
  1  3  1  0  0  0  0
  1  7  1  0  0  0  0
  1  2  2  0  0  0  0
 32 33  1  0  0  0  0
 33 41  1  0  0  0  0
 33 34  2  0  0  0  0
  8  9  1  0  0  0  0
  9 17  1  0  0  0  0
  9 10  2  0  0  0  0
 18 19  1  0  0  0  0
 19 31  1  0  0  0  0
 19 20  2  0  0  0  0
 32 35  1  0  0  0  0
  8 11  1  0  0  0  0
 21 23  1  0  0  0  0
 41 42  1  0  0  0  0
 31 32  1  0  0  0  0
  7  8  1  0  0  0  0
 18 21  1  0  0  0  0
 17 18  1  0  0  0  0
 21 22  1  0  0  0  0
  3  4  1  0  0  0  0
  3  5  1  0  0  0  0
  3  6  1  0  0  0  0
 35 38  1  0  0  0  0
 35 39  1  0  0  0  0
 35 40  1  0  0  0  0
 11 14  1  0  0  0  0
 11 15  1  0  0  0  0
 11 16  1  0  0  0  0
 23 28  1  0  0  0  0
 23 29  1  0  0  0  0
 23 30  1  0  0  0  0
 42 44  1  0  0  0  0
 42 45  1  0  0  0  0
 42 46  1  0  0  0  0
 32 37  1  0  0  0  0
  8 13  1  0  0  0  0
 18 25  1  0  0  0  0
 21 26  1  0  0  0  0
 41 43  1  0  0  0  0
  7 12  1  0  0  0  0
 31 36  1  0  0  0  0
 17 24  1  0  0  0  0
 22 27  1  0  0  0  0
M  END
$$$$

  -OEChem-05262214473D

 46 45  0     1  0  0  0  0  0999 V2000
   -4.6700    2.7214    1.5150 C   0  0  0  0  0  0  0  0  0  0  0  0
   -5.4532    2.5715    0.5845 O   0  0  0  0  0  0  0  0  0  0  0  0
   -5.0996    3.4865    2.7226 C   0  0  0  0  0  0  0  0  0  0  0  0
   -4.8796    4.5629    2.6387 H   0  0  0  0  0  0  0  0  0  0  0  0
   -6.1861    3.4241    2.8954 H   0  0  0  0  0  0  0  0  0  0  0  0
   -4.6369    3.1693    3.6708 H   0  0  0  0  0  0  0  0  0  0  0  0
   -3.3731    2.2391    1.5790 N   0  0  0  0  0  0  0  0  0  0  0  0
   -2.7599    1.4751    0.5247 C   0  0  2  0  0  0  0  0  0  0  0  0
   -1.5143    0.8067    1.0915 C   0  0  0  0  0  0  0  0  0  0  0  0
   -0.9247    1.2213    2.0872 O   0  0  0  0  0  0  0  0  0  0  0  0
   -2.4106    2.3553   -0.6653 C   0  0  0  0  0  0  0  0  0  0  0  0
   -2.8254    2.4352    2.4150 H   0  0  0  0  0  0  0  0  0  0  0  0
   -3.4836    0.7082    0.2278 H   0  0  0  0  0  0  0  0  0  0  0  0
   -1.6866    3.1298   -0.3871 H   0  0  0  0  0  0  0  0  0  0  0  0
   -1.9704    1.7677   -1.4777 H   0  0  0  0  0  0  0  0  0  0  0  0
   -3.3030    2.8584   -1.0531 H   0  0  0  0  0  0  0  0  0  0  0  0
   -1.1107   -0.2839    0.3303 N   0  0  0  0  0  0  0  0  0  0  0  0
    0.0490   -1.0750    0.6539 C   0  0  2  0  0  0  0  0  0  0  0  0
    1.1817   -0.1124    0.9986 C   0  0  0  0  0  0  0  0  0  0  0  0
    0.9899    1.0102    1.4615 O   0  0  0  0  0  0  0  0  0  0  0  0
    0.4481   -2.0352   -0.4761 C   0  0  2  0  0  0  0  0  0  0  0  0
    0.7744   -1.3117   -1.6617 O   0  0  0  0  0  0  0  0  0  0  0  0
   -0.6669   -3.0152   -0.8206 C   0  0  0  0  0  0  0  0  0  0  0  0
   -1.6733   -0.5660   -0.4691 H   0  0  0  0  0  0  0  0  0  0  0  0
   -0.2058   -1.6446    1.5559 H   0  0  0  0  0  0  0  0  0  0  0  0
    1.3373   -2.6093   -0.1907 H   0  0  0  0  0  0  0  0  0  0  0  0
    1.0629   -1.9684   -2.3136 H   0  0  0  0  0  0  0  0  0  0  0  0
   -1.5832   -2.4917   -1.1142 H   0  0  0  0  0  0  0  0  0  0  0  0
   -0.8912   -3.6750    0.0229 H   0  0  0  0  0  0  0  0  0  0  0  0
   -0.3758   -3.6335   -1.6770 H   0  0  0  0  0  0  0  0  0  0  0  0
    2.4275   -0.6356    0.6823 N   0  0  0  0  0  0  0  0  0  0  0  0
    3.6536    0.0998    0.8855 C   0  0  2  0  0  0  0  0  0  0  0  0
    4.0104    0.0200    2.3639 C   0  0  0  0  0  0  0  0  0  0  0  0
    3.1825   -0.2138    3.2421 O   0  0  0  0  0  0  0  0  0  0  0  0
    3.5120    1.5462    0.4378 C   0  0  0  0  0  0  0  0  0  0  0  0
    2.4790   -1.5723    0.2927 H   0  0  0  0  0  0  0  0  0  0  0  0
    4.4263   -0.4044    0.2950 H   0  0  0  0  0  0  0  0  0  0  0  0
    2.7421    2.0677    1.0182 H   0  0  0  0  0  0  0  0  0  0  0  0
    4.4508    2.0950    0.5659 H   0  0  0  0  0  0  0  0  0  0  0  0
    3.2262    1.6012   -0.6182 H   0  0  0  0  0  0  0  0  0  0  0  0
    5.3539    0.2832    2.5915 N   0  0  0  0  0  0  0  0  0  0  0  0
    5.9358    0.2806    3.9134 C   0  0  0  0  0  0  0  0  0  0  0  0
    5.9714    0.4484    1.8022 H   0  0  0  0  0  0  0  0  0  0  0  0
    5.9109    1.2993    4.3276 H   0  0  0  0  0  0  0  0  0  0  0  0
    5.3617   -0.3943    4.5653 H   0  0  0  0  0  0  0  0  0  0  0  0
    6.9782   -0.0657    3.8543 H   0  0  0  0  0  0  0  0  0  0  0  0
  1  3  1  0  0  0  0
  1  7  1  0  0  0  0
  1  2  2  0  0  0  0
 32 33  1  0  0  0  0
 33 41  1  0  0  0  0
 33 34  2  0  0  0  0
  8  9  1  0  0  0  0
  9 17  1  0  0  0  0
  9 10  2  0  0  0  0
 18 19  1  0  0  0  0
 19 31  1  0  0  0  0
 19 20  2  0  0  0  0
 32 35  1  0  0  0  0
  8 11  1  0  0  0  0
 21 23  1  0  0  0  0
 41 42  1  0  0  0  0
 31 32  1  0  0  0  0
  7  8  1  0  0  0  0
 18 21  1  0  0  0  0
 17 18  1  0  0  0  0
 21 22  1  0  0  0  0
  3  4  1  0  0  0  0
  3  5  1  0  0  0  0
  3  6  1  0  0  0  0
 35 38  1  0  0  0  0
 35 39  1  0  0  0  0
 35 40  1  0  0  0  0
 11 14  1  0  0  0  0
 11 15  1  0  0  0  0
 11 16  1  0  0  0  0
 23 28  1  0  0  0  0
 23 29  1  0  0  0  0
 23 30  1  0  0  0  0
 42 44  1  0  0  0  0
 42 45  1  0  0  0  0
 42 46  1  0  0  0  0
 32 37  1  0  0  0  0
  8 13  1  0  0  0  0
 18 25  1  0  0  0  0
 21 26  1  0  0  0  0
 41 43  1  0  0  0  0
  7 12  1  0  0  0  0
 31 36  1  0  0  0  0
 17 24  1  0  0  0  0
 22 27  1  0  0  0  0
M  END
$$$$

  -OEChem-05262214473D

 46 45  0     1  0  0  0  0  0999 V2000
   -4.6700    2.7214    1.5150 C   0  0  0  0  0  0  0  0  0  0  0  0
   -5.4532    2.5715    0.5845 O   0  0  0  0  0  0  0  0  0  0  0  0
   -5.0996    3.4865    2.7226 C   0  0  0  0  0  0  0  0  0  0  0  0
   -4.8796    4.5629    2.6387 H   0  0  0  0  0  0  0  0  0  0  0  0
   -6.1861    3.4241    2.8954 H   0  0  0  0  0  0  0  0  0  0  0  0
   -4.6369    3.1693    3.6708 H   0  0  0  0  0  0  0  0  0  0  0  0
   -3.3731    2.2391    1.5790 N   0  0  0  0  0  0  0  0  0  0  0  0
   -2.7599    1.4751    0.5247 C   0  0  2  0  0  0  0  0  0  0  0  0
   -1.5143    0.8067    1.0915 C   0  0  0  0  0  0  0  0  0  0  0  0
   -0.9247    1.2213    2.0872 O   0  0  0  0  0  0  0  0  0  0  0  0
   -2.4106    2.3553   -0.6653 C   0  0  0  0  0  0  0  0  0  0  0  0
   -2.8254    2.4352    2.4150 H   0  0  0  0  0  0  0  0  0  0  0  0
   -3.4836    0.7082    0.2278 H   0  0  0  0  0  0  0  0  0  0  0  0
   -1.6866    3.1298   -0.3871 H   0  0  0  0  0  0  0  0  0  0  0  0
   -1.9704    1.7677   -1.4777 H   0  0  0  0  0  0  0  0  0  0  0  0
   -3.3030    2.8584   -1.0531 H   0  0  0  0  0  0  0  0  0  0  0  0
   -1.1107   -0.2839    0.3303 N   0  0  0  0  0  0  0  0  0  0  0  0
    0.0490   -1.0750    0.6539 C   0  0  2  0  0  0  0  0  0  0  0  0
    1.1817   -0.1124    0.9986 C   0  0  0  0  0  0  0  0  0  0  0  0
    1.0233    0.8862    1.6979 O   0  0  0  0  0  0  0  0  0  0  0  0
    0.4481   -2.0352   -0.4761 C   0  0  2  0  0  0  0  0  0  0  0  0
    0.7744   -1.3117   -1.6617 O   0  0  0  0  0  0  0  0  0  0  0  0
   -0.6669   -3.0152   -0.8206 C   0  0  0  0  0  0  0  0  0  0  0  0
   -1.6733   -0.5660   -0.4691 H   0  0  0  0  0  0  0  0  0  0  0  0
   -0.2058   -1.6446    1.5559 H   0  0  0  0  0  0  0  0  0  0  0  0
    1.3373   -2.6093   -0.1907 H   0  0  0  0  0  0  0  0  0  0  0  0
    1.0629   -1.9684   -2.3136 H   0  0  0  0  0  0  0  0  0  0  0  0
   -1.5832   -2.4917   -1.1142 H   0  0  0  0  0  0  0  0  0  0  0  0
   -0.8912   -3.6750    0.0229 H   0  0  0  0  0  0  0  0  0  0  0  0
   -0.3758   -3.6335   -1.6770 H   0  0  0  0  0  0  0  0  0  0  0  0
    2.3772   -0.4729    0.3932 N   0  0  0  0  0  0  0  0  0  0  0  0
    3.5877    0.3005    0.5415 C   0  0  2  0  0  0  0  0  0  0  0  0
    4.1922   -0.0279    1.9002 C   0  0  0  0  0  0  0  0  0  0  0  0
    3.5353   -0.4830    2.8343 O   0  0  0  0  0  0  0  0  0  0  0  0
    3.3111    1.7906    0.4155 C   0  0  0  0  0  0  0  0  0  0  0  0
    2.4019   -1.3136   -0.1764 H   0  0  0  0  0  0  0  0  0  0  0  0
    4.2702   -0.0252   -0.2510 H   0  0  0  0  0  0  0  0  0  0  0  0
    2.6289    2.1354    1.2011 H   0  0  0  0  0  0  0  0  0  0  0  0
    4.2339    2.3740    0.4996 H   0  0  0  0  0  0  0  0  0  0  0  0
    2.8489    2.0209   -0.5505 H   0  0  0  0  0  0  0  0  0  0  0  0
    5.5424    0.2872    1.9606 N   0  0  0  0  0  0  0  0  0  0  0  0
    6.3390    0.0804    3.1475 C   0  0  0  0  0  0  0  0  0  0  0  0
    6.0101    0.6429    1.1320 H   0  0  0  0  0  0  0  0  0  0  0  0
    6.3411    0.9988    3.7529 H   0  0  0  0  0  0  0  0  0  0  0  0
    5.9125   -0.7454    3.7358 H   0  0  0  0  0  0  0  0  0  0  0  0
    7.3702   -0.1701    2.8579 H   0  0  0  0  0  0  0  0  0  0  0  0
  1  3  1  0  0  0  0
  1  7  1  0  0  0  0
  1  2  2  0  0  0  0
 32 33  1  0  0  0  0
 33 41  1  0  0  0  0
 33 34  2  0  0  0  0
  8  9  1  0  0  0  0
  9 17  1  0  0  0  0
  9 10  2  0  0  0  0
 18 19  1  0  0  0  0
 19 31  1  0  0  0  0
 19 20  2  0  0  0  0
 32 35  1  0  0  0  0
  8 11  1  0  0  0  0
 21 23  1  0  0  0  0
 41 42  1  0  0  0  0
 31 32  1  0  0  0  0
  7  8  1  0  0  0  0
 18 21  1  0  0  0  0
 17 18  1  0  0  0  0
 21 22  1  0  0  0  0
  3  4  1  0  0  0  0
  3  5  1  0  0  0  0
  3  6  1  0  0  0  0
 35 38  1  0  0  0  0
 35 39  1  0  0  0  0
 35 40  1  0  0  0  0
 11 14  1  0  0  0  0
 11 15  1  0  0  0  0
 11 16  1  0  0  0  0
 23 28  1  0  0  0  0
 23 29  1  0  0  0  0
 23 30  1  0  0  0  0
 42 44  1  0  0  0  0
 42 45  1  0  0  0  0
 42 46  1  0  0  0  0
 32 37  1  0  0  0  0
  8 13  1  0  0  0  0
 18 25  1  0  0  0  0
 21 26  1  0  0  0  0
 41 43  1  0  0  0  0
  7 12  1  0  0  0  0
 31 36  1  0  0  0  0
 17 24  1  0  0  0  0
 22 27  1  0  0  0  0
M  END
$$$$

  -OEChem-05262214473D

 46 45  0     1  0  0  0  0  0999 V2000
   -4.6700    2.7214    1.5150 C   0  0  0  0  0  0  0  0  0  0  0  0
   -5.4532    2.5715    0.5845 O   0  0  0  0  0  0  0  0  0  0  0  0
   -5.0996    3.4865    2.7226 C   0  0  0  0  0  0  0  0  0  0  0  0
   -4.8796    4.5629    2.6387 H   0  0  0  0  0  0  0  0  0  0  0  0
   -6.1861    3.4241    2.8954 H   0  0  0  0  0  0  0  0  0  0  0  0
   -4.6369    3.1693    3.6708 H   0  0  0  0  0  0  0  0  0  0  0  0
   -3.3731    2.2391    1.5790 N   0  0  0  0  0  0  0  0  0  0  0  0
   -2.7599    1.4751    0.5247 C   0  0  2  0  0  0  0  0  0  0  0  0
   -1.5143    0.8067    1.0915 C   0  0  0  0  0  0  0  0  0  0  0  0
   -0.9247    1.2213    2.0872 O   0  0  0  0  0  0  0  0  0  0  0  0
   -2.4106    2.3553   -0.6653 C   0  0  0  0  0  0  0  0  0  0  0  0
   -2.8254    2.4352    2.4150 H   0  0  0  0  0  0  0  0  0  0  0  0
   -3.4836    0.7082    0.2278 H   0  0  0  0  0  0  0  0  0  0  0  0
   -1.6866    3.1298   -0.3871 H   0  0  0  0  0  0  0  0  0  0  0  0
   -1.9704    1.7677   -1.4777 H   0  0  0  0  0  0  0  0  0  0  0  0
   -3.3030    2.8584   -1.0531 H   0  0  0  0  0  0  0  0  0  0  0  0
   -1.1107   -0.2839    0.3303 N   0  0  0  0  0  0  0  0  0  0  0  0
    0.0490   -1.0750    0.6539 C   0  0  2  0  0  0  0  0  0  0  0  0
    1.1817   -0.1124    0.9986 C   0  0  0  0  0  0  0  0  0  0  0  0
    1.1015    0.7229    1.8969 O   0  0  0  0  0  0  0  0  0  0  0  0
    0.4481   -2.0352   -0.4761 C   0  0  2  0  0  0  0  0  0  0  0  0
    0.7744   -1.3117   -1.6617 O   0  0  0  0  0  0  0  0  0  0  0  0
   -0.6669   -3.0152   -0.8206 C   0  0  0  0  0  0  0  0  0  0  0  0
   -1.6733   -0.5660   -0.4691 H   0  0  0  0  0  0  0  0  0  0  0  0
   -0.2058   -1.6446    1.5559 H   0  0  0  0  0  0  0  0  0  0  0  0
    1.3373   -2.6093   -0.1907 H   0  0  0  0  0  0  0  0  0  0  0  0
    1.0629   -1.9684   -2.3136 H   0  0  0  0  0  0  0  0  0  0  0  0
   -1.5832   -2.4917   -1.1142 H   0  0  0  0  0  0  0  0  0  0  0  0
   -0.8912   -3.6750    0.0229 H   0  0  0  0  0  0  0  0  0  0  0  0
   -0.3758   -3.6335   -1.6770 H   0  0  0  0  0  0  0  0  0  0  0  0
    2.2720   -0.2632    0.1534 N   0  0  0  0  0  0  0  0  0  0  0  0
    3.4560    0.5567    0.2585 C   0  0  2  0  0  0  0  0  0  0  0  0
    4.2949    0.0255    1.4133 C   0  0  0  0  0  0  0  0  0  0  0  0
    3.8253   -0.6440    2.3311 O   0  0  0  0  0  0  0  0  0  0  0  0
    3.0991    2.0192    0.4737 C   0  0  0  0  0  0  0  0  0  0  0  0
    2.2357   -0.9781   -0.5673 H   0  0  0  0  0  0  0  0  0  0  0  0
    4.0081    0.4368   -0.6800 H   0  0  0  0  0  0  0  0  0  0  0  0
    2.5455    2.1591    1.4094 H   0  0  0  0  0  0  0  0  0  0  0  0
    3.9972    2.6435    0.5246 H   0  0  0  0  0  0  0  0  0  0  0  0
    2.4710    2.3913   -0.3429 H   0  0  0  0  0  0  0  0  0  0  0  0
    5.6213    0.4234    1.3211 N   0  0  0  0  0  0  0  0  0  0  0  0
    6.6150    0.0578    2.3034 C   0  0  0  0  0  0  0  0  0  0  0  0
    5.9267    0.9617    0.5157 H   0  0  0  0  0  0  0  0  0  0  0  0
    6.6804    0.8442    3.0698 H   0  0  0  0  0  0  0  0  0  0  0  0
    6.3296   -0.8930    2.7772 H   0  0  0  0  0  0  0  0  0  0  0  0
    7.5921   -0.0566    1.8113 H   0  0  0  0  0  0  0  0  0  0  0  0
  1  3  1  0  0  0  0
  1  7  1  0  0  0  0
  1  2  2  0  0  0  0
 32 33  1  0  0  0  0
 33 41  1  0  0  0  0
 33 34  2  0  0  0  0
  8  9  1  0  0  0  0
  9 17  1  0  0  0  0
  9 10  2  0  0  0  0
 18 19  1  0  0  0  0
 19 31  1  0  0  0  0
 19 20  2  0  0  0  0
 32 35  1  0  0  0  0
  8 11  1  0  0  0  0
 21 23  1  0  0  0  0
 41 42  1  0  0  0  0
 31 32  1  0  0  0  0
  7  8  1  0  0  0  0
 18 21  1  0  0  0  0
 17 18  1  0  0  0  0
 21 22  1  0  0  0  0
  3  4  1  0  0  0  0
  3  5  1  0  0  0  0
  3  6  1  0  0  0  0
 35 38  1  0  0  0  0
 35 39  1  0  0  0  0
 35 40  1  0  0  0  0
 11 14  1  0  0  0  0
 11 15  1  0  0  0  0
 11 16  1  0  0  0  0
 23 28  1  0  0  0  0
 23 29  1  0  0  0  0
 23 30  1  0  0  0  0
 42 44  1  0  0  0  0
 42 45  1  0  0  0  0
 42 46  1  0  0  0  0
 32 37  1  0  0  0  0
  8 13  1  0  0  0  0
 18 25  1  0  0  0  0
 21 26  1  0  0  0  0
 41 43  1  0  0  0  0
  7 12  1  0  0  0  0
 31 36  1  0  0  0  0
 17 24  1  0  0  0  0
 22 27  1  0  0  0  0
M  END
$$$$

  -OEChem-05262214473D

 46 45  0     1  0  0  0  0  0999 V2000
   -4.6700    2.7214    1.5150 C   0  0  0  0  0  0  0  0  0  0  0  0
   -5.4532    2.5715    0.5845 O   0  0  0  0  0  0  0  0  0  0  0  0
   -5.0996    3.4865    2.7226 C   0  0  0  0  0  0  0  0  0  0  0  0
   -4.8796    4.5629    2.6387 H   0  0  0  0  0  0  0  0  0  0  0  0
   -6.1861    3.4241    2.8954 H   0  0  0  0  0  0  0  0  0  0  0  0
   -4.6369    3.1693    3.6708 H   0  0  0  0  0  0  0  0  0  0  0  0
   -3.3731    2.2391    1.5790 N   0  0  0  0  0  0  0  0  0  0  0  0
   -2.7599    1.4751    0.5247 C   0  0  2  0  0  0  0  0  0  0  0  0
   -1.5143    0.8067    1.0915 C   0  0  0  0  0  0  0  0  0  0  0  0
   -0.9247    1.2213    2.0872 O   0  0  0  0  0  0  0  0  0  0  0  0
   -2.4106    2.3553   -0.6653 C   0  0  0  0  0  0  0  0  0  0  0  0
   -2.8254    2.4352    2.4150 H   0  0  0  0  0  0  0  0  0  0  0  0
   -3.4836    0.7082    0.2278 H   0  0  0  0  0  0  0  0  0  0  0  0
   -1.6866    3.1298   -0.3871 H   0  0  0  0  0  0  0  0  0  0  0  0
   -1.9704    1.7677   -1.4777 H   0  0  0  0  0  0  0  0  0  0  0  0
   -3.3030    2.8584   -1.0531 H   0  0  0  0  0  0  0  0  0  0  0  0
   -1.1107   -0.2839    0.3303 N   0  0  0  0  0  0  0  0  0  0  0  0
    0.0490   -1.0750    0.6539 C   0  0  2  0  0  0  0  0  0  0  0  0
    1.1817   -0.1124    0.9986 C   0  0  0  0  0  0  0  0  0  0  0  0
    1.2190    0.5316    2.0451 O   0  0  0  0  0  0  0  0  0  0  0  0
    0.4481   -2.0352   -0.4761 C   0  0  2  0  0  0  0  0  0  0  0  0
    0.7744   -1.3117   -1.6617 O   0  0  0  0  0  0  0  0  0  0  0  0
   -0.6669   -3.0152   -0.8206 C   0  0  0  0  0  0  0  0  0  0  0  0
   -1.6733   -0.5660   -0.4691 H   0  0  0  0  0  0  0  0  0  0  0  0
   -0.2058   -1.6446    1.5559 H   0  0  0  0  0  0  0  0  0  0  0  0
    1.3373   -2.6093   -0.1907 H   0  0  0  0  0  0  0  0  0  0  0  0
    1.0629   -1.9684   -2.3136 H   0  0  0  0  0  0  0  0  0  0  0  0
   -1.5832   -2.4917   -1.1142 H   0  0  0  0  0  0  0  0  0  0  0  0
   -0.8912   -3.6750    0.0229 H   0  0  0  0  0  0  0  0  0  0  0  0
   -0.3758   -3.6335   -1.6770 H   0  0  0  0  0  0  0  0  0  0  0  0
    2.1189   -0.0207   -0.0208 N   0  0  0  0  0  0  0  0  0  0  0  0
    3.2678    0.8508    0.0559 C   0  0  2  0  0  0  0  0  0  0  0  0
    4.3115    0.1767    0.9366 C   0  0  0  0  0  0  0  0  0  0  0  0
    4.0326   -0.6859    1.7668 O   0  0  0  0  0  0  0  0  0  0  0  0
    2.8904    2.2165    0.6085 C   0  0  0  0  0  0  0  0  0  0  0  0
    1.9918   -0.5887   -0.8533 H   0  0  0  0  0  0  0  0  0  0  0  0
    3.6579    0.9502   -0.9629 H   0  0  0  0  0  0  0  0  0  0  0  0
    2.4975    2.1370    1.6286 H   0  0  0  0  0  0  0  0  0  0  0  0
    3.7569    2.8853    0.6392 H   0  0  0  0  0  0  0  0  0  0  0  0
    2.1181    2.6871   -0.0095 H   0  0  0  0  0  0  0  0  0  0  0  0
    5.5851    0.6823    0.7167 N   0  0  0  0  0  0  0  0  0  0  0  0
    6.7452    0.2143    1.4387 C   0  0  0  0  0  0  0  0  0  0  0  0
    5.7268    1.3832   -0.0047 H   0  0  0  0  0  0  0  0  0  0  0  0
    6.9056    0.8458    2.3249 H   0  0  0  0  0  0  0  0  0  0  0  0
    6.5846   -0.8270    1.7549 H   0  0  0  0  0  0  0  0  0  0  0  0
    7.6290    0.2671    0.7860 H   0  0  0  0  0  0  0  0  0  0  0  0
  1  3  1  0  0  0  0
  1  7  1  0  0  0  0
  1  2  2  0  0  0  0
 32 33  1  0  0  0  0
 33 41  1  0  0  0  0
 33 34  2  0  0  0  0
  8  9  1  0  0  0  0
  9 17  1  0  0  0  0
  9 10  2  0  0  0  0
 18 19  1  0  0  0  0
 19 31  1  0  0  0  0
 19 20  2  0  0  0  0
 32 35  1  0  0  0  0
  8 11  1  0  0  0  0
 21 23  1  0  0  0  0
 41 42  1  0  0  0  0
 31 32  1  0  0  0  0
  7  8  1  0  0  0  0
 18 21  1  0  0  0  0
 17 18  1  0  0  0  0
 21 22  1  0  0  0  0
  3  4  1  0  0  0  0
  3  5  1  0  0  0  0
  3  6  1  0  0  0  0
 35 38  1  0  0  0  0
 35 39  1  0  0  0  0
 35 40  1  0  0  0  0
 11 14  1  0  0  0  0
 11 15  1  0  0  0  0
 11 16  1  0  0  0  0
 23 28  1  0  0  0  0
 23 29  1  0  0  0  0
 23 30  1  0  0  0  0
 42 44  1  0  0  0  0
 42 45  1  0  0  0  0
 42 46  1  0  0  0  0
 32 37  1  0  0  0  0
  8 13  1  0  0  0  0
 18 25  1  0  0  0  0
 21 26  1  0  0  0  0
 41 43  1  0  0  0  0
  7 12  1  0  0  0  0
 31 36  1  0  0  0  0
 17 24  1  0  0  0  0
 22 27  1  0  0  0  0
M  END
$$$$

  -OEChem-05262214473D

 46 45  0     1  0  0  0  0  0999 V2000
   -4.6700    2.7214    1.5150 C   0  0  0  0  0  0  0  0  0  0  0  0
   -5.4532    2.5715    0.5845 O   0  0  0  0  0  0  0  0  0  0  0  0
   -5.0996    3.4865    2.7226 C   0  0  0  0  0  0  0  0  0  0  0  0
   -4.8796    4.5629    2.6387 H   0  0  0  0  0  0  0  0  0  0  0  0
   -6.1861    3.4241    2.8954 H   0  0  0  0  0  0  0  0  0  0  0  0
   -4.6369    3.1693    3.6708 H   0  0  0  0  0  0  0  0  0  0  0  0
   -3.3731    2.2391    1.5790 N   0  0  0  0  0  0  0  0  0  0  0  0
   -2.7599    1.4751    0.5247 C   0  0  2  0  0  0  0  0  0  0  0  0
   -1.5143    0.8067    1.0915 C   0  0  0  0  0  0  0  0  0  0  0  0
   -0.9247    1.2213    2.0872 O   0  0  0  0  0  0  0  0  0  0  0  0
   -2.4106    2.3553   -0.6653 C   0  0  0  0  0  0  0  0  0  0  0  0
   -2.8254    2.4352    2.4150 H   0  0  0  0  0  0  0  0  0  0  0  0
   -3.4836    0.7082    0.2278 H   0  0  0  0  0  0  0  0  0  0  0  0
   -1.6866    3.1298   -0.3871 H   0  0  0  0  0  0  0  0  0  0  0  0
   -1.9704    1.7677   -1.4777 H   0  0  0  0  0  0  0  0  0  0  0  0
   -3.3030    2.8584   -1.0531 H   0  0  0  0  0  0  0  0  0  0  0  0
   -1.1107   -0.2839    0.3303 N   0  0  0  0  0  0  0  0  0  0  0  0
    0.0490   -1.0750    0.6539 C   0  0  2  0  0  0  0  0  0  0  0  0
    1.1817   -0.1124    0.9986 C   0  0  0  0  0  0  0  0  0  0  0  0
    1.3679    0.3252    2.1322 O   0  0  0  0  0  0  0  0  0  0  0  0
    0.4481   -2.0352   -0.4761 C   0  0  2  0  0  0  0  0  0  0  0  0
    0.7744   -1.3117   -1.6617 O   0  0  0  0  0  0  0  0  0  0  0  0
   -0.6669   -3.0152   -0.8206 C   0  0  0  0  0  0  0  0  0  0  0  0
   -1.6733   -0.5660   -0.4691 H   0  0  0  0  0  0  0  0  0  0  0  0
   -0.2058   -1.6446    1.5559 H   0  0  0  0  0  0  0  0  0  0  0  0
    1.3373   -2.6093   -0.1907 H   0  0  0  0  0  0  0  0  0  0  0  0
    1.0629   -1.9684   -2.3136 H   0  0  0  0  0  0  0  0  0  0  0  0
   -1.5832   -2.4917   -1.1142 H   0  0  0  0  0  0  0  0  0  0  0  0
   -0.8912   -3.6750    0.0229 H   0  0  0  0  0  0  0  0  0  0  0  0
   -0.3758   -3.6335   -1.6770 H   0  0  0  0  0  0  0  0  0  0  0  0
    1.9284    0.2381   -0.1174 N   0  0  0  0  0  0  0  0  0  0  0  0
    3.0356    1.1628   -0.0526 C   0  0  2  0  0  0  0  0  0  0  0  0
    4.2409    0.4153    0.5024 C   0  0  0  0  0  0  0  0  0  0  0  0
    4.1432   -0.6059    1.1798 O   0  0  0  0  0  0  0  0  0  0  0  0
    2.6994    2.3689    0.8106 C   0  0  0  0  0  0  0  0  0  0  0  0
    1.6867   -0.1719   -1.0148 H   0  0  0  0  0  0  0  0  0  0  0  0
    3.2434    1.4800   -1.0803 H   0  0  0  0  0  0  0  0  0  0  0  0
    2.4882    2.0708    1.8441 H   0  0  0  0  0  0  0  0  0  0  0  0
    3.5294    3.0827    0.8356 H   0  0  0  0  0  0  0  0  0  0  0  0
    1.8145    2.8881    0.4270 H   0  0  0  0  0  0  0  0  0  0  0  0
    5.4364    1.0465    0.1886 N   0  0  0  0  0  0  0  0  0  0  0  0
    6.7205    0.5391    0.6122 C   0  0  0  0  0  0  0  0  0  0  0  0
    5.4242    1.8786   -0.3938 H   0  0  0  0  0  0  0  0  0  0  0  0
    7.0015    1.0037    1.5689 H   0  0  0  0  0  0  0  0  0  0  0  0
    6.6601   -0.5519    0.7384 H   0  0  0  0  0  0  0  0  0  0  0  0
    7.4783    0.7789   -0.1482 H   0  0  0  0  0  0  0  0  0  0  0  0
  1  3  1  0  0  0  0
  1  7  1  0  0  0  0
  1  2  2  0  0  0  0
 32 33  1  0  0  0  0
 33 41  1  0  0  0  0
 33 34  2  0  0  0  0
  8  9  1  0  0  0  0
  9 17  1  0  0  0  0
  9 10  2  0  0  0  0
 18 19  1  0  0  0  0
 19 31  1  0  0  0  0
 19 20  2  0  0  0  0
 32 35  1  0  0  0  0
  8 11  1  0  0  0  0
 21 23  1  0  0  0  0
 41 42  1  0  0  0  0
 31 32  1  0  0  0  0
  7  8  1  0  0  0  0
 18 21  1  0  0  0  0
 17 18  1  0  0  0  0
 21 22  1  0  0  0  0
  3  4  1  0  0  0  0
  3  5  1  0  0  0  0
  3  6  1  0  0  0  0
 35 38  1  0  0  0  0
 35 39  1  0  0  0  0
 35 40  1  0  0  0  0
 11 14  1  0  0  0  0
 11 15  1  0  0  0  0
 11 16  1  0  0  0  0
 23 28  1  0  0  0  0
 23 29  1  0  0  0  0
 23 30  1  0  0  0  0
 42 44  1  0  0  0  0
 42 45  1  0  0  0  0
 42 46  1  0  0  0  0
 32 37  1  0  0  0  0
  8 13  1  0  0  0  0
 18 25  1  0  0  0  0
 21 26  1  0  0  0  0
 41 43  1  0  0  0  0
  7 12  1  0  0  0  0
 31 36  1  0  0  0  0
 17 24  1  0  0  0  0
 22 27  1  0  0  0  0
M  END
$$$$

  -OEChem-05262214473D

 46 45  0     1  0  0  0  0  0999 V2000
   -4.6700    2.7214    1.5150 C   0  0  0  0  0  0  0  0  0  0  0  0
   -5.4532    2.5715    0.5845 O   0  0  0  0  0  0  0  0  0  0  0  0
   -5.0996    3.4865    2.7226 C   0  0  0  0  0  0  0  0  0  0  0  0
   -4.8796    4.5629    2.6387 H   0  0  0  0  0  0  0  0  0  0  0  0
   -6.1861    3.4241    2.8954 H   0  0  0  0  0  0  0  0  0  0  0  0
   -4.6369    3.1693    3.6708 H   0  0  0  0  0  0  0  0  0  0  0  0
   -3.3731    2.2391    1.5790 N   0  0  0  0  0  0  0  0  0  0  0  0
   -2.7599    1.4751    0.5247 C   0  0  2  0  0  0  0  0  0  0  0  0
   -1.5143    0.8067    1.0915 C   0  0  0  0  0  0  0  0  0  0  0  0
   -0.9247    1.2213    2.0872 O   0  0  0  0  0  0  0  0  0  0  0  0
   -2.4106    2.3553   -0.6653 C   0  0  0  0  0  0  0  0  0  0  0  0
   -2.8254    2.4352    2.4150 H   0  0  0  0  0  0  0  0  0  0  0  0
   -3.4836    0.7082    0.2278 H   0  0  0  0  0  0  0  0  0  0  0  0
   -1.6866    3.1298   -0.3871 H   0  0  0  0  0  0  0  0  0  0  0  0
   -1.9704    1.7677   -1.4777 H   0  0  0  0  0  0  0  0  0  0  0  0
   -3.3030    2.8584   -1.0531 H   0  0  0  0  0  0  0  0  0  0  0  0
   -1.1107   -0.2839    0.3303 N   0  0  0  0  0  0  0  0  0  0  0  0
    0.0490   -1.0750    0.6539 C   0  0  2  0  0  0  0  0  0  0  0  0
    1.1817   -0.1124    0.9986 C   0  0  0  0  0  0  0  0  0  0  0  0
    1.5380    0.1177    2.1524 O   0  0  0  0  0  0  0  0  0  0  0  0
    0.4481   -2.0352   -0.4761 C   0  0  2  0  0  0  0  0  0  0  0  0
    0.7744   -1.3117   -1.6617 O   0  0  0  0  0  0  0  0  0  0  0  0
   -0.6669   -3.0152   -0.8206 C   0  0  0  0  0  0  0  0  0  0  0  0
   -1.6733   -0.5660   -0.4691 H   0  0  0  0  0  0  0  0  0  0  0  0
   -0.2058   -1.6446    1.5559 H   0  0  0  0  0  0  0  0  0  0  0  0
    1.3373   -2.6093   -0.1907 H   0  0  0  0  0  0  0  0  0  0  0  0
    1.0629   -1.9684   -2.3136 H   0  0  0  0  0  0  0  0  0  0  0  0
   -1.5832   -2.4917   -1.1142 H   0  0  0  0  0  0  0  0  0  0  0  0
   -0.8912   -3.6750    0.0229 H   0  0  0  0  0  0  0  0  0  0  0  0
   -0.3758   -3.6335   -1.6770 H   0  0  0  0  0  0  0  0  0  0  0  0
    1.7135    0.4954   -0.1299 N   0  0  0  0  0  0  0  0  0  0  0  0
    2.7754    1.4715   -0.0595 C   0  0  2  0  0  0  0  0  0  0  0  0
    4.0878    0.7250    0.1404 C   0  0  0  0  0  0  0  0  0  0  0  0
    4.1495   -0.4093    0.6101 O   0  0  0  0  0  0  0  0  0  0  0  0
    2.5390    2.4661    1.0663 C   0  0  0  0  0  0  0  0  0  0  0  0
    1.3413    0.2440   -1.0410 H   0  0  0  0  0  0  0  0  0  0  0  0
    2.7928    1.9901   -1.0242 H   0  0  0  0  0  0  0  0  0  0  0  0
    2.5183    1.9649    2.0409 H   0  0  0  0  0  0  0  0  0  0  0  0
    3.3301    3.2224    1.1003 H   0  0  0  0  0  0  0  0  0  0  0  0
    1.5807    2.9807    0.9369 H   0  0  0  0  0  0  0  0  0  0  0  0
    5.1851    1.4910   -0.2273 N   0  0  0  0  0  0  0  0  0  0  0  0
    6.5428    1.0103   -0.1196 C   0  0  0  0  0  0  0  0  0  0  0  0
    5.0394    2.4142   -0.6250 H   0  0  0  0  0  0  0  0  0  0  0  0
    6.9614    1.3071    0.8534 H   0  0  0  0  0  0  0  0  0  0  0  0
    6.5510   -0.0865   -0.2029 H   0  0  0  0  0  0  0  0  0  0  0  0
    7.1504    1.4439   -0.9276 H   0  0  0  0  0  0  0  0  0  0  0  0
  1  3  1  0  0  0  0
  1  7  1  0  0  0  0
  1  2  2  0  0  0  0
 32 33  1  0  0  0  0
 33 41  1  0  0  0  0
 33 34  2  0  0  0  0
  8  9  1  0  0  0  0
  9 17  1  0  0  0  0
  9 10  2  0  0  0  0
 18 19  1  0  0  0  0
 19 31  1  0  0  0  0
 19 20  2  0  0  0  0
 32 35  1  0  0  0  0
  8 11  1  0  0  0  0
 21 23  1  0  0  0  0
 41 42  1  0  0  0  0
 31 32  1  0  0  0  0
  7  8  1  0  0  0  0
 18 21  1  0  0  0  0
 17 18  1  0  0  0  0
 21 22  1  0  0  0  0
  3  4  1  0  0  0  0
  3  5  1  0  0  0  0
  3  6  1  0  0  0  0
 35 38  1  0  0  0  0
 35 39  1  0  0  0  0
 35 40  1  0  0  0  0
 11 14  1  0  0  0  0
 11 15  1  0  0  0  0
 11 16  1  0  0  0  0
 23 28  1  0  0  0  0
 23 29  1  0  0  0  0
 23 30  1  0  0  0  0
 42 44  1  0  0  0  0
 42 45  1  0  0  0  0
 42 46  1  0  0  0  0
 32 37  1  0  0  0  0
  8 13  1  0  0  0  0
 18 25  1  0  0  0  0
 21 26  1  0  0  0  0
 41 43  1  0  0  0  0
  7 12  1  0  0  0  0
 31 36  1  0  0  0  0
 17 24  1  0  0  0  0
 22 27  1  0  0  0  0
M  END
$$$$

  -OEChem-05262214473D

 46 45  0     1  0  0  0  0  0999 V2000
   -4.6700    2.7214    1.5150 C   0  0  0  0  0  0  0  0  0  0  0  0
   -5.4532    2.5715    0.5845 O   0  0  0  0  0  0  0  0  0  0  0  0
   -5.0996    3.4865    2.7226 C   0  0  0  0  0  0  0  0  0  0  0  0
   -4.8796    4.5629    2.6387 H   0  0  0  0  0  0  0  0  0  0  0  0
   -6.1861    3.4241    2.8954 H   0  0  0  0  0  0  0  0  0  0  0  0
   -4.6369    3.1693    3.6708 H   0  0  0  0  0  0  0  0  0  0  0  0
   -3.3731    2.2391    1.5790 N   0  0  0  0  0  0  0  0  0  0  0  0
   -2.7599    1.4751    0.5247 C   0  0  2  0  0  0  0  0  0  0  0  0
   -1.5143    0.8067    1.0915 C   0  0  0  0  0  0  0  0  0  0  0  0
   -0.9247    1.2213    2.0872 O   0  0  0  0  0  0  0  0  0  0  0  0
   -2.4106    2.3553   -0.6653 C   0  0  0  0  0  0  0  0  0  0  0  0
   -2.8254    2.4352    2.4150 H   0  0  0  0  0  0  0  0  0  0  0  0
   -3.4836    0.7082    0.2278 H   0  0  0  0  0  0  0  0  0  0  0  0
   -1.6866    3.1298   -0.3871 H   0  0  0  0  0  0  0  0  0  0  0  0
   -1.9704    1.7677   -1.4777 H   0  0  0  0  0  0  0  0  0  0  0  0
   -3.3030    2.8584   -1.0531 H   0  0  0  0  0  0  0  0  0  0  0  0
   -1.1107   -0.2839    0.3303 N   0  0  0  0  0  0  0  0  0  0  0  0
    0.0490   -1.0750    0.6539 C   0  0  2  0  0  0  0  0  0  0  0  0
    1.1817   -0.1124    0.9986 C   0  0  0  0  0  0  0  0  0  0  0  0
    1.7178   -0.0765    2.1043 O   0  0  0  0  0  0  0  0  0  0  0  0
    0.4481   -2.0352   -0.4761 C   0  0  2  0  0  0  0  0  0  0  0  0
    0.7744   -1.3117   -1.6617 O   0  0  0  0  0  0  0  0  0  0  0  0
   -0.6669   -3.0152   -0.8206 C   0  0  0  0  0  0  0  0  0  0  0  0
   -1.6733   -0.5660   -0.4691 H   0  0  0  0  0  0  0  0  0  0  0  0
   -0.2058   -1.6446    1.5559 H   0  0  0  0  0  0  0  0  0  0  0  0
    1.3373   -2.6093   -0.1907 H   0  0  0  0  0  0  0  0  0  0  0  0
    1.0629   -1.9684   -2.3136 H   0  0  0  0  0  0  0  0  0  0  0  0
   -1.5832   -2.4917   -1.1142 H   0  0  0  0  0  0  0  0  0  0  0  0
   -0.8912   -3.6750    0.0229 H   0  0  0  0  0  0  0  0  0  0  0  0
   -0.3758   -3.6335   -1.6770 H   0  0  0  0  0  0  0  0  0  0  0  0
    1.4888    0.7339   -0.0575 N   0  0  0  0  0  0  0  0  0  0  0  0
    2.5049    1.7557    0.0356 C   0  0  2  0  0  0  0  0  0  0  0  0
    3.8627    1.0848   -0.1248 C   0  0  0  0  0  0  0  0  0  0  0  0
    4.0511   -0.1096    0.0966 O   0  0  0  0  0  0  0  0  0  0  0  0
    2.4200    2.5015    1.3582 C   0  0  0  0  0  0  0  0  0  0  0  0
    0.9790    0.6305   -0.9300 H   0  0  0  0  0  0  0  0  0  0  0  0
    2.3370    2.4456   -0.7985 H   0  0  0  0  0  0  0  0  0  0  0  0
    2.5857    1.8265    2.2058 H   0  0  0  0  0  0  0  0  0  0  0  0
    3.1727    3.2948    1.4154 H   0  0  0  0  0  0  0  0  0  0  0  0
    1.4327    2.9585    1.4853 H   0  0  0  0  0  0  0  0  0  0  0  0
    4.8486    1.9856   -0.5026 N   0  0  0  0  0  0  0  0  0  0  0  0
    6.2241    1.5956   -0.7070 C   0  0  0  0  0  0  0  0  0  0  0  0
    4.5986    2.9535   -0.6827 H   0  0  0  0  0  0  0  0  0  0  0  0
    6.7881    1.7353    0.2270 H   0  0  0  0  0  0  0  0  0  0  0  0
    6.2647    0.5375   -1.0050 H   0  0  0  0  0  0  0  0  0  0  0  0
    6.6674    2.2169   -1.4992 H   0  0  0  0  0  0  0  0  0  0  0  0
  1  3  1  0  0  0  0
  1  7  1  0  0  0  0
  1  2  2  0  0  0  0
 32 33  1  0  0  0  0
 33 41  1  0  0  0  0
 33 34  2  0  0  0  0
  8  9  1  0  0  0  0
  9 17  1  0  0  0  0
  9 10  2  0  0  0  0
 18 19  1  0  0  0  0
 19 31  1  0  0  0  0
 19 20  2  0  0  0  0
 32 35  1  0  0  0  0
  8 11  1  0  0  0  0
 21 23  1  0  0  0  0
 41 42  1  0  0  0  0
 31 32  1  0  0  0  0
  7  8  1  0  0  0  0
 18 21  1  0  0  0  0
 17 18  1  0  0  0  0
 21 22  1  0  0  0  0
  3  4  1  0  0  0  0
  3  5  1  0  0  0  0
  3  6  1  0  0  0  0
 35 38  1  0  0  0  0
 35 39  1  0  0  0  0
 35 40  1  0  0  0  0
 11 14  1  0  0  0  0
 11 15  1  0  0  0  0
 11 16  1  0  0  0  0
 23 28  1  0  0  0  0
 23 29  1  0  0  0  0
 23 30  1  0  0  0  0
 42 44  1  0  0  0  0
 42 45  1  0  0  0  0
 42 46  1  0  0  0  0
 32 37  1  0  0  0  0
  8 13  1  0  0  0  0
 18 25  1  0  0  0  0
 21 26  1  0  0  0  0
 41 43  1  0  0  0  0
  7 12  1  0  0  0  0
 31 36  1  0  0  0  0
 17 24  1  0  0  0  0
 22 27  1  0  0  0  0
M  END
$$$$

  -OEChem-05262214473D

 46 45  0     1  0  0  0  0  0999 V2000
   -4.6700    2.7214    1.5150 C   0  0  0  0  0  0  0  0  0  0  0  0
   -5.4532    2.5715    0.5845 O   0  0  0  0  0  0  0  0  0  0  0  0
   -5.0996    3.4865    2.7226 C   0  0  0  0  0  0  0  0  0  0  0  0
   -4.8796    4.5629    2.6387 H   0  0  0  0  0  0  0  0  0  0  0  0
   -6.1861    3.4241    2.8954 H   0  0  0  0  0  0  0  0  0  0  0  0
   -4.6369    3.1693    3.6708 H   0  0  0  0  0  0  0  0  0  0  0  0
   -3.3731    2.2391    1.5790 N   0  0  0  0  0  0  0  0  0  0  0  0
   -2.7599    1.4751    0.5247 C   0  0  2  0  0  0  0  0  0  0  0  0
   -1.5143    0.8067    1.0915 C   0  0  0  0  0  0  0  0  0  0  0  0
   -0.9247    1.2213    2.0872 O   0  0  0  0  0  0  0  0  0  0  0  0
   -2.4106    2.3553   -0.6653 C   0  0  0  0  0  0  0  0  0  0  0  0
   -2.8254    2.4352    2.4150 H   0  0  0  0  0  0  0  0  0  0  0  0
   -3.4836    0.7082    0.2278 H   0  0  0  0  0  0  0  0  0  0  0  0
   -1.6866    3.1298   -0.3871 H   0  0  0  0  0  0  0  0  0  0  0  0
   -1.9704    1.7677   -1.4777 H   0  0  0  0  0  0  0  0  0  0  0  0
   -3.3030    2.8584   -1.0531 H   0  0  0  0  0  0  0  0  0  0  0  0
   -1.1107   -0.2839    0.3303 N   0  0  0  0  0  0  0  0  0  0  0  0
    0.0490   -1.0750    0.6539 C   0  0  2  0  0  0  0  0  0  0  0  0
    1.1817   -0.1124    0.9986 C   0  0  0  0  0  0  0  0  0  0  0  0
    1.8949   -0.2445    1.9911 O   0  0  0  0  0  0  0  0  0  0  0  0
    0.4481   -2.0352   -0.4761 C   0  0  2  0  0  0  0  0  0  0  0  0
    0.7744   -1.3117   -1.6617 O   0  0  0  0  0  0  0  0  0  0  0  0
   -0.6669   -3.0152   -0.8206 C   0  0  0  0  0  0  0  0  0  0  0  0
   -1.6733   -0.5660   -0.4691 H   0  0  0  0  0  0  0  0  0  0  0  0
   -0.2058   -1.6446    1.5559 H   0  0  0  0  0  0  0  0  0  0  0  0
    1.3373   -2.6093   -0.1907 H   0  0  0  0  0  0  0  0  0  0  0  0
    1.0629   -1.9684   -2.3136 H   0  0  0  0  0  0  0  0  0  0  0  0
   -1.5832   -2.4917   -1.1142 H   0  0  0  0  0  0  0  0  0  0  0  0
   -0.8912   -3.6750    0.0229 H   0  0  0  0  0  0  0  0  0  0  0  0
   -0.3758   -3.6335   -1.6770 H   0  0  0  0  0  0  0  0  0  0  0  0
    1.2697    0.9371    0.0950 N   0  0  0  0  0  0  0  0  0  0  0  0
    2.2426    1.9962    0.2263 C   0  0  2  0  0  0  0  0  0  0  0  0
    3.5810    1.4701   -0.2751 C   0  0  0  0  0  0  0  0  0  0  0  0
    3.8547    0.2727   -0.3258 O   0  0  0  0  0  0  0  0  0  0  0  0
    2.3508    2.4727    1.6664 C   0  0  0  0  0  0  0  0  0  0  0  0
    0.6246    0.9613   -0.6894 H   0  0  0  0  0  0  0  0  0  0  0  0
    1.9069    2.8157   -0.4186 H   0  0  0  0  0  0  0  0  0  0  0  0
    2.6858    1.6652    2.3275 H   0  0  0  0  0  0  0  0  0  0  0  0
    3.0679    3.2950    1.7594 H   0  0  0  0  0  0  0  0  0  0  0  0
    1.3806    2.8230    2.0349 H   0  0  0  0  0  0  0  0  0  0  0  0
    4.4497    2.4965   -0.6185 N   0  0  0  0  0  0  0  0  0  0  0  0
    5.7862    2.2552   -1.1099 C   0  0  0  0  0  0  0  0  0  0  0  0
    4.1319    3.4597   -0.5627 H   0  0  0  0  0  0  0  0  0  0  0  0
    6.4934    2.2590   -0.2674 H   0  0  0  0  0  0  0  0  0  0  0  0
    5.8208    1.2776   -1.6130 H   0  0  0  0  0  0  0  0  0  0  0  0
    6.0624    3.0451   -1.8239 H   0  0  0  0  0  0  0  0  0  0  0  0
  1  3  1  0  0  0  0
  1  7  1  0  0  0  0
  1  2  2  0  0  0  0
 32 33  1  0  0  0  0
 33 41  1  0  0  0  0
 33 34  2  0  0  0  0
  8  9  1  0  0  0  0
  9 17  1  0  0  0  0
  9 10  2  0  0  0  0
 18 19  1  0  0  0  0
 19 31  1  0  0  0  0
 19 20  2  0  0  0  0
 32 35  1  0  0  0  0
  8 11  1  0  0  0  0
 21 23  1  0  0  0  0
 41 42  1  0  0  0  0
 31 32  1  0  0  0  0
  7  8  1  0  0  0  0
 18 21  1  0  0  0  0
 17 18  1  0  0  0  0
 21 22  1  0  0  0  0
  3  4  1  0  0  0  0
  3  5  1  0  0  0  0
  3  6  1  0  0  0  0
 35 38  1  0  0  0  0
 35 39  1  0  0  0  0
 35 40  1  0  0  0  0
 11 14  1  0  0  0  0
 11 15  1  0  0  0  0
 11 16  1  0  0  0  0
 23 28  1  0  0  0  0
 23 29  1  0  0  0  0
 23 30  1  0  0  0  0
 42 44  1  0  0  0  0
 42 45  1  0  0  0  0
 42 46  1  0  0  0  0
 32 37  1  0  0  0  0
  8 13  1  0  0  0  0
 18 25  1  0  0  0  0
 21 26  1  0  0  0  0
 41 43  1  0  0  0  0
  7 12  1  0  0  0  0
 31 36  1  0  0  0  0
 17 24  1  0  0  0  0
 22 27  1  0  0  0  0
M  END
$$$$

  -OEChem-05262214473D

 46 45  0     1  0  0  0  0  0999 V2000
   -4.6700    2.7214    1.5150 C   0  0  0  0  0  0  0  0  0  0  0  0
   -5.4532    2.5715    0.5845 O   0  0  0  0  0  0  0  0  0  0  0  0
   -5.0996    3.4865    2.7226 C   0  0  0  0  0  0  0  0  0  0  0  0
   -4.8796    4.5629    2.6387 H   0  0  0  0  0  0  0  0  0  0  0  0
   -6.1861    3.4241    2.8954 H   0  0  0  0  0  0  0  0  0  0  0  0
   -4.6369    3.1693    3.6708 H   0  0  0  0  0  0  0  0  0  0  0  0
   -3.3731    2.2391    1.5790 N   0  0  0  0  0  0  0  0  0  0  0  0
   -2.7599    1.4751    0.5247 C   0  0  2  0  0  0  0  0  0  0  0  0
   -1.5143    0.8067    1.0915 C   0  0  0  0  0  0  0  0  0  0  0  0
   -0.9247    1.2213    2.0872 O   0  0  0  0  0  0  0  0  0  0  0  0
   -2.4106    2.3553   -0.6653 C   0  0  0  0  0  0  0  0  0  0  0  0
   -2.8254    2.4352    2.4150 H   0  0  0  0  0  0  0  0  0  0  0  0
   -3.4836    0.7082    0.2278 H   0  0  0  0  0  0  0  0  0  0  0  0
   -1.6866    3.1298   -0.3871 H   0  0  0  0  0  0  0  0  0  0  0  0
   -1.9704    1.7677   -1.4777 H   0  0  0  0  0  0  0  0  0  0  0  0
   -3.3030    2.8584   -1.0531 H   0  0  0  0  0  0  0  0  0  0  0  0
   -1.1107   -0.2839    0.3303 N   0  0  0  0  0  0  0  0  0  0  0  0
    0.0490   -1.0750    0.6539 C   0  0  2  0  0  0  0  0  0  0  0  0
    1.1817   -0.1124    0.9986 C   0  0  0  0  0  0  0  0  0  0  0  0
    2.0573   -0.3746    1.8207 O   0  0  0  0  0  0  0  0  0  0  0  0
    0.4481   -2.0352   -0.4761 C   0  0  2  0  0  0  0  0  0  0  0  0
    0.7744   -1.3117   -1.6617 O   0  0  0  0  0  0  0  0  0  0  0  0
   -0.6669   -3.0152   -0.8206 C   0  0  0  0  0  0  0  0  0  0  0  0
   -1.6733   -0.5660   -0.4691 H   0  0  0  0  0  0  0  0  0  0  0  0
   -0.2058   -1.6446    1.5559 H   0  0  0  0  0  0  0  0  0  0  0  0
    1.3373   -2.6093   -0.1907 H   0  0  0  0  0  0  0  0  0  0  0  0
    1.0629   -1.9684   -2.3136 H   0  0  0  0  0  0  0  0  0  0  0  0
   -1.5832   -2.4917   -1.1142 H   0  0  0  0  0  0  0  0  0  0  0  0
   -0.8912   -3.6750    0.0229 H   0  0  0  0  0  0  0  0  0  0  0  0
   -0.3758   -3.6335   -1.6770 H   0  0  0  0  0  0  0  0  0  0  0  0
    1.0711    1.0913    0.3171 N   0  0  0  0  0  0  0  0  0  0  0  0
    2.0062    2.1765    0.4994 C   0  0  2  0  0  0  0  0  0  0  0  0
    3.2618    1.8547   -0.3002 C   0  0  0  0  0  0  0  0  0  0  0  0
    3.5736    0.7118   -0.6282 O   0  0  0  0  0  0  0  0  0  0  0  0
    2.3359    2.3816    1.9698 C   0  0  0  0  0  0  0  0  0  0  0  0
    0.3023    1.2139   -0.3355 H   0  0  0  0  0  0  0  0  0  0  0  0
    1.5319    3.0750    0.0898 H   0  0  0  0  0  0  0  0  0  0  0  0
    2.8118    1.4918    2.3977 H   0  0  0  0  0  0  0  0  0  0  0  0
    3.0228    3.2230    2.1088 H   0  0  0  0  0  0  0  0  0  0  0  0
    1.4279    2.5835    2.5483 H   0  0  0  0  0  0  0  0  0  0  0  0
    4.0155    2.9890   -0.5672 N   0  0  0  0  0  0  0  0  0  0  0  0
    5.2588    2.9441   -1.3008 C   0  0  0  0  0  0  0  0  0  0  0  0
    3.6711    3.8984   -0.2735 H   0  0  0  0  0  0  0  0  0  0  0  0
    6.0974    2.8427   -0.5962 H   0  0  0  0  0  0  0  0  0  0  0  0
    5.2494    2.0834   -1.9857 H   0  0  0  0  0  0  0  0  0  0  0  0
    5.3766    3.8720   -1.8797 H   0  0  0  0  0  0  0  0  0  0  0  0
  1  3  1  0  0  0  0
  1  7  1  0  0  0  0
  1  2  2  0  0  0  0
 32 33  1  0  0  0  0
 33 41  1  0  0  0  0
 33 34  2  0  0  0  0
  8  9  1  0  0  0  0
  9 17  1  0  0  0  0
  9 10  2  0  0  0  0
 18 19  1  0  0  0  0
 19 31  1  0  0  0  0
 19 20  2  0  0  0  0
 32 35  1  0  0  0  0
  8 11  1  0  0  0  0
 21 23  1  0  0  0  0
 41 42  1  0  0  0  0
 31 32  1  0  0  0  0
  7  8  1  0  0  0  0
 18 21  1  0  0  0  0
 17 18  1  0  0  0  0
 21 22  1  0  0  0  0
  3  4  1  0  0  0  0
  3  5  1  0  0  0  0
  3  6  1  0  0  0  0
 35 38  1  0  0  0  0
 35 39  1  0  0  0  0
 35 40  1  0  0  0  0
 11 14  1  0  0  0  0
 11 15  1  0  0  0  0
 11 16  1  0  0  0  0
 23 28  1  0  0  0  0
 23 29  1  0  0  0  0
 23 30  1  0  0  0  0
 42 44  1  0  0  0  0
 42 45  1  0  0  0  0
 42 46  1  0  0  0  0
 32 37  1  0  0  0  0
  8 13  1  0  0  0  0
 18 25  1  0  0  0  0
 21 26  1  0  0  0  0
 41 43  1  0  0  0  0
  7 12  1  0  0  0  0
 31 36  1  0  0  0  0
 17 24  1  0  0  0  0
 22 27  1  0  0  0  0
M  END
$$$$

  -OEChem-05262214473D

 46 45  0     1  0  0  0  0  0999 V2000
   -4.6700    2.7214    1.5150 C   0  0  0  0  0  0  0  0  0  0  0  0
   -5.4532    2.5715    0.5845 O   0  0  0  0  0  0  0  0  0  0  0  0
   -5.0996    3.4865    2.7226 C   0  0  0  0  0  0  0  0  0  0  0  0
   -4.8796    4.5629    2.6387 H   0  0  0  0  0  0  0  0  0  0  0  0
   -6.1861    3.4241    2.8954 H   0  0  0  0  0  0  0  0  0  0  0  0
   -4.6369    3.1693    3.6708 H   0  0  0  0  0  0  0  0  0  0  0  0
   -3.3731    2.2391    1.5790 N   0  0  0  0  0  0  0  0  0  0  0  0
   -2.7599    1.4751    0.5247 C   0  0  2  0  0  0  0  0  0  0  0  0
   -1.5143    0.8067    1.0915 C   0  0  0  0  0  0  0  0  0  0  0  0
   -0.9247    1.2213    2.0872 O   0  0  0  0  0  0  0  0  0  0  0  0
   -2.4106    2.3553   -0.6653 C   0  0  0  0  0  0  0  0  0  0  0  0
   -2.8254    2.4352    2.4150 H   0  0  0  0  0  0  0  0  0  0  0  0
   -3.4836    0.7082    0.2278 H   0  0  0  0  0  0  0  0  0  0  0  0
   -1.6866    3.1298   -0.3871 H   0  0  0  0  0  0  0  0  0  0  0  0
   -1.9704    1.7677   -1.4777 H   0  0  0  0  0  0  0  0  0  0  0  0
   -3.3030    2.8584   -1.0531 H   0  0  0  0  0  0  0  0  0  0  0  0
   -1.1107   -0.2839    0.3303 N   0  0  0  0  0  0  0  0  0  0  0  0
    0.0490   -1.0750    0.6539 C   0  0  2  0  0  0  0  0  0  0  0  0
    1.1817   -0.1124    0.9986 C   0  0  0  0  0  0  0  0  0  0  0  0
    2.1940   -0.4580    1.6045 O   0  0  0  0  0  0  0  0  0  0  0  0
    0.4481   -2.0352   -0.4761 C   0  0  2  0  0  0  0  0  0  0  0  0
    0.7744   -1.3117   -1.6617 O   0  0  0  0  0  0  0  0  0  0  0  0
   -0.6669   -3.0152   -0.8206 C   0  0  0  0  0  0  0  0  0  0  0  0
   -1.6733   -0.5660   -0.4691 H   0  0  0  0  0  0  0  0  0  0  0  0
   -0.2058   -1.6446    1.5559 H   0  0  0  0  0  0  0  0  0  0  0  0
    1.3373   -2.6093   -0.1907 H   0  0  0  0  0  0  0  0  0  0  0  0
    1.0629   -1.9684   -2.3136 H   0  0  0  0  0  0  0  0  0  0  0  0
   -1.5832   -2.4917   -1.1142 H   0  0  0  0  0  0  0  0  0  0  0  0
   -0.8912   -3.6750    0.0229 H   0  0  0  0  0  0  0  0  0  0  0  0
   -0.3758   -3.6335   -1.6770 H   0  0  0  0  0  0  0  0  0  0  0  0
    0.9064    1.1860    0.5936 N   0  0  0  0  0  0  0  0  0  0  0  0
    1.8120    2.2844    0.8365 C   0  0  2  0  0  0  0  0  0  0  0  0
    2.9269    2.2123   -0.1984 C   0  0  0  0  0  0  0  0  0  0  0  0
    3.2271    1.1775   -0.7901 O   0  0  0  0  0  0  0  0  0  0  0  0
    2.3763    2.2345    2.2478 C   0  0  0  0  0  0  0  0  0  0  0  0
    0.0339    1.3711    0.1075 H   0  0  0  0  0  0  0  0  0  0  0  0
    1.2375    3.2058    0.6918 H   0  0  0  0  0  0  0  0  0  0  0  0
    2.9551    1.3181    2.4116 H   0  0  0  0  0  0  0  0  0  0  0  0
    3.0405    3.0836    2.4398 H   0  0  0  0  0  0  0  0  0  0  0  0
    1.5715    2.2563    2.9904 H   0  0  0  0  0  0  0  0  0  0  0  0
    3.5758    3.4295   -0.3522 N   0  0  0  0  0  0  0  0  0  0  0  0
    4.6780    3.6154   -1.2668 C   0  0  0  0  0  0  0  0  0  0  0  0
    3.2476    4.2395    0.1655 H   0  0  0  0  0  0  0  0  0  0  0  0
    5.6271    3.4466   -0.7371 H   0  0  0  0  0  0  0  0  0  0  0  0
    4.5895    2.8999   -2.0976 H   0  0  0  0  0  0  0  0  0  0  0  0
    4.6567    4.6415   -1.6627 H   0  0  0  0  0  0  0  0  0  0  0  0
  1  3  1  0  0  0  0
  1  7  1  0  0  0  0
  1  2  2  0  0  0  0
 32 33  1  0  0  0  0
 33 41  1  0  0  0  0
 33 34  2  0  0  0  0
  8  9  1  0  0  0  0
  9 17  1  0  0  0  0
  9 10  2  0  0  0  0
 18 19  1  0  0  0  0
 19 31  1  0  0  0  0
 19 20  2  0  0  0  0
 32 35  1  0  0  0  0
  8 11  1  0  0  0  0
 21 23  1  0  0  0  0
 41 42  1  0  0  0  0
 31 32  1  0  0  0  0
  7  8  1  0  0  0  0
 18 21  1  0  0  0  0
 17 18  1  0  0  0  0
 21 22  1  0  0  0  0
  3  4  1  0  0  0  0
  3  5  1  0  0  0  0
  3  6  1  0  0  0  0
 35 38  1  0  0  0  0
 35 39  1  0  0  0  0
 35 40  1  0  0  0  0
 11 14  1  0  0  0  0
 11 15  1  0  0  0  0
 11 16  1  0  0  0  0
 23 28  1  0  0  0  0
 23 29  1  0  0  0  0
 23 30  1  0  0  0  0
 42 44  1  0  0  0  0
 42 45  1  0  0  0  0
 42 46  1  0  0  0  0
 32 37  1  0  0  0  0
  8 13  1  0  0  0  0
 18 25  1  0  0  0  0
 21 26  1  0  0  0  0
 41 43  1  0  0  0  0
  7 12  1  0  0  0  0
 31 36  1  0  0  0  0
 17 24  1  0  0  0  0
 22 27  1  0  0  0  0
M  END
$$$$

  -OEChem-05262214473D

 46 45  0     1  0  0  0  0  0999 V2000
   -4.6700    2.7214    1.5150 C   0  0  0  0  0  0  0  0  0  0  0  0
   -5.4532    2.5715    0.5845 O   0  0  0  0  0  0  0  0  0  0  0  0
   -5.0996    3.4865    2.7226 C   0  0  0  0  0  0  0  0  0  0  0  0
   -4.8796    4.5629    2.6387 H   0  0  0  0  0  0  0  0  0  0  0  0
   -6.1861    3.4241    2.8954 H   0  0  0  0  0  0  0  0  0  0  0  0
   -4.6369    3.1693    3.6708 H   0  0  0  0  0  0  0  0  0  0  0  0
   -3.3731    2.2391    1.5790 N   0  0  0  0  0  0  0  0  0  0  0  0
   -2.7599    1.4751    0.5247 C   0  0  2  0  0  0  0  0  0  0  0  0
   -1.5143    0.8067    1.0915 C   0  0  0  0  0  0  0  0  0  0  0  0
   -0.9247    1.2213    2.0872 O   0  0  0  0  0  0  0  0  0  0  0  0
   -2.4106    2.3553   -0.6653 C   0  0  0  0  0  0  0  0  0  0  0  0
   -2.8254    2.4352    2.4150 H   0  0  0  0  0  0  0  0  0  0  0  0
   -3.4836    0.7082    0.2278 H   0  0  0  0  0  0  0  0  0  0  0  0
   -1.6866    3.1298   -0.3871 H   0  0  0  0  0  0  0  0  0  0  0  0
   -1.9704    1.7677   -1.4777 H   0  0  0  0  0  0  0  0  0  0  0  0
   -3.3030    2.8584   -1.0531 H   0  0  0  0  0  0  0  0  0  0  0  0
   -1.1107   -0.2839    0.3303 N   0  0  0  0  0  0  0  0  0  0  0  0
    0.0490   -1.0750    0.6539 C   0  0  2  0  0  0  0  0  0  0  0  0
    1.1817   -0.1124    0.9986 C   0  0  0  0  0  0  0  0  0  0  0  0
    2.2956   -0.4890    1.3573 O   0  0  0  0  0  0  0  0  0  0  0  0
    0.4481   -2.0352   -0.4761 C   0  0  2  0  0  0  0  0  0  0  0  0
    0.7744   -1.3117   -1.6617 O   0  0  0  0  0  0  0  0  0  0  0  0
   -0.6669   -3.0152   -0.8206 C   0  0  0  0  0  0  0  0  0  0  0  0
   -1.6733   -0.5660   -0.4691 H   0  0  0  0  0  0  0  0  0  0  0  0
   -0.2058   -1.6446    1.5559 H   0  0  0  0  0  0  0  0  0  0  0  0
    1.3373   -2.6093   -0.1907 H   0  0  0  0  0  0  0  0  0  0  0  0
    1.0629   -1.9684   -2.3136 H   0  0  0  0  0  0  0  0  0  0  0  0
   -1.5832   -2.4917   -1.1142 H   0  0  0  0  0  0  0  0  0  0  0  0
   -0.8912   -3.6750    0.0229 H   0  0  0  0  0  0  0  0  0  0  0  0
   -0.3758   -3.6335   -1.6770 H   0  0  0  0  0  0  0  0  0  0  0  0
    0.7870    1.2147    0.9059 N   0  0  0  0  0  0  0  0  0  0  0  0
    1.6731    2.3124    1.2146 C   0  0  2  0  0  0  0  0  0  0  0  0
    2.5991    2.5187    0.0232 C   0  0  0  0  0  0  0  0  0  0  0  0
    2.8387    1.6382   -0.8005 O   0  0  0  0  0  0  0  0  0  0  0  0
    2.4694    2.0413    2.4815 C   0  0  0  0  0  0  0  0  0  0  0  0
   -0.1621    1.4221    0.6093 H   0  0  0  0  0  0  0  0  0  0  0  0
    1.0438    3.1993    1.3466 H   0  0  0  0  0  0  0  0  0  0  0  0
    3.1060    1.1561    2.3683 H   0  0  0  0  0  0  0  0  0  0  0  0
    3.1198    2.8865    2.7299 H   0  0  0  0  0  0  0  0  0  0  0  0
    1.8014    1.8637    3.3312 H   0  0  0  0  0  0  0  0  0  0  0  0
    3.1603    3.7880    0.0120 N   0  0  0  0  0  0  0  0  0  0  0  0
    4.0832    4.2233   -1.0101 C   0  0  0  0  0  0  0  0  0  0  0  0
    2.8903    4.4600    0.7242 H   0  0  0  0  0  0  0  0  0  0  0  0
    5.1146    4.0294   -0.6803 H   0  0  0  0  0  0  0  0  0  0  0  0
    3.8862    3.6715   -1.9410 H   0  0  0  0  0  0  0  0  0  0  0  0
    3.9517    5.3009   -1.1877 H   0  0  0  0  0  0  0  0  0  0  0  0
  1  3  1  0  0  0  0
  1  7  1  0  0  0  0
  1  2  2  0  0  0  0
 32 33  1  0  0  0  0
 33 41  1  0  0  0  0
 33 34  2  0  0  0  0
  8  9  1  0  0  0  0
  9 17  1  0  0  0  0
  9 10  2  0  0  0  0
 18 19  1  0  0  0  0
 19 31  1  0  0  0  0
 19 20  2  0  0  0  0
 32 35  1  0  0  0  0
  8 11  1  0  0  0  0
 21 23  1  0  0  0  0
 41 42  1  0  0  0  0
 31 32  1  0  0  0  0
  7  8  1  0  0  0  0
 18 21  1  0  0  0  0
 17 18  1  0  0  0  0
 21 22  1  0  0  0  0
  3  4  1  0  0  0  0
  3  5  1  0  0  0  0
  3  6  1  0  0  0  0
 35 38  1  0  0  0  0
 35 39  1  0  0  0  0
 35 40  1  0  0  0  0
 11 14  1  0  0  0  0
 11 15  1  0  0  0  0
 11 16  1  0  0  0  0
 23 28  1  0  0  0  0
 23 29  1  0  0  0  0
 23 30  1  0  0  0  0
 42 44  1  0  0  0  0
 42 45  1  0  0  0  0
 42 46  1  0  0  0  0
 32 37  1  0  0  0  0
  8 13  1  0  0  0  0
 18 25  1  0  0  0  0
 21 26  1  0  0  0  0
 41 43  1  0  0  0  0
  7 12  1  0  0  0  0
 31 36  1  0  0  0  0
 17 24  1  0  0  0  0
 22 27  1  0  0  0  0
M  END
$$$$

  -OEChem-05262214473D

 46 45  0     1  0  0  0  0  0999 V2000
   -4.6700    2.7214    1.5150 C   0  0  0  0  0  0  0  0  0  0  0  0
   -5.4532    2.5715    0.5845 O   0  0  0  0  0  0  0  0  0  0  0  0
   -5.0996    3.4865    2.7226 C   0  0  0  0  0  0  0  0  0  0  0  0
   -4.8796    4.5629    2.6387 H   0  0  0  0  0  0  0  0  0  0  0  0
   -6.1861    3.4241    2.8954 H   0  0  0  0  0  0  0  0  0  0  0  0
   -4.6369    3.1693    3.6708 H   0  0  0  0  0  0  0  0  0  0  0  0
   -3.3731    2.2391    1.5790 N   0  0  0  0  0  0  0  0  0  0  0  0
   -2.7599    1.4751    0.5247 C   0  0  2  0  0  0  0  0  0  0  0  0
   -1.5143    0.8067    1.0915 C   0  0  0  0  0  0  0  0  0  0  0  0
   -0.9247    1.2213    2.0872 O   0  0  0  0  0  0  0  0  0  0  0  0
   -2.4106    2.3553   -0.6653 C   0  0  0  0  0  0  0  0  0  0  0  0
   -2.8254    2.4352    2.4150 H   0  0  0  0  0  0  0  0  0  0  0  0
   -3.4836    0.7082    0.2278 H   0  0  0  0  0  0  0  0  0  0  0  0
   -1.6866    3.1298   -0.3871 H   0  0  0  0  0  0  0  0  0  0  0  0
   -1.9704    1.7677   -1.4777 H   0  0  0  0  0  0  0  0  0  0  0  0
   -3.3030    2.8584   -1.0531 H   0  0  0  0  0  0  0  0  0  0  0  0
   -1.1107   -0.2839    0.3303 N   0  0  0  0  0  0  0  0  0  0  0  0
    0.0490   -1.0750    0.6539 C   0  0  2  0  0  0  0  0  0  0  0  0
    1.1817   -0.1124    0.9986 C   0  0  0  0  0  0  0  0  0  0  0  0
    2.3552   -0.4656    1.0960 O   0  0  0  0  0  0  0  0  0  0  0  0
    0.4481   -2.0352   -0.4761 C   0  0  2  0  0  0  0  0  0  0  0  0
    0.7744   -1.3117   -1.6617 O   0  0  0  0  0  0  0  0  0  0  0  0
   -0.6669   -3.0152   -0.8206 C   0  0  0  0  0  0  0  0  0  0  0  0
   -1.6733   -0.5660   -0.4691 H   0  0  0  0  0  0  0  0  0  0  0  0
   -0.2058   -1.6446    1.5559 H   0  0  0  0  0  0  0  0  0  0  0  0
    1.3373   -2.6093   -0.1907 H   0  0  0  0  0  0  0  0  0  0  0  0
    1.0629   -1.9684   -2.3136 H   0  0  0  0  0  0  0  0  0  0  0  0
   -1.5832   -2.4917   -1.1142 H   0  0  0  0  0  0  0  0  0  0  0  0
   -0.8912   -3.6750    0.0229 H   0  0  0  0  0  0  0  0  0  0  0  0
   -0.3758   -3.6335   -1.6770 H   0  0  0  0  0  0  0  0  0  0  0  0
    0.7210    1.1755    1.2325 N   0  0  0  0  0  0  0  0  0  0  0  0
    1.5990    2.2588    1.6078 C   0  0  2  0  0  0  0  0  0  0  0  0
    2.3008    2.7528    0.3497 C   0  0  0  0  0  0  0  0  0  0  0  0
    2.4349    2.0625   -0.6585 O   0  0  0  0  0  0  0  0  0  0  0  0
    2.6088    1.8152    2.6549 C   0  0  0  0  0  0  0  0  0  0  0  0
   -0.2726    1.3635    1.1359 H   0  0  0  0  0  0  0  0  0  0  0  0
    0.9640    3.0560    2.0094 H   0  0  0  0  0  0  0  0  0  0  0  0
    3.2541    1.0168    2.2707 H   0  0  0  0  0  0  0  0  0  0  0  0
    3.2552    2.6450    2.9593 H   0  0  0  0  0  0  0  0  0  0  0  0
    2.1021    1.4325    3.5474 H   0  0  0  0  0  0  0  0  0  0  0  0
    2.7976    4.0399    0.5005 N   0  0  0  0  0  0  0  0  0  0  0  0
    3.5151    4.7265   -0.5482 C   0  0  0  0  0  0  0  0  0  0  0  0
    2.6234    4.5447    1.3645 H   0  0  0  0  0  0  0  0  0  0  0  0
    4.5947    4.5515   -0.4299 H   0  0  0  0  0  0  0  0  0  0  0  0
    3.1872    4.3456   -1.5267 H   0  0  0  0  0  0  0  0  0  0  0  0
    3.3098    5.8054   -0.4872 H   0  0  0  0  0  0  0  0  0  0  0  0
  1  3  1  0  0  0  0
  1  7  1  0  0  0  0
  1  2  2  0  0  0  0
 32 33  1  0  0  0  0
 33 41  1  0  0  0  0
 33 34  2  0  0  0  0
  8  9  1  0  0  0  0
  9 17  1  0  0  0  0
  9 10  2  0  0  0  0
 18 19  1  0  0  0  0
 19 31  1  0  0  0  0
 19 20  2  0  0  0  0
 32 35  1  0  0  0  0
  8 11  1  0  0  0  0
 21 23  1  0  0  0  0
 41 42  1  0  0  0  0
 31 32  1  0  0  0  0
  7  8  1  0  0  0  0
 18 21  1  0  0  0  0
 17 18  1  0  0  0  0
 21 22  1  0  0  0  0
  3  4  1  0  0  0  0
  3  5  1  0  0  0  0
  3  6  1  0  0  0  0
 35 38  1  0  0  0  0
 35 39  1  0  0  0  0
 35 40  1  0  0  0  0
 11 14  1  0  0  0  0
 11 15  1  0  0  0  0
 11 16  1  0  0  0  0
 23 28  1  0  0  0  0
 23 29  1  0  0  0  0
 23 30  1  0  0  0  0
 42 44  1  0  0  0  0
 42 45  1  0  0  0  0
 42 46  1  0  0  0  0
 32 37  1  0  0  0  0
  8 13  1  0  0  0  0
 18 25  1  0  0  0  0
 21 26  1  0  0  0  0
 41 43  1  0  0  0  0
  7 12  1  0  0  0  0
 31 36  1  0  0  0  0
 17 24  1  0  0  0  0
 22 27  1  0  0  0  0
M  END
$$$$

  -OEChem-05262214473D

 46 45  0     1  0  0  0  0  0999 V2000
   -4.6700    2.7214    1.5150 C   0  0  0  0  0  0  0  0  0  0  0  0
   -5.4532    2.5715    0.5845 O   0  0  0  0  0  0  0  0  0  0  0  0
   -5.0996    3.4865    2.7226 C   0  0  0  0  0  0  0  0  0  0  0  0
   -4.8796    4.5629    2.6387 H   0  0  0  0  0  0  0  0  0  0  0  0
   -6.1861    3.4241    2.8954 H   0  0  0  0  0  0  0  0  0  0  0  0
   -4.6369    3.1693    3.6708 H   0  0  0  0  0  0  0  0  0  0  0  0
   -3.3731    2.2391    1.5790 N   0  0  0  0  0  0  0  0  0  0  0  0
   -2.7599    1.4751    0.5247 C   0  0  2  0  0  0  0  0  0  0  0  0
   -1.5143    0.8067    1.0915 C   0  0  0  0  0  0  0  0  0  0  0  0
   -0.9247    1.2213    2.0872 O   0  0  0  0  0  0  0  0  0  0  0  0
   -2.4106    2.3553   -0.6653 C   0  0  0  0  0  0  0  0  0  0  0  0
   -2.8254    2.4352    2.4150 H   0  0  0  0  0  0  0  0  0  0  0  0
   -3.4836    0.7082    0.2278 H   0  0  0  0  0  0  0  0  0  0  0  0
   -1.6866    3.1298   -0.3871 H   0  0  0  0  0  0  0  0  0  0  0  0
   -1.9704    1.7677   -1.4777 H   0  0  0  0  0  0  0  0  0  0  0  0
   -3.3030    2.8584   -1.0531 H   0  0  0  0  0  0  0  0  0  0  0  0
   -1.1107   -0.2839    0.3303 N   0  0  0  0  0  0  0  0  0  0  0  0
    0.0490   -1.0750    0.6539 C   0  0  2  0  0  0  0  0  0  0  0  0
    1.1817   -0.1124    0.9986 C   0  0  0  0  0  0  0  0  0  0  0  0
    2.3687   -0.3893    0.8384 O   0  0  0  0  0  0  0  0  0  0  0  0
    0.4481   -2.0352   -0.4761 C   0  0  2  0  0  0  0  0  0  0  0  0
    0.7744   -1.3117   -1.6617 O   0  0  0  0  0  0  0  0  0  0  0  0
   -0.6669   -3.0152   -0.8206 C   0  0  0  0  0  0  0  0  0  0  0  0
   -1.6733   -0.5660   -0.4691 H   0  0  0  0  0  0  0  0  0  0  0  0
   -0.2058   -1.6446    1.5559 H   0  0  0  0  0  0  0  0  0  0  0  0
    1.3373   -2.6093   -0.1907 H   0  0  0  0  0  0  0  0  0  0  0  0
    1.0629   -1.9684   -2.3136 H   0  0  0  0  0  0  0  0  0  0  0  0
   -1.5832   -2.4917   -1.1142 H   0  0  0  0  0  0  0  0  0  0  0  0
   -0.8912   -3.6750    0.0229 H   0  0  0  0  0  0  0  0  0  0  0  0
   -0.3758   -3.6335   -1.6770 H   0  0  0  0  0  0  0  0  0  0  0  0
    0.7128    1.0710    1.5512 N   0  0  0  0  0  0  0  0  0  0  0  0
    1.5948    2.1271    1.9895 C   0  0  2  0  0  0  0  0  0  0  0  0
    2.0523    2.8988    0.7587 C   0  0  0  0  0  0  0  0  0  0  0  0
    2.0433    2.4215   -0.3740 O   0  0  0  0  0  0  0  0  0  0  0  0
    2.7849    1.5717    2.7562 C   0  0  0  0  0  0  0  0  0  0  0  0
   -0.2898    1.1993    1.6514 H   0  0  0  0  0  0  0  0  0  0  0  0
    1.0034    2.7855    2.6351 H   0  0  0  0  0  0  0  0  0  0  0  0
    3.3894    0.9096    2.1255 H   0  0  0  0  0  0  0  0  0  0  0  0
    3.4376    2.3755    3.1123 H   0  0  0  0  0  0  0  0  0  0  0  0
    2.4531    0.9919    3.6243 H   0  0  0  0  0  0  0  0  0  0  0  0
    2.5122    4.1683    1.0799 N   0  0  0  0  0  0  0  0  0  0  0  0
    3.0124    5.0905    0.0873 C   0  0  0  0  0  0  0  0  0  0  0  0
    2.4653    4.4880    2.0429 H   0  0  0  0  0  0  0  0  0  0  0  0
    4.1028    4.9773   -0.0027 H   0  0  0  0  0  0  0  0  0  0  0  0
    2.5403    4.8763   -0.8829 H   0  0  0  0  0  0  0  0  0  0  0  0
    2.7747    6.1206    0.3913 H   0  0  0  0  0  0  0  0  0  0  0  0
  1  3  1  0  0  0  0
  1  7  1  0  0  0  0
  1  2  2  0  0  0  0
 32 33  1  0  0  0  0
 33 41  1  0  0  0  0
 33 34  2  0  0  0  0
  8  9  1  0  0  0  0
  9 17  1  0  0  0  0
  9 10  2  0  0  0  0
 18 19  1  0  0  0  0
 19 31  1  0  0  0  0
 19 20  2  0  0  0  0
 32 35  1  0  0  0  0
  8 11  1  0  0  0  0
 21 23  1  0  0  0  0
 41 42  1  0  0  0  0
 31 32  1  0  0  0  0
  7  8  1  0  0  0  0
 18 21  1  0  0  0  0
 17 18  1  0  0  0  0
 21 22  1  0  0  0  0
  3  4  1  0  0  0  0
  3  5  1  0  0  0  0
  3  6  1  0  0  0  0
 35 38  1  0  0  0  0
 35 39  1  0  0  0  0
 35 40  1  0  0  0  0
 11 14  1  0  0  0  0
 11 15  1  0  0  0  0
 11 16  1  0  0  0  0
 23 28  1  0  0  0  0
 23 29  1  0  0  0  0
 23 30  1  0  0  0  0
 42 44  1  0  0  0  0
 42 45  1  0  0  0  0
 42 46  1  0  0  0  0
 32 37  1  0  0  0  0
  8 13  1  0  0  0  0
 18 25  1  0  0  0  0
 21 26  1  0  0  0  0
 41 43  1  0  0  0  0
  7 12  1  0  0  0  0
 31 36  1  0  0  0  0
 17 24  1  0  0  0  0
 22 27  1  0  0  0  0
M  END
$$$$

  -OEChem-05262214473D

 46 45  0     1  0  0  0  0  0999 V2000
   -4.6700    2.7214    1.5150 C   0  0  0  0  0  0  0  0  0  0  0  0
   -5.4532    2.5715    0.5845 O   0  0  0  0  0  0  0  0  0  0  0  0
   -5.0996    3.4865    2.7226 C   0  0  0  0  0  0  0  0  0  0  0  0
   -4.8796    4.5629    2.6387 H   0  0  0  0  0  0  0  0  0  0  0  0
   -6.1861    3.4241    2.8954 H   0  0  0  0  0  0  0  0  0  0  0  0
   -4.6369    3.1693    3.6708 H   0  0  0  0  0  0  0  0  0  0  0  0
   -3.3731    2.2391    1.5790 N   0  0  0  0  0  0  0  0  0  0  0  0
   -2.7599    1.4751    0.5247 C   0  0  2  0  0  0  0  0  0  0  0  0
   -1.5143    0.8067    1.0915 C   0  0  0  0  0  0  0  0  0  0  0  0
   -0.9247    1.2213    2.0872 O   0  0  0  0  0  0  0  0  0  0  0  0
   -2.4106    2.3553   -0.6653 C   0  0  0  0  0  0  0  0  0  0  0  0
   -2.8254    2.4352    2.4150 H   0  0  0  0  0  0  0  0  0  0  0  0
   -3.4836    0.7082    0.2278 H   0  0  0  0  0  0  0  0  0  0  0  0
   -1.6866    3.1298   -0.3871 H   0  0  0  0  0  0  0  0  0  0  0  0
   -1.9704    1.7677   -1.4777 H   0  0  0  0  0  0  0  0  0  0  0  0
   -3.3030    2.8584   -1.0531 H   0  0  0  0  0  0  0  0  0  0  0  0
   -1.1107   -0.2839    0.3303 N   0  0  0  0  0  0  0  0  0  0  0  0
    0.0490   -1.0750    0.6539 C   0  0  2  0  0  0  0  0  0  0  0  0
    1.1817   -0.1124    0.9986 C   0  0  0  0  0  0  0  0  0  0  0  0
    2.3353   -0.2653    0.6020 O   0  0  0  0  0  0  0  0  0  0  0  0
    0.4481   -2.0352   -0.4761 C   0  0  2  0  0  0  0  0  0  0  0  0
    0.7744   -1.3117   -1.6617 O   0  0  0  0  0  0  0  0  0  0  0  0
   -0.6669   -3.0152   -0.8206 C   0  0  0  0  0  0  0  0  0  0  0  0
   -1.6733   -0.5660   -0.4691 H   0  0  0  0  0  0  0  0  0  0  0  0
   -0.2058   -1.6446    1.5559 H   0  0  0  0  0  0  0  0  0  0  0  0
    1.3373   -2.6093   -0.1907 H   0  0  0  0  0  0  0  0  0  0  0  0
    1.0629   -1.9684   -2.3136 H   0  0  0  0  0  0  0  0  0  0  0  0
   -1.5832   -2.4917   -1.1142 H   0  0  0  0  0  0  0  0  0  0  0  0
   -0.8912   -3.6750    0.0229 H   0  0  0  0  0  0  0  0  0  0  0  0
   -0.3758   -3.6335   -1.6770 H   0  0  0  0  0  0  0  0  0  0  0  0
    0.7631    0.9083    1.8403 N   0  0  0  0  0  0  0  0  0  0  0  0
    1.6607    1.9263    2.3335 C   0  0  2  0  0  0  0  0  0  0  0  0
    1.8704    2.9468    1.2225 C   0  0  0  0  0  0  0  0  0  0  0  0
    1.6905    2.6906    0.0338 O   0  0  0  0  0  0  0  0  0  0  0  0
    2.9858    1.3273    2.7785 C   0  0  0  0  0  0  0  0  0  0  0  0
   -0.2128    0.9406    2.1205 H   0  0  0  0  0  0  0  0  0  0  0  0
    1.1596    2.4063    3.1811 H   0  0  0  0  0  0  0  0  0  0  0  0
    3.5026    0.8419    1.9425 H   0  0  0  0  0  0  0  0  0  0  0  0
    3.6546    2.0965    3.1786 H   0  0  0  0  0  0  0  0  0  0  0  0
    2.8304    0.5722    3.5566 H   0  0  0  0  0  0  0  0  0  0  0  0
    2.3237    4.1642    1.7108 N   0  0  0  0  0  0  0  0  0  0  0  0
    2.6092    5.2907    0.8532 C   0  0  0  0  0  0  0  0  0  0  0  0
    2.4266    4.2935    2.7131 H   0  0  0  0  0  0  0  0  0  0  0  0
    3.6726    5.2778    0.5720 H   0  0  0  0  0  0  0  0  0  0  0  0
    1.9896    5.2274   -0.0535 H   0  0  0  0  0  0  0  0  0  0  0  0
    2.3828    6.2250    1.3877 H   0  0  0  0  0  0  0  0  0  0  0  0
  1  3  1  0  0  0  0
  1  7  1  0  0  0  0
  1  2  2  0  0  0  0
 32 33  1  0  0  0  0
 33 41  1  0  0  0  0
 33 34  2  0  0  0  0
  8  9  1  0  0  0  0
  9 17  1  0  0  0  0
  9 10  2  0  0  0  0
 18 19  1  0  0  0  0
 19 31  1  0  0  0  0
 19 20  2  0  0  0  0
 32 35  1  0  0  0  0
  8 11  1  0  0  0  0
 21 23  1  0  0  0  0
 41 42  1  0  0  0  0
 31 32  1  0  0  0  0
  7  8  1  0  0  0  0
 18 21  1  0  0  0  0
 17 18  1  0  0  0  0
 21 22  1  0  0  0  0
  3  4  1  0  0  0  0
  3  5  1  0  0  0  0
  3  6  1  0  0  0  0
 35 38  1  0  0  0  0
 35 39  1  0  0  0  0
 35 40  1  0  0  0  0
 11 14  1  0  0  0  0
 11 15  1  0  0  0  0
 11 16  1  0  0  0  0
 23 28  1  0  0  0  0
 23 29  1  0  0  0  0
 23 30  1  0  0  0  0
 42 44  1  0  0  0  0
 42 45  1  0  0  0  0
 42 46  1  0  0  0  0
 32 37  1  0  0  0  0
  8 13  1  0  0  0  0
 18 25  1  0  0  0  0
 21 26  1  0  0  0  0
 41 43  1  0  0  0  0
  7 12  1  0  0  0  0
 31 36  1  0  0  0  0
 17 24  1  0  0  0  0
 22 27  1  0  0  0  0
M  END
$$$$

  -OEChem-05262214473D

 46 45  0     1  0  0  0  0  0999 V2000
   -4.6700    2.7214    1.5150 C   0  0  0  0  0  0  0  0  0  0  0  0
   -5.4532    2.5715    0.5845 O   0  0  0  0  0  0  0  0  0  0  0  0
   -5.0996    3.4865    2.7226 C   0  0  0  0  0  0  0  0  0  0  0  0
   -4.8796    4.5629    2.6387 H   0  0  0  0  0  0  0  0  0  0  0  0
   -6.1861    3.4241    2.8954 H   0  0  0  0  0  0  0  0  0  0  0  0
   -4.6369    3.1693    3.6708 H   0  0  0  0  0  0  0  0  0  0  0  0
   -3.3731    2.2391    1.5790 N   0  0  0  0  0  0  0  0  0  0  0  0
   -2.7599    1.4751    0.5247 C   0  0  2  0  0  0  0  0  0  0  0  0
   -1.5143    0.8067    1.0915 C   0  0  0  0  0  0  0  0  0  0  0  0
   -0.9247    1.2213    2.0872 O   0  0  0  0  0  0  0  0  0  0  0  0
   -2.4106    2.3553   -0.6653 C   0  0  0  0  0  0  0  0  0  0  0  0
   -2.8254    2.4352    2.4150 H   0  0  0  0  0  0  0  0  0  0  0  0
   -3.4836    0.7082    0.2278 H   0  0  0  0  0  0  0  0  0  0  0  0
   -1.6866    3.1298   -0.3871 H   0  0  0  0  0  0  0  0  0  0  0  0
   -1.9704    1.7677   -1.4777 H   0  0  0  0  0  0  0  0  0  0  0  0
   -3.3030    2.8584   -1.0531 H   0  0  0  0  0  0  0  0  0  0  0  0
   -1.1107   -0.2839    0.3303 N   0  0  0  0  0  0  0  0  0  0  0  0
    0.0490   -1.0750    0.6539 C   0  0  2  0  0  0  0  0  0  0  0  0
    1.1817   -0.1124    0.9986 C   0  0  0  0  0  0  0  0  0  0  0  0
    2.2571   -0.1020    0.4030 O   0  0  0  0  0  0  0  0  0  0  0  0
    0.4481   -2.0352   -0.4761 C   0  0  2  0  0  0  0  0  0  0  0  0
    0.7744   -1.3117   -1.6617 O   0  0  0  0  0  0  0  0  0  0  0  0
   -0.6669   -3.0152   -0.8206 C   0  0  0  0  0  0  0  0  0  0  0  0
   -1.6733   -0.5660   -0.4691 H   0  0  0  0  0  0  0  0  0  0  0  0
   -0.2058   -1.6446    1.5559 H   0  0  0  0  0  0  0  0  0  0  0  0
    1.3373   -2.6093   -0.1907 H   0  0  0  0  0  0  0  0  0  0  0  0
    1.0629   -1.9684   -2.3136 H   0  0  0  0  0  0  0  0  0  0  0  0
   -1.5832   -2.4917   -1.1142 H   0  0  0  0  0  0  0  0  0  0  0  0
   -0.8912   -3.6750    0.0229 H   0  0  0  0  0  0  0  0  0  0  0  0
   -0.3758   -3.6335   -1.6770 H   0  0  0  0  0  0  0  0  0  0  0  0
    0.8684    0.6986    2.0801 N   0  0  0  0  0  0  0  0  0  0  0  0
    1.7923    1.6702    2.6164 C   0  0  2  0  0  0  0  0  0  0  0  0
    1.7677    2.8933    1.7093 C   0  0  0  0  0  0  0  0  0  0  0  0
    1.4005    2.8517    0.5369 O   0  0  0  0  0  0  0  0  0  0  0  0
    3.1978    1.0987    2.7203 C   0  0  0  0  0  0  0  0  0  0  0  0
   -0.0466    0.6052    2.5114 H   0  0  0  0  0  0  0  0  0  0  0  0
    1.4217    1.9442    3.6102 H   0  0  0  0  0  0  0  0  0  0  0  0
    3.5860    0.8183    1.7343 H   0  0  0  0  0  0  0  0  0  0  0  0
    3.8913    1.8269    3.1536 H   0  0  0  0  0  0  0  0  0  0  0  0
    3.2084    0.2018    3.3489 H   0  0  0  0  0  0  0  0  0  0  0  0
    2.2448    4.0281    2.3503 N   0  0  0  0  0  0  0  0  0  0  0  0
    2.3332    5.3133    1.6973 C   0  0  0  0  0  0  0  0  0  0  0  0
    2.5100    3.9747    3.3294 H   0  0  0  0  0  0  0  0  0  0  0  0
    3.3333    5.4324    1.2551 H   0  0  0  0  0  0  0  0  0  0  0  0
    1.5725    5.3750    0.9051 H   0  0  0  0  0  0  0  0  0  0  0  0
    2.1608    6.1115    2.4342 H   0  0  0  0  0  0  0  0  0  0  0  0
  1  3  1  0  0  0  0
  1  7  1  0  0  0  0
  1  2  2  0  0  0  0
 32 33  1  0  0  0  0
 33 41  1  0  0  0  0
 33 34  2  0  0  0  0
  8  9  1  0  0  0  0
  9 17  1  0  0  0  0
  9 10  2  0  0  0  0
 18 19  1  0  0  0  0
 19 31  1  0  0  0  0
 19 20  2  0  0  0  0
 32 35  1  0  0  0  0
  8 11  1  0  0  0  0
 21 23  1  0  0  0  0
 41 42  1  0  0  0  0
 31 32  1  0  0  0  0
  7  8  1  0  0  0  0
 18 21  1  0  0  0  0
 17 18  1  0  0  0  0
 21 22  1  0  0  0  0
  3  4  1  0  0  0  0
  3  5  1  0  0  0  0
  3  6  1  0  0  0  0
 35 38  1  0  0  0  0
 35 39  1  0  0  0  0
 35 40  1  0  0  0  0
 11 14  1  0  0  0  0
 11 15  1  0  0  0  0
 11 16  1  0  0  0  0
 23 28  1  0  0  0  0
 23 29  1  0  0  0  0
 23 30  1  0  0  0  0
 42 44  1  0  0  0  0
 42 45  1  0  0  0  0
 42 46  1  0  0  0  0
 32 37  1  0  0  0  0
  8 13  1  0  0  0  0
 18 25  1  0  0  0  0
 21 26  1  0  0  0  0
 41 43  1  0  0  0  0
  7 12  1  0  0  0  0
 31 36  1  0  0  0  0
 17 24  1  0  0  0  0
 22 27  1  0  0  0  0
M  END
$$$$

  -OEChem-05262214473D

 46 45  0     1  0  0  0  0  0999 V2000
   -4.6700    2.7214    1.5150 C   0  0  0  0  0  0  0  0  0  0  0  0
   -5.4532    2.5715    0.5845 O   0  0  0  0  0  0  0  0  0  0  0  0
   -5.0996    3.4865    2.7226 C   0  0  0  0  0  0  0  0  0  0  0  0
   -4.8796    4.5629    2.6387 H   0  0  0  0  0  0  0  0  0  0  0  0
   -6.1861    3.4241    2.8954 H   0  0  0  0  0  0  0  0  0  0  0  0
   -4.6369    3.1693    3.6708 H   0  0  0  0  0  0  0  0  0  0  0  0
   -3.3731    2.2391    1.5790 N   0  0  0  0  0  0  0  0  0  0  0  0
   -2.7599    1.4751    0.5247 C   0  0  2  0  0  0  0  0  0  0  0  0
   -1.5143    0.8067    1.0915 C   0  0  0  0  0  0  0  0  0  0  0  0
   -0.9247    1.2213    2.0872 O   0  0  0  0  0  0  0  0  0  0  0  0
   -2.4106    2.3553   -0.6653 C   0  0  0  0  0  0  0  0  0  0  0  0
   -2.8254    2.4352    2.4150 H   0  0  0  0  0  0  0  0  0  0  0  0
   -3.4836    0.7082    0.2278 H   0  0  0  0  0  0  0  0  0  0  0  0
   -1.6866    3.1298   -0.3871 H   0  0  0  0  0  0  0  0  0  0  0  0
   -1.9704    1.7677   -1.4777 H   0  0  0  0  0  0  0  0  0  0  0  0
   -3.3030    2.8584   -1.0531 H   0  0  0  0  0  0  0  0  0  0  0  0
   -1.1107   -0.2839    0.3303 N   0  0  0  0  0  0  0  0  0  0  0  0
    0.0490   -1.0750    0.6539 C   0  0  2  0  0  0  0  0  0  0  0  0
    1.1817   -0.1124    0.9986 C   0  0  0  0  0  0  0  0  0  0  0  0
    2.1396    0.0893    0.2548 O   0  0  0  0  0  0  0  0  0  0  0  0
    0.4481   -2.0352   -0.4761 C   0  0  2  0  0  0  0  0  0  0  0  0
    0.7744   -1.3117   -1.6617 O   0  0  0  0  0  0  0  0  0  0  0  0
   -0.6669   -3.0152   -0.8206 C   0  0  0  0  0  0  0  0  0  0  0  0
   -1.6733   -0.5660   -0.4691 H   0  0  0  0  0  0  0  0  0  0  0  0
   -0.2058   -1.6446    1.5559 H   0  0  0  0  0  0  0  0  0  0  0  0
    1.3373   -2.6093   -0.1907 H   0  0  0  0  0  0  0  0  0  0  0  0
    1.0629   -1.9684   -2.3136 H   0  0  0  0  0  0  0  0  0  0  0  0
   -1.5832   -2.4917   -1.1142 H   0  0  0  0  0  0  0  0  0  0  0  0
   -0.8912   -3.6750    0.0229 H   0  0  0  0  0  0  0  0  0  0  0  0
   -0.3758   -3.6335   -1.6770 H   0  0  0  0  0  0  0  0  0  0  0  0
    1.0215    0.4561    2.2543 N   0  0  0  0  0  0  0  0  0  0  0  0
    1.9806    1.3761    2.8190 C   0  0  2  0  0  0  0  0  0  0  0  0
    1.7511    2.7421    2.1861 C   0  0  0  0  0  0  0  0  0  0  0  0
    1.1932    2.8936    1.1013 O   0  0  0  0  0  0  0  0  0  0  0  0
    3.4064    0.9014    2.5855 C   0  0  0  0  0  0  0  0  0  0  0  0
    0.1973    0.2157    2.7973 H   0  0  0  0  0  0  0  0  0  0  0  0
    1.7719    1.4308    3.8930 H   0  0  0  0  0  0  0  0  0  0  0  0
    3.6340    0.8403    1.5150 H   0  0  0  0  0  0  0  0  0  0  0  0
    4.1315    1.5852    3.0390 H   0  0  0  0  0  0  0  0  0  0  0  0
    3.5612   -0.0940    3.0155 H   0  0  0  0  0  0  0  0  0  0  0  0
    2.2810    3.7691    2.9547 N   0  0  0  0  0  0  0  0  0  0  0  0
    2.2030    5.1568    2.5620 C   0  0  0  0  0  0  0  0  0  0  0  0
    2.7098    3.5532    3.8498 H   0  0  0  0  0  0  0  0  0  0  0  0
    3.1081    5.4308    2.0000 H   0  0  0  0  0  0  0  0  0  0  0  0
    1.3175    5.3090    1.9275 H   0  0  0  0  0  0  0  0  0  0  0  0
    2.1239    5.7878    3.4595 H   0  0  0  0  0  0  0  0  0  0  0  0
  1  3  1  0  0  0  0
  1  7  1  0  0  0  0
  1  2  2  0  0  0  0
 32 33  1  0  0  0  0
 33 41  1  0  0  0  0
 33 34  2  0  0  0  0
  8  9  1  0  0  0  0
  9 17  1  0  0  0  0
  9 10  2  0  0  0  0
 18 19  1  0  0  0  0
 19 31  1  0  0  0  0
 19 20  2  0  0  0  0
 32 35  1  0  0  0  0
  8 11  1  0  0  0  0
 21 23  1  0  0  0  0
 41 42  1  0  0  0  0
 31 32  1  0  0  0  0
  7  8  1  0  0  0  0
 18 21  1  0  0  0  0
 17 18  1  0  0  0  0
 21 22  1  0  0  0  0
  3  4  1  0  0  0  0
  3  5  1  0  0  0  0
  3  6  1  0  0  0  0
 35 38  1  0  0  0  0
 35 39  1  0  0  0  0
 35 40  1  0  0  0  0
 11 14  1  0  0  0  0
 11 15  1  0  0  0  0
 11 16  1  0  0  0  0
 23 28  1  0  0  0  0
 23 29  1  0  0  0  0
 23 30  1  0  0  0  0
 42 44  1  0  0  0  0
 42 45  1  0  0  0  0
 42 46  1  0  0  0  0
 32 37  1  0  0  0  0
  8 13  1  0  0  0  0
 18 25  1  0  0  0  0
 21 26  1  0  0  0  0
 41 43  1  0  0  0  0
  7 12  1  0  0  0  0
 31 36  1  0  0  0  0
 17 24  1  0  0  0  0
 22 27  1  0  0  0  0
M  END
$$$$

  -OEChem-05262214473D

 46 45  0     1  0  0  0  0  0999 V2000
   -4.6700    2.7214    1.5150 C   0  0  0  0  0  0  0  0  0  0  0  0
   -5.4532    2.5715    0.5845 O   0  0  0  0  0  0  0  0  0  0  0  0
   -5.0996    3.4865    2.7226 C   0  0  0  0  0  0  0  0  0  0  0  0
   -4.8796    4.5629    2.6387 H   0  0  0  0  0  0  0  0  0  0  0  0
   -6.1861    3.4241    2.8954 H   0  0  0  0  0  0  0  0  0  0  0  0
   -4.6369    3.1693    3.6708 H   0  0  0  0  0  0  0  0  0  0  0  0
   -3.3731    2.2391    1.5790 N   0  0  0  0  0  0  0  0  0  0  0  0
   -2.7599    1.4751    0.5247 C   0  0  2  0  0  0  0  0  0  0  0  0
   -1.5143    0.8067    1.0915 C   0  0  0  0  0  0  0  0  0  0  0  0
   -0.9247    1.2213    2.0872 O   0  0  0  0  0  0  0  0  0  0  0  0
   -2.4106    2.3553   -0.6653 C   0  0  0  0  0  0  0  0  0  0  0  0
   -2.8254    2.4352    2.4150 H   0  0  0  0  0  0  0  0  0  0  0  0
   -3.4836    0.7082    0.2278 H   0  0  0  0  0  0  0  0  0  0  0  0
   -1.6866    3.1298   -0.3871 H   0  0  0  0  0  0  0  0  0  0  0  0
   -1.9704    1.7677   -1.4777 H   0  0  0  0  0  0  0  0  0  0  0  0
   -3.3030    2.8584   -1.0531 H   0  0  0  0  0  0  0  0  0  0  0  0
   -1.1107   -0.2839    0.3303 N   0  0  0  0  0  0  0  0  0  0  0  0
    0.0490   -1.0750    0.6539 C   0  0  2  0  0  0  0  0  0  0  0  0
    1.1817   -0.1124    0.9986 C   0  0  0  0  0  0  0  0  0  0  0  0
    1.9907    0.2957    0.1677 O   0  0  0  0  0  0  0  0  0  0  0  0
    0.4481   -2.0352   -0.4761 C   0  0  2  0  0  0  0  0  0  0  0  0
    0.7744   -1.3117   -1.6617 O   0  0  0  0  0  0  0  0  0  0  0  0
   -0.6669   -3.0152   -0.8206 C   0  0  0  0  0  0  0  0  0  0  0  0
   -1.6733   -0.5660   -0.4691 H   0  0  0  0  0  0  0  0  0  0  0  0
   -0.2058   -1.6446    1.5559 H   0  0  0  0  0  0  0  0  0  0  0  0
    1.3373   -2.6093   -0.1907 H   0  0  0  0  0  0  0  0  0  0  0  0
    1.0629   -1.9684   -2.3136 H   0  0  0  0  0  0  0  0  0  0  0  0
   -1.5832   -2.4917   -1.1142 H   0  0  0  0  0  0  0  0  0  0  0  0
   -0.8912   -3.6750    0.0229 H   0  0  0  0  0  0  0  0  0  0  0  0
   -0.3758   -3.6335   -1.6770 H   0  0  0  0  0  0  0  0  0  0  0  0
    1.2119    0.1973    2.3509 N   0  0  0  0  0  0  0  0  0  0  0  0
    2.2128    1.0641    2.9275 C   0  0  2  0  0  0  0  0  0  0  0  0
    1.8218    2.5036    2.6203 C   0  0  0  0  0  0  0  0  0  0  0  0
    1.0826    2.8136    1.6883 O   0  0  0  0  0  0  0  0  0  0  0  0
    3.5975    0.7490    2.3834 C   0  0  0  0  0  0  0  0  0  0  0  0
    0.5024   -0.2011    2.9589 H   0  0  0  0  0  0  0  0  0  0  0  0
    2.1864    0.9010    4.0104 H   0  0  0  0  0  0  0  0  0  0  0  0
    3.6433    0.9066    1.2996 H   0  0  0  0  0  0  0  0  0  0  0  0
    4.3591    1.3878    2.8427 H   0  0  0  0  0  0  0  0  0  0  0  0
    3.8648   -0.2950    2.5790 H   0  0  0  0  0  0  0  0  0  0  0  0
    2.4297    3.4050    3.4828 N   0  0  0  0  0  0  0  0  0  0  0  0
    2.2277    4.8319    3.3885 C   0  0  0  0  0  0  0  0  0  0  0  0
    3.0125    3.0578    4.2389 H   0  0  0  0  0  0  0  0  0  0  0  0
    3.0123    5.2729    2.7560 H   0  0  0  0  0  0  0  0  0  0  0  0
    1.2420    5.0340    2.9440 H   0  0  0  0  0  0  0  0  0  0  0  0
    2.2746    5.2760    4.3937 H   0  0  0  0  0  0  0  0  0  0  0  0
  1  3  1  0  0  0  0
  1  7  1  0  0  0  0
  1  2  2  0  0  0  0
 32 33  1  0  0  0  0
 33 41  1  0  0  0  0
 33 34  2  0  0  0  0
  8  9  1  0  0  0  0
  9 17  1  0  0  0  0
  9 10  2  0  0  0  0
 18 19  1  0  0  0  0
 19 31  1  0  0  0  0
 19 20  2  0  0  0  0
 32 35  1  0  0  0  0
  8 11  1  0  0  0  0
 21 23  1  0  0  0  0
 41 42  1  0  0  0  0
 31 32  1  0  0  0  0
  7  8  1  0  0  0  0
 18 21  1  0  0  0  0
 17 18  1  0  0  0  0
 21 22  1  0  0  0  0
  3  4  1  0  0  0  0
  3  5  1  0  0  0  0
  3  6  1  0  0  0  0
 35 38  1  0  0  0  0
 35 39  1  0  0  0  0
 35 40  1  0  0  0  0
 11 14  1  0  0  0  0
 11 15  1  0  0  0  0
 11 16  1  0  0  0  0
 23 28  1  0  0  0  0
 23 29  1  0  0  0  0
 23 30  1  0  0  0  0
 42 44  1  0  0  0  0
 42 45  1  0  0  0  0
 42 46  1  0  0  0  0
 32 37  1  0  0  0  0
  8 13  1  0  0  0  0
 18 25  1  0  0  0  0
 21 26  1  0  0  0  0
 41 43  1  0  0  0  0
  7 12  1  0  0  0  0
 31 36  1  0  0  0  0
 17 24  1  0  0  0  0
 22 27  1  0  0  0  0
M  END
$$$$

  -OEChem-05262214473D

 46 45  0     1  0  0  0  0  0999 V2000
   -4.6700    2.7214    1.5150 C   0  0  0  0  0  0  0  0  0  0  0  0
   -5.4532    2.5715    0.5845 O   0  0  0  0  0  0  0  0  0  0  0  0
   -5.0996    3.4865    2.7226 C   0  0  0  0  0  0  0  0  0  0  0  0
   -4.8796    4.5629    2.6387 H   0  0  0  0  0  0  0  0  0  0  0  0
   -6.1861    3.4241    2.8954 H   0  0  0  0  0  0  0  0  0  0  0  0
   -4.6369    3.1693    3.6708 H   0  0  0  0  0  0  0  0  0  0  0  0
   -3.3731    2.2391    1.5790 N   0  0  0  0  0  0  0  0  0  0  0  0
   -2.7599    1.4751    0.5247 C   0  0  2  0  0  0  0  0  0  0  0  0
   -1.5143    0.8067    1.0915 C   0  0  0  0  0  0  0  0  0  0  0  0
   -0.9247    1.2213    2.0872 O   0  0  0  0  0  0  0  0  0  0  0  0
   -2.4106    2.3553   -0.6653 C   0  0  0  0  0  0  0  0  0  0  0  0
   -2.8254    2.4352    2.4150 H   0  0  0  0  0  0  0  0  0  0  0  0
   -3.4836    0.7082    0.2278 H   0  0  0  0  0  0  0  0  0  0  0  0
   -1.6866    3.1298   -0.3871 H   0  0  0  0  0  0  0  0  0  0  0  0
   -1.9704    1.7677   -1.4777 H   0  0  0  0  0  0  0  0  0  0  0  0
   -3.3030    2.8584   -1.0531 H   0  0  0  0  0  0  0  0  0  0  0  0
   -1.1107   -0.2839    0.3303 N   0  0  0  0  0  0  0  0  0  0  0  0
    0.0490   -1.0750    0.6539 C   0  0  2  0  0  0  0  0  0  0  0  0
    1.1817   -0.1124    0.9986 C   0  0  0  0  0  0  0  0  0  0  0  0
    1.8206    0.5031    0.1475 O   0  0  0  0  0  0  0  0  0  0  0  0
    0.4481   -2.0352   -0.4761 C   0  0  2  0  0  0  0  0  0  0  0  0
    0.7744   -1.3117   -1.6617 O   0  0  0  0  0  0  0  0  0  0  0  0
   -0.6669   -3.0152   -0.8206 C   0  0  0  0  0  0  0  0  0  0  0  0
   -1.6733   -0.5660   -0.4691 H   0  0  0  0  0  0  0  0  0  0  0  0
   -0.2058   -1.6446    1.5559 H   0  0  0  0  0  0  0  0  0  0  0  0
    1.3373   -2.6093   -0.1907 H   0  0  0  0  0  0  0  0  0  0  0  0
    1.0629   -1.9684   -2.3136 H   0  0  0  0  0  0  0  0  0  0  0  0
   -1.5832   -2.4917   -1.1142 H   0  0  0  0  0  0  0  0  0  0  0  0
   -0.8912   -3.6750    0.0229 H   0  0  0  0  0  0  0  0  0  0  0  0
   -0.3758   -3.6335   -1.6770 H   0  0  0  0  0  0  0  0  0  0  0  0
    1.4268   -0.0600    2.3634 N   0  0  0  0  0  0  0  0  0  0  0  0
    2.4730    0.7554    2.9344 C   0  0  2  0  0  0  0  0  0  0  0  0
    1.9748    2.1938    2.9823 C   0  0  0  0  0  0  0  0  0  0  0  0
    1.0763    2.6170    2.2579 O   0  0  0  0  0  0  0  0  0  0  0  0
    3.7579    0.6518    2.1276 C   0  0  0  0  0  0  0  0  0  0  0  0
    0.8479   -0.6169    2.9851 H   0  0  0  0  0  0  0  0  0  0  0  0
    2.6369    0.3910    3.9544 H   0  0  0  0  0  0  0  0  0  0  0  0
    3.6132    1.0125    1.1027 H   0  0  0  0  0  0  0  0  0  0  0  0
    4.5583    1.2481    2.5779 H   0  0  0  0  0  0  0  0  0  0  0  0
    4.0986   -0.3876    2.0692 H   0  0  0  0  0  0  0  0  0  0  0  0
    2.6809    2.9605    3.8987 N   0  0  0  0  0  0  0  0  0  0  0  0
    2.4054    4.3608    4.1203 C   0  0  0  0  0  0  0  0  0  0  0  0
    3.3973    2.5222    4.4701 H   0  0  0  0  0  0  0  0  0  0  0  0
    3.0523    4.9695    3.4715 H   0  0  0  0  0  0  0  0  0  0  0  0
    1.3510    4.5685    3.8853 H   0  0  0  0  0  0  0  0  0  0  0  0
    2.6026    4.6110    5.1732 H   0  0  0  0  0  0  0  0  0  0  0  0
  1  3  1  0  0  0  0
  1  7  1  0  0  0  0
  1  2  2  0  0  0  0
 32 33  1  0  0  0  0
 33 41  1  0  0  0  0
 33 34  2  0  0  0  0
  8  9  1  0  0  0  0
  9 17  1  0  0  0  0
  9 10  2  0  0  0  0
 18 19  1  0  0  0  0
 19 31  1  0  0  0  0
 19 20  2  0  0  0  0
 32 35  1  0  0  0  0
  8 11  1  0  0  0  0
 21 23  1  0  0  0  0
 41 42  1  0  0  0  0
 31 32  1  0  0  0  0
  7  8  1  0  0  0  0
 18 21  1  0  0  0  0
 17 18  1  0  0  0  0
 21 22  1  0  0  0  0
  3  4  1  0  0  0  0
  3  5  1  0  0  0  0
  3  6  1  0  0  0  0
 35 38  1  0  0  0  0
 35 39  1  0  0  0  0
 35 40  1  0  0  0  0
 11 14  1  0  0  0  0
 11 15  1  0  0  0  0
 11 16  1  0  0  0  0
 23 28  1  0  0  0  0
 23 29  1  0  0  0  0
 23 30  1  0  0  0  0
 42 44  1  0  0  0  0
 42 45  1  0  0  0  0
 42 46  1  0  0  0  0
 32 37  1  0  0  0  0
  8 13  1  0  0  0  0
 18 25  1  0  0  0  0
 21 26  1  0  0  0  0
 41 43  1  0  0  0  0
  7 12  1  0  0  0  0
 31 36  1  0  0  0  0
 17 24  1  0  0  0  0
 22 27  1  0  0  0  0
M  END
$$$$

  -OEChem-05262214473D

 46 45  0     1  0  0  0  0  0999 V2000
   -4.6700    2.7214    1.5150 C   0  0  0  0  0  0  0  0  0  0  0  0
   -5.4532    2.5715    0.5845 O   0  0  0  0  0  0  0  0  0  0  0  0
   -5.0996    3.4865    2.7226 C   0  0  0  0  0  0  0  0  0  0  0  0
   -4.8796    4.5629    2.6387 H   0  0  0  0  0  0  0  0  0  0  0  0
   -6.1861    3.4241    2.8954 H   0  0  0  0  0  0  0  0  0  0  0  0
   -4.6369    3.1693    3.6708 H   0  0  0  0  0  0  0  0  0  0  0  0
   -3.3731    2.2391    1.5790 N   0  0  0  0  0  0  0  0  0  0  0  0
   -2.7599    1.4751    0.5247 C   0  0  2  0  0  0  0  0  0  0  0  0
   -1.5143    0.8067    1.0915 C   0  0  0  0  0  0  0  0  0  0  0  0
   -0.9247    1.2213    2.0872 O   0  0  0  0  0  0  0  0  0  0  0  0
   -2.4106    2.3553   -0.6653 C   0  0  0  0  0  0  0  0  0  0  0  0
   -2.8254    2.4352    2.4150 H   0  0  0  0  0  0  0  0  0  0  0  0
   -3.4836    0.7082    0.2278 H   0  0  0  0  0  0  0  0  0  0  0  0
   -1.6866    3.1298   -0.3871 H   0  0  0  0  0  0  0  0  0  0  0  0
   -1.9704    1.7677   -1.4777 H   0  0  0  0  0  0  0  0  0  0  0  0
   -3.3030    2.8584   -1.0531 H   0  0  0  0  0  0  0  0  0  0  0  0
   -1.1107   -0.2839    0.3303 N   0  0  0  0  0  0  0  0  0  0  0  0
    0.0490   -1.0750    0.6539 C   0  0  2  0  0  0  0  0  0  0  0  0
    1.1817   -0.1124    0.9986 C   0  0  0  0  0  0  0  0  0  0  0  0
    1.6408    0.6974    0.1956 O   0  0  0  0  0  0  0  0  0  0  0  0
    0.4481   -2.0352   -0.4761 C   0  0  2  0  0  0  0  0  0  0  0  0
    0.7744   -1.3117   -1.6617 O   0  0  0  0  0  0  0  0  0  0  0  0
   -0.6669   -3.0152   -0.8206 C   0  0  0  0  0  0  0  0  0  0  0  0
   -1.6733   -0.5660   -0.4691 H   0  0  0  0  0  0  0  0  0  0  0  0
   -0.2058   -1.6446    1.5559 H   0  0  0  0  0  0  0  0  0  0  0  0
    1.3373   -2.6093   -0.1907 H   0  0  0  0  0  0  0  0  0  0  0  0
    1.0629   -1.9684   -2.3136 H   0  0  0  0  0  0  0  0  0  0  0  0
   -1.5832   -2.4917   -1.1142 H   0  0  0  0  0  0  0  0  0  0  0  0
   -0.8912   -3.6750    0.0229 H   0  0  0  0  0  0  0  0  0  0  0  0
   -0.3758   -3.6335   -1.6770 H   0  0  0  0  0  0  0  0  0  0  0  0
    1.6515   -0.2984    2.2910 N   0  0  0  0  0  0  0  0  0  0  0  0
    2.7435    0.4712    2.8393 C   0  0  2  0  0  0  0  0  0  0  0  0
    2.1999    1.8341    3.2475 C   0  0  0  0  0  0  0  0  0  0  0  0
    1.1747    2.3173    2.7715 O   0  0  0  0  0  0  0  0  0  0  0  0
    3.8768    0.6164    1.8357 C   0  0  0  0  0  0  0  0  0  0  0  0
    1.2101   -1.0035    2.8741 H   0  0  0  0  0  0  0  0  0  0  0  0
    3.0928   -0.0646    3.7287 H   0  0  0  0  0  0  0  0  0  0  0  0
    3.5458    1.1508    0.9378 H   0  0  0  0  0  0  0  0  0  0  0  0
    4.7157    1.1757    2.2628 H   0  0  0  0  0  0  0  0  0  0  0  0
    4.2466   -0.3654    1.5208 H   0  0  0  0  0  0  0  0  0  0  0  0
    3.0175    2.4659    4.1740 N   0  0  0  0  0  0  0  0  0  0  0  0
    2.7241    3.7755    4.7077 C   0  0  0  0  0  0  0  0  0  0  0  0
    3.8381    1.9829    4.5277 H   0  0  0  0  0  0  0  0  0  0  0  0
    3.2256    4.5413    4.0979 H   0  0  0  0  0  0  0  0  0  0  0  0
    1.6373    3.9445    4.6873 H   0  0  0  0  0  0  0  0  0  0  0  0
    3.0855    3.8381    5.7447 H   0  0  0  0  0  0  0  0  0  0  0  0
  1  3  1  0  0  0  0
  1  7  1  0  0  0  0
  1  2  2  0  0  0  0
 32 33  1  0  0  0  0
 33 41  1  0  0  0  0
 33 34  2  0  0  0  0
  8  9  1  0  0  0  0
  9 17  1  0  0  0  0
  9 10  2  0  0  0  0
 18 19  1  0  0  0  0
 19 31  1  0  0  0  0
 19 20  2  0  0  0  0
 32 35  1  0  0  0  0
  8 11  1  0  0  0  0
 21 23  1  0  0  0  0
 41 42  1  0  0  0  0
 31 32  1  0  0  0  0
  7  8  1  0  0  0  0
 18 21  1  0  0  0  0
 17 18  1  0  0  0  0
 21 22  1  0  0  0  0
  3  4  1  0  0  0  0
  3  5  1  0  0  0  0
  3  6  1  0  0  0  0
 35 38  1  0  0  0  0
 35 39  1  0  0  0  0
 35 40  1  0  0  0  0
 11 14  1  0  0  0  0
 11 15  1  0  0  0  0
 11 16  1  0  0  0  0
 23 28  1  0  0  0  0
 23 29  1  0  0  0  0
 23 30  1  0  0  0  0
 42 44  1  0  0  0  0
 42 45  1  0  0  0  0
 42 46  1  0  0  0  0
 32 37  1  0  0  0  0
  8 13  1  0  0  0  0
 18 25  1  0  0  0  0
 21 26  1  0  0  0  0
 41 43  1  0  0  0  0
  7 12  1  0  0  0  0
 31 36  1  0  0  0  0
 17 24  1  0  0  0  0
 22 27  1  0  0  0  0
M  END
$$$$

  -OEChem-05262214473D

 46 45  0     1  0  0  0  0  0999 V2000
   -4.6700    2.7214    1.5150 C   0  0  0  0  0  0  0  0  0  0  0  0
   -5.4532    2.5715    0.5845 O   0  0  0  0  0  0  0  0  0  0  0  0
   -5.0996    3.4865    2.7226 C   0  0  0  0  0  0  0  0  0  0  0  0
   -4.8796    4.5629    2.6387 H   0  0  0  0  0  0  0  0  0  0  0  0
   -6.1861    3.4241    2.8954 H   0  0  0  0  0  0  0  0  0  0  0  0
   -4.6369    3.1693    3.6708 H   0  0  0  0  0  0  0  0  0  0  0  0
   -3.3731    2.2391    1.5790 N   0  0  0  0  0  0  0  0  0  0  0  0
   -2.7599    1.4751    0.5247 C   0  0  2  0  0  0  0  0  0  0  0  0
   -1.5143    0.8067    1.0915 C   0  0  0  0  0  0  0  0  0  0  0  0
   -0.9247    1.2213    2.0872 O   0  0  0  0  0  0  0  0  0  0  0  0
   -2.4106    2.3553   -0.6653 C   0  0  0  0  0  0  0  0  0  0  0  0
   -2.8254    2.4352    2.4150 H   0  0  0  0  0  0  0  0  0  0  0  0
   -3.4836    0.7082    0.2278 H   0  0  0  0  0  0  0  0  0  0  0  0
   -1.6866    3.1298   -0.3871 H   0  0  0  0  0  0  0  0  0  0  0  0
   -1.9704    1.7677   -1.4777 H   0  0  0  0  0  0  0  0  0  0  0  0
   -3.3030    2.8584   -1.0531 H   0  0  0  0  0  0  0  0  0  0  0  0
   -1.1107   -0.2839    0.3303 N   0  0  0  0  0  0  0  0  0  0  0  0
    0.0490   -1.0750    0.6539 C   0  0  2  0  0  0  0  0  0  0  0  0
    1.1817   -0.1124    0.9986 C   0  0  0  0  0  0  0  0  0  0  0  0
    1.4637    0.8653    0.3088 O   0  0  0  0  0  0  0  0  0  0  0  0
    0.4481   -2.0352   -0.4761 C   0  0  2  0  0  0  0  0  0  0  0  0
    0.7744   -1.3117   -1.6617 O   0  0  0  0  0  0  0  0  0  0  0  0
   -0.6669   -3.0152   -0.8206 C   0  0  0  0  0  0  0  0  0  0  0  0
   -1.6733   -0.5660   -0.4691 H   0  0  0  0  0  0  0  0  0  0  0  0
   -0.2058   -1.6446    1.5559 H   0  0  0  0  0  0  0  0  0  0  0  0
    1.3373   -2.6093   -0.1907 H   0  0  0  0  0  0  0  0  0  0  0  0
    1.0629   -1.9684   -2.3136 H   0  0  0  0  0  0  0  0  0  0  0  0
   -1.5832   -2.4917   -1.1142 H   0  0  0  0  0  0  0  0  0  0  0  0
   -0.8912   -3.6750    0.0229 H   0  0  0  0  0  0  0  0  0  0  0  0
   -0.3758   -3.6335   -1.6770 H   0  0  0  0  0  0  0  0  0  0  0  0
    1.8706   -0.5017    2.1385 N   0  0  0  0  0  0  0  0  0  0  0  0
    3.0058    0.2307    2.6487 C   0  0  2  0  0  0  0  0  0  0  0  0
    2.4816    1.4487    3.3977 C   0  0  0  0  0  0  0  0  0  0  0  0
    1.3712    1.9349    3.1938 O   0  0  0  0  0  0  0  0  0  0  0  0
    3.9461    0.6452    1.5276 C   0  0  0  0  0  0  0  0  0  0  0  0
    1.5645   -1.3343    2.6334 H   0  0  0  0  0  0  0  0  0  0  0  0
    3.5229   -0.4346    3.3487 H   0  0  0  0  0  0  0  0  0  0  0  0
    3.4457    1.3122    0.8161 H   0  0  0  0  0  0  0  0  0  0  0  0
    4.8206    1.1755    1.9189 H   0  0  0  0  0  0  0  0  0  0  0  0
    4.2987   -0.2299    0.9711 H   0  0  0  0  0  0  0  0  0  0  0  0
    3.4164    1.9549    4.2900 N   0  0  0  0  0  0  0  0  0  0  0  0
    3.1620    3.1159    5.1106 C   0  0  0  0  0  0  0  0  0  0  0  0
    4.3048    1.4767    4.4078 H   0  0  0  0  0  0  0  0  0  0  0  0
    3.5203    4.0176    4.5923 H   0  0  0  0  0  0  0  0  0  0  0  0
    2.0813    3.2044    5.2954 H   0  0  0  0  0  0  0  0  0  0  0  0
    3.6905    3.0099    6.0695 H   0  0  0  0  0  0  0  0  0  0  0  0
  1  3  1  0  0  0  0
  1  7  1  0  0  0  0
  1  2  2  0  0  0  0
 32 33  1  0  0  0  0
 33 41  1  0  0  0  0
 33 34  2  0  0  0  0
  8  9  1  0  0  0  0
  9 17  1  0  0  0  0
  9 10  2  0  0  0  0
 18 19  1  0  0  0  0
 19 31  1  0  0  0  0
 19 20  2  0  0  0  0
 32 35  1  0  0  0  0
  8 11  1  0  0  0  0
 21 23  1  0  0  0  0
 41 42  1  0  0  0  0
 31 32  1  0  0  0  0
  7  8  1  0  0  0  0
 18 21  1  0  0  0  0
 17 18  1  0  0  0  0
 21 22  1  0  0  0  0
  3  4  1  0  0  0  0
  3  5  1  0  0  0  0
  3  6  1  0  0  0  0
 35 38  1  0  0  0  0
 35 39  1  0  0  0  0
 35 40  1  0  0  0  0
 11 14  1  0  0  0  0
 11 15  1  0  0  0  0
 11 16  1  0  0  0  0
 23 28  1  0  0  0  0
 23 29  1  0  0  0  0
 23 30  1  0  0  0  0
 42 44  1  0  0  0  0
 42 45  1  0  0  0  0
 42 46  1  0  0  0  0
 32 37  1  0  0  0  0
  8 13  1  0  0  0  0
 18 25  1  0  0  0  0
 21 26  1  0  0  0  0
 41 43  1  0  0  0  0
  7 12  1  0  0  0  0
 31 36  1  0  0  0  0
 17 24  1  0  0  0  0
 22 27  1  0  0  0  0
M  END
$$$$

  -OEChem-05262214473D

 46 45  0     1  0  0  0  0  0999 V2000
   -4.6700    2.7214    1.5150 C   0  0  0  0  0  0  0  0  0  0  0  0
   -5.4532    2.5715    0.5845 O   0  0  0  0  0  0  0  0  0  0  0  0
   -5.0996    3.4865    2.7226 C   0  0  0  0  0  0  0  0  0  0  0  0
   -4.8796    4.5629    2.6387 H   0  0  0  0  0  0  0  0  0  0  0  0
   -6.1861    3.4241    2.8954 H   0  0  0  0  0  0  0  0  0  0  0  0
   -4.6369    3.1693    3.6708 H   0  0  0  0  0  0  0  0  0  0  0  0
   -3.3731    2.2391    1.5790 N   0  0  0  0  0  0  0  0  0  0  0  0
   -2.7599    1.4751    0.5247 C   0  0  2  0  0  0  0  0  0  0  0  0
   -1.5143    0.8067    1.0915 C   0  0  0  0  0  0  0  0  0  0  0  0
   -0.9247    1.2213    2.0872 O   0  0  0  0  0  0  0  0  0  0  0  0
   -2.4106    2.3553   -0.6653 C   0  0  0  0  0  0  0  0  0  0  0  0
   -2.8254    2.4352    2.4150 H   0  0  0  0  0  0  0  0  0  0  0  0
   -3.4836    0.7082    0.2278 H   0  0  0  0  0  0  0  0  0  0  0  0
   -1.6866    3.1298   -0.3871 H   0  0  0  0  0  0  0  0  0  0  0  0
   -1.9704    1.7677   -1.4777 H   0  0  0  0  0  0  0  0  0  0  0  0
   -3.3030    2.8584   -1.0531 H   0  0  0  0  0  0  0  0  0  0  0  0
   -1.1107   -0.2839    0.3303 N   0  0  0  0  0  0  0  0  0  0  0  0
    0.0490   -1.0750    0.6539 C   0  0  2  0  0  0  0  0  0  0  0  0
    1.1817   -0.1124    0.9986 C   0  0  0  0  0  0  0  0  0  0  0  0
    1.3012    0.9954    0.4793 O   0  0  0  0  0  0  0  0  0  0  0  0
    0.4481   -2.0352   -0.4761 C   0  0  2  0  0  0  0  0  0  0  0  0
    0.7744   -1.3117   -1.6617 O   0  0  0  0  0  0  0  0  0  0  0  0
   -0.6669   -3.0152   -0.8206 C   0  0  0  0  0  0  0  0  0  0  0  0
   -1.6733   -0.5660   -0.4691 H   0  0  0  0  0  0  0  0  0  0  0  0
   -0.2058   -1.6446    1.5559 H   0  0  0  0  0  0  0  0  0  0  0  0
    1.3373   -2.6093   -0.1907 H   0  0  0  0  0  0  0  0  0  0  0  0
    1.0629   -1.9684   -2.3136 H   0  0  0  0  0  0  0  0  0  0  0  0
   -1.5832   -2.4917   -1.1142 H   0  0  0  0  0  0  0  0  0  0  0  0
   -0.8912   -3.6750    0.0229 H   0  0  0  0  0  0  0  0  0  0  0  0
   -0.3758   -3.6335   -1.6770 H   0  0  0  0  0  0  0  0  0  0  0  0
    2.0693   -0.6559    1.9164 N   0  0  0  0  0  0  0  0  0  0  0  0
    3.2422    0.0504    2.3755 C   0  0  2  0  0  0  0  0  0  0  0  0
    2.8008    1.0642    3.4229 C   0  0  0  0  0  0  0  0  0  0  0  0
    1.6522    1.4959    3.4963 O   0  0  0  0  0  0  0  0  0  0  0  0
    3.9610    0.7363    1.2242 C   0  0  0  0  0  0  0  0  0  0  0  0
    1.8868   -1.5869    2.2796 H   0  0  0  0  0  0  0  0  0  0  0  0
    3.8979   -0.6939    2.8404 H   0  0  0  0  0  0  0  0  0  0  0  0
    3.3197    1.4856    0.7459 H   0  0  0  0  0  0  0  0  0  0  0  0
    4.8657    1.2475    1.5695 H   0  0  0  0  0  0  0  0  0  0  0  0
    4.2514    0.0096    0.4578 H   0  0  0  0  0  0  0  0  0  0  0  0
    3.8506    1.4624    4.2386 N   0  0  0  0  0  0  0  0  0  0  0  0
    3.6894    2.4270    5.3015 C   0  0  0  0  0  0  0  0  0  0  0  0
    4.7656    1.0380    4.1185 H   0  0  0  0  0  0  0  0  0  0  0  0
    3.9163    3.4339    4.9212 H   0  0  0  0  0  0  0  0  0  0  0  0
    2.6527    2.3986    5.6681 H   0  0  0  0  0  0  0  0  0  0  0  0
    4.3763    2.1829    6.1252 H   0  0  0  0  0  0  0  0  0  0  0  0
  1  3  1  0  0  0  0
  1  7  1  0  0  0  0
  1  2  2  0  0  0  0
 32 33  1  0  0  0  0
 33 41  1  0  0  0  0
 33 34  2  0  0  0  0
  8  9  1  0  0  0  0
  9 17  1  0  0  0  0
  9 10  2  0  0  0  0
 18 19  1  0  0  0  0
 19 31  1  0  0  0  0
 19 20  2  0  0  0  0
 32 35  1  0  0  0  0
  8 11  1  0  0  0  0
 21 23  1  0  0  0  0
 41 42  1  0  0  0  0
 31 32  1  0  0  0  0
  7  8  1  0  0  0  0
 18 21  1  0  0  0  0
 17 18  1  0  0  0  0
 21 22  1  0  0  0  0
  3  4  1  0  0  0  0
  3  5  1  0  0  0  0
  3  6  1  0  0  0  0
 35 38  1  0  0  0  0
 35 39  1  0  0  0  0
 35 40  1  0  0  0  0
 11 14  1  0  0  0  0
 11 15  1  0  0  0  0
 11 16  1  0  0  0  0
 23 28  1  0  0  0  0
 23 29  1  0  0  0  0
 23 30  1  0  0  0  0
 42 44  1  0  0  0  0
 42 45  1  0  0  0  0
 42 46  1  0  0  0  0
 32 37  1  0  0  0  0
  8 13  1  0  0  0  0
 18 25  1  0  0  0  0
 21 26  1  0  0  0  0
 41 43  1  0  0  0  0
  7 12  1  0  0  0  0
 31 36  1  0  0  0  0
 17 24  1  0  0  0  0
 22 27  1  0  0  0  0
M  END
$$$$

  -OEChem-05262214473D

 46 45  0     1  0  0  0  0  0999 V2000
   -4.6700    2.7214    1.5150 C   0  0  0  0  0  0  0  0  0  0  0  0
   -5.4532    2.5715    0.5845 O   0  0  0  0  0  0  0  0  0  0  0  0
   -5.0996    3.4865    2.7226 C   0  0  0  0  0  0  0  0  0  0  0  0
   -4.8796    4.5629    2.6387 H   0  0  0  0  0  0  0  0  0  0  0  0
   -6.1861    3.4241    2.8954 H   0  0  0  0  0  0  0  0  0  0  0  0
   -4.6369    3.1693    3.6708 H   0  0  0  0  0  0  0  0  0  0  0  0
   -3.3731    2.2391    1.5790 N   0  0  0  0  0  0  0  0  0  0  0  0
   -2.7599    1.4751    0.5247 C   0  0  2  0  0  0  0  0  0  0  0  0
   -1.5143    0.8067    1.0915 C   0  0  0  0  0  0  0  0  0  0  0  0
   -0.9247    1.2213    2.0872 O   0  0  0  0  0  0  0  0  0  0  0  0
   -2.4106    2.3553   -0.6653 C   0  0  0  0  0  0  0  0  0  0  0  0
   -2.8254    2.4352    2.4150 H   0  0  0  0  0  0  0  0  0  0  0  0
   -3.4836    0.7082    0.2278 H   0  0  0  0  0  0  0  0  0  0  0  0
   -1.6866    3.1298   -0.3871 H   0  0  0  0  0  0  0  0  0  0  0  0
   -1.9704    1.7677   -1.4777 H   0  0  0  0  0  0  0  0  0  0  0  0
   -3.3030    2.8584   -1.0531 H   0  0  0  0  0  0  0  0  0  0  0  0
   -1.1107   -0.2839    0.3303 N   0  0  0  0  0  0  0  0  0  0  0  0
    0.0490   -1.0750    0.6539 C   0  0  2  0  0  0  0  0  0  0  0  0
    1.1817   -0.1124    0.9986 C   0  0  0  0  0  0  0  0  0  0  0  0
    1.1646    1.0789    0.6954 O   0  0  0  0  0  0  0  0  0  0  0  0
    0.4481   -2.0352   -0.4761 C   0  0  2  0  0  0  0  0  0  0  0  0
    0.7744   -1.3117   -1.6617 O   0  0  0  0  0  0  0  0  0  0  0  0
   -0.6669   -3.0152   -0.8206 C   0  0  0  0  0  0  0  0  0  0  0  0
   -1.6733   -0.5660   -0.4691 H   0  0  0  0  0  0  0  0  0  0  0  0
   -0.2058   -1.6446    1.5559 H   0  0  0  0  0  0  0  0  0  0  0  0
    1.3373   -2.6093   -0.1907 H   0  0  0  0  0  0  0  0  0  0  0  0
    1.0629   -1.9684   -2.3136 H   0  0  0  0  0  0  0  0  0  0  0  0
   -1.5832   -2.4917   -1.1142 H   0  0  0  0  0  0  0  0  0  0  0  0
   -0.8912   -3.6750    0.0229 H   0  0  0  0  0  0  0  0  0  0  0  0
   -0.3758   -3.6335   -1.6770 H   0  0  0  0  0  0  0  0  0  0  0  0
    2.2339   -0.7506    1.6399 N   0  0  0  0  0  0  0  0  0  0  0  0
    3.4364   -0.0575    2.0384 C   0  0  2  0  0  0  0  0  0  0  0  0
    3.1357    0.7065    3.3211 C   0  0  0  0  0  0  0  0  0  0  0  0
    1.9987    1.0302    3.6582 O   0  0  0  0  0  0  0  0  0  0  0  0
    3.9205    0.8834    0.9461 C   0  0  0  0  0  0  0  0  0  0  0  0
    2.1552   -1.7441    1.8366 H   0  0  0  0  0  0  0  0  0  0  0  0
    4.1923   -0.8248    2.2383 H   0  0  0  0  0  0  0  0  0  0  0  0
    3.1763    1.6592    0.7320 H   0  0  0  0  0  0  0  0  0  0  0  0
    4.8480    1.3869    1.2384 H   0  0  0  0  0  0  0  0  0  0  0  0
    4.1079    0.3368    0.0156 H   0  0  0  0  0  0  0  0  0  0  0  0
    4.2903    1.0220    4.0236 N   0  0  0  0  0  0  0  0  0  0  0  0
    4.2702    1.7557    5.2675 C   0  0  0  0  0  0  0  0  0  0  0  0
    5.1891    0.6968    3.6796 H   0  0  0  0  0  0  0  0  0  0  0  0
    4.3866    2.8300    5.0620 H   0  0  0  0  0  0  0  0  0  0  0  0
    3.3125    1.5821    5.7800 H   0  0  0  0  0  0  0  0  0  0  0  0
    5.0963    1.4135    5.9083 H   0  0  0  0  0  0  0  0  0  0  0  0
  1  3  1  0  0  0  0
  1  7  1  0  0  0  0
  1  2  2  0  0  0  0
 32 33  1  0  0  0  0
 33 41  1  0  0  0  0
 33 34  2  0  0  0  0
  8  9  1  0  0  0  0
  9 17  1  0  0  0  0
  9 10  2  0  0  0  0
 18 19  1  0  0  0  0
 19 31  1  0  0  0  0
 19 20  2  0  0  0  0
 32 35  1  0  0  0  0
  8 11  1  0  0  0  0
 21 23  1  0  0  0  0
 41 42  1  0  0  0  0
 31 32  1  0  0  0  0
  7  8  1  0  0  0  0
 18 21  1  0  0  0  0
 17 18  1  0  0  0  0
 21 22  1  0  0  0  0
  3  4  1  0  0  0  0
  3  5  1  0  0  0  0
  3  6  1  0  0  0  0
 35 38  1  0  0  0  0
 35 39  1  0  0  0  0
 35 40  1  0  0  0  0
 11 14  1  0  0  0  0
 11 15  1  0  0  0  0
 11 16  1  0  0  0  0
 23 28  1  0  0  0  0
 23 29  1  0  0  0  0
 23 30  1  0  0  0  0
 42 44  1  0  0  0  0
 42 45  1  0  0  0  0
 42 46  1  0  0  0  0
 32 37  1  0  0  0  0
  8 13  1  0  0  0  0
 18 25  1  0  0  0  0
 21 26  1  0  0  0  0
 41 43  1  0  0  0  0
  7 12  1  0  0  0  0
 31 36  1  0  0  0  0
 17 24  1  0  0  0  0
 22 27  1  0  0  0  0
M  END
$$$$

  -OEChem-05262214473D

 46 45  0     1  0  0  0  0  0999 V2000
   -4.6700    2.7214    1.5150 C   0  0  0  0  0  0  0  0  0  0  0  0
   -5.4532    2.5715    0.5845 O   0  0  0  0  0  0  0  0  0  0  0  0
   -5.0996    3.4865    2.7226 C   0  0  0  0  0  0  0  0  0  0  0  0
   -4.8796    4.5629    2.6387 H   0  0  0  0  0  0  0  0  0  0  0  0
   -6.1861    3.4241    2.8954 H   0  0  0  0  0  0  0  0  0  0  0  0
   -4.6369    3.1693    3.6708 H   0  0  0  0  0  0  0  0  0  0  0  0
   -3.3731    2.2391    1.5790 N   0  0  0  0  0  0  0  0  0  0  0  0
   -2.7599    1.4751    0.5247 C   0  0  2  0  0  0  0  0  0  0  0  0
   -1.5143    0.8067    1.0915 C   0  0  0  0  0  0  0  0  0  0  0  0
   -0.9247    1.2213    2.0872 O   0  0  0  0  0  0  0  0  0  0  0  0
   -2.4106    2.3553   -0.6653 C   0  0  0  0  0  0  0  0  0  0  0  0
   -2.8254    2.4352    2.4150 H   0  0  0  0  0  0  0  0  0  0  0  0
   -3.4836    0.7082    0.2278 H   0  0  0  0  0  0  0  0  0  0  0  0
   -1.6866    3.1298   -0.3871 H   0  0  0  0  0  0  0  0  0  0  0  0
   -1.9704    1.7677   -1.4777 H   0  0  0  0  0  0  0  0  0  0  0  0
   -3.3030    2.8584   -1.0531 H   0  0  0  0  0  0  0  0  0  0  0  0
   -1.1107   -0.2839    0.3303 N   0  0  0  0  0  0  0  0  0  0  0  0
    0.0490   -1.0750    0.6539 C   0  0  2  0  0  0  0  0  0  0  0  0
    1.0508   -0.1598    1.3519 C   0  0  0  0  0  0  0  0  0  0  0  0
    0.8516    1.0402    1.5297 O   0  0  0  0  0  0  0  0  0  0  0  0
    0.6672   -1.7550   -0.5764 C   0  0  2  0  0  0  0  0  0  0  0  0
    1.0978   -0.7826   -1.5275 O   0  0  0  0  0  0  0  0  0  0  0  0
   -0.3158   -2.6865   -1.2752 C   0  0  0  0  0  0  0  0  0  0  0  0
   -1.6733   -0.5660   -0.4691 H   0  0  0  0  0  0  0  0  0  0  0  0
   -0.2837   -1.8337    1.3727 H   0  0  0  0  0  0  0  0  0  0  0  0
    1.5490   -2.3377   -0.2856 H   0  0  0  0  0  0  0  0  0  0  0  0
    1.5196   -1.2727   -2.2496 H   0  0  0  0  0  0  0  0  0  0  0  0
   -1.2195   -2.1525   -1.5882 H   0  0  0  0  0  0  0  0  0  0  0  0
   -0.6039   -3.5195   -0.6269 H   0  0  0  0  0  0  0  0  0  0  0  0
    0.1335   -3.0955   -2.1869 H   0  0  0  0  0  0  0  0  0  0  0  0
    2.2124   -0.8303    1.7079 N   0  0  0  0  0  0  0  0  0  0  0  0
    3.3238   -0.1711    2.3527 C   0  0  2  0  0  0  0  0  0  0  0  0
    2.9820   -0.0077    3.8278 C   0  0  0  0  0  0  0  0  0  0  0  0
    1.8288   -0.0097    4.2534 O   0  0  0  0  0  0  0  0  0  0  0  0
    3.6167    1.1757    1.7101 C   0  0  0  0  0  0  0  0  0  0  0  0
    2.2838   -1.8235    1.5071 H   0  0  0  0  0  0  0  0  0  0  0  0
    4.1888   -0.8352    2.2490 H   0  0  0  0  0  0  0  0  0  0  0  0
    2.7613    1.8547    1.8041 H   0  0  0  0  0  0  0  0  0  0  0  0
    4.4775    1.6614    2.1815 H   0  0  0  0  0  0  0  0  0  0  0  0
    3.8330    1.0594    0.6427 H   0  0  0  0  0  0  0  0  0  0  0  0
    4.1140    0.1839    4.6076 N   0  0  0  0  0  0  0  0  0  0  0  0
    4.0521    0.3762    6.0377 C   0  0  0  0  0  0  0  0  0  0  0  0
    5.0315    0.1519    4.1730 H   0  0  0  0  0  0  0  0  0  0  0  0
    4.0062    1.4521    6.2619 H   0  0  0  0  0  0  0  0  0  0  0  0
    3.1546   -0.1198    6.4358 H   0  0  0  0  0  0  0  0  0  0  0  0
    4.9485   -0.0576    6.5050 H   0  0  0  0  0  0  0  0  0  0  0  0
  1  3  1  0  0  0  0
  1  7  1  0  0  0  0
  1  2  2  0  0  0  0
 32 33  1  0  0  0  0
 33 41  1  0  0  0  0
 33 34  2  0  0  0  0
  8  9  1  0  0  0  0
  9 17  1  0  0  0  0
  9 10  2  0  0  0  0
 18 19  1  0  0  0  0
 19 31  1  0  0  0  0
 19 20  2  0  0  0  0
 32 35  1  0  0  0  0
  8 11  1  0  0  0  0
 21 23  1  0  0  0  0
 41 42  1  0  0  0  0
 31 32  1  0  0  0  0
  7  8  1  0  0  0  0
 18 21  1  0  0  0  0
 17 18  1  0  0  0  0
 21 22  1  0  0  0  0
  3  4  1  0  0  0  0
  3  5  1  0  0  0  0
  3  6  1  0  0  0  0
 35 38  1  0  0  0  0
 35 39  1  0  0  0  0
 35 40  1  0  0  0  0
 11 14  1  0  0  0  0
 11 15  1  0  0  0  0
 11 16  1  0  0  0  0
 23 28  1  0  0  0  0
 23 29  1  0  0  0  0
 23 30  1  0  0  0  0
 42 44  1  0  0  0  0
 42 45  1  0  0  0  0
 42 46  1  0  0  0  0
 32 37  1  0  0  0  0
  8 13  1  0  0  0  0
 18 25  1  0  0  0  0
 21 26  1  0  0  0  0
 41 43  1  0  0  0  0
  7 12  1  0  0  0  0
 31 36  1  0  0  0  0
 17 24  1  0  0  0  0
 22 27  1  0  0  0  0
M  END
$$$$

  -OEChem-05262214473D

 46 45  0     1  0  0  0  0  0999 V2000
   -4.6700    2.7214    1.5150 C   0  0  0  0  0  0  0  0  0  0  0  0
   -5.4532    2.5715    0.5845 O   0  0  0  0  0  0  0  0  0  0  0  0
   -5.0996    3.4865    2.7226 C   0  0  0  0  0  0  0  0  0  0  0  0
   -4.8796    4.5629    2.6387 H   0  0  0  0  0  0  0  0  0  0  0  0
   -6.1861    3.4241    2.8954 H   0  0  0  0  0  0  0  0  0  0  0  0
   -4.6369    3.1693    3.6708 H   0  0  0  0  0  0  0  0  0  0  0  0
   -3.3731    2.2391    1.5790 N   0  0  0  0  0  0  0  0  0  0  0  0
   -2.7599    1.4751    0.5247 C   0  0  2  0  0  0  0  0  0  0  0  0
   -1.5143    0.8067    1.0915 C   0  0  0  0  0  0  0  0  0  0  0  0
   -0.9247    1.2213    2.0872 O   0  0  0  0  0  0  0  0  0  0  0  0
   -2.4106    2.3553   -0.6653 C   0  0  0  0  0  0  0  0  0  0  0  0
   -2.8254    2.4352    2.4150 H   0  0  0  0  0  0  0  0  0  0  0  0
   -3.4836    0.7082    0.2278 H   0  0  0  0  0  0  0  0  0  0  0  0
   -1.6866    3.1298   -0.3871 H   0  0  0  0  0  0  0  0  0  0  0  0
   -1.9704    1.7677   -1.4777 H   0  0  0  0  0  0  0  0  0  0  0  0
   -3.3030    2.8584   -1.0531 H   0  0  0  0  0  0  0  0  0  0  0  0
   -1.1107   -0.2839    0.3303 N   0  0  0  0  0  0  0  0  0  0  0  0
    0.0490   -1.0750    0.6539 C   0  0  2  0  0  0  0  0  0  0  0  0
    1.0508   -0.1598    1.3519 C   0  0  0  0  0  0  0  0  0  0  0  0
    0.7590    0.9592    1.7689 O   0  0  0  0  0  0  0  0  0  0  0  0
    0.6672   -1.7550   -0.5764 C   0  0  2  0  0  0  0  0  0  0  0  0
    1.0978   -0.7826   -1.5275 O   0  0  0  0  0  0  0  0  0  0  0  0
   -0.3158   -2.6865   -1.2752 C   0  0  0  0  0  0  0  0  0  0  0  0
   -1.6733   -0.5660   -0.4691 H   0  0  0  0  0  0  0  0  0  0  0  0
   -0.2837   -1.8337    1.3727 H   0  0  0  0  0  0  0  0  0  0  0  0
    1.5490   -2.3377   -0.2856 H   0  0  0  0  0  0  0  0  0  0  0  0
    1.5196   -1.2727   -2.2496 H   0  0  0  0  0  0  0  0  0  0  0  0
   -1.2195   -2.1525   -1.5882 H   0  0  0  0  0  0  0  0  0  0  0  0
   -0.6039   -3.5195   -0.6269 H   0  0  0  0  0  0  0  0  0  0  0  0
    0.1335   -3.0955   -2.1869 H   0  0  0  0  0  0  0  0  0  0  0  0
    2.3192   -0.7198    1.4096 N   0  0  0  0  0  0  0  0  0  0  0  0
    3.4465   -0.0320    1.9941 C   0  0  2  0  0  0  0  0  0  0  0  0
    3.3383   -0.1540    3.5083 C   0  0  0  0  0  0  0  0  0  0  0  0
    2.2781   -0.3764    4.0893 O   0  0  0  0  0  0  0  0  0  0  0  0
    3.4860    1.4272    1.5678 C   0  0  0  0  0  0  0  0  0  0  0  0
    2.4602   -1.6496    1.0259 H   0  0  0  0  0  0  0  0  0  0  0  0
    4.3473   -0.5509    1.6487 H   0  0  0  0  0  0  0  0  0  0  0  0
    2.5915    1.9636    1.9050 H   0  0  0  0  0  0  0  0  0  0  0  0
    4.3571    1.9401    1.9888 H   0  0  0  0  0  0  0  0  0  0  0  0
    3.5338    1.5134    0.4769 H   0  0  0  0  0  0  0  0  0  0  0  0
    4.5573    0.0573    4.1373 N   0  0  0  0  0  0  0  0  0  0  0  0
    4.7131    0.0077    5.5723 C   0  0  0  0  0  0  0  0  0  0  0  0
    5.3884    0.2167    3.5756 H   0  0  0  0  0  0  0  0  0  0  0  0
    4.5922    1.0181    5.9900 H   0  0  0  0  0  0  0  0  0  0  0  0
    3.9509   -0.6597    6.0009 H   0  0  0  0  0  0  0  0  0  0  0  0
    5.7149   -0.3736    5.8193 H   0  0  0  0  0  0  0  0  0  0  0  0
  1  3  1  0  0  0  0
  1  7  1  0  0  0  0
  1  2  2  0  0  0  0
 32 33  1  0  0  0  0
 33 41  1  0  0  0  0
 33 34  2  0  0  0  0
  8  9  1  0  0  0  0
  9 17  1  0  0  0  0
  9 10  2  0  0  0  0
 18 19  1  0  0  0  0
 19 31  1  0  0  0  0
 19 20  2  0  0  0  0
 32 35  1  0  0  0  0
  8 11  1  0  0  0  0
 21 23  1  0  0  0  0
 41 42  1  0  0  0  0
 31 32  1  0  0  0  0
  7  8  1  0  0  0  0
 18 21  1  0  0  0  0
 17 18  1  0  0  0  0
 21 22  1  0  0  0  0
  3  4  1  0  0  0  0
  3  5  1  0  0  0  0
  3  6  1  0  0  0  0
 35 38  1  0  0  0  0
 35 39  1  0  0  0  0
 35 40  1  0  0  0  0
 11 14  1  0  0  0  0
 11 15  1  0  0  0  0
 11 16  1  0  0  0  0
 23 28  1  0  0  0  0
 23 29  1  0  0  0  0
 23 30  1  0  0  0  0
 42 44  1  0  0  0  0
 42 45  1  0  0  0  0
 42 46  1  0  0  0  0
 32 37  1  0  0  0  0
  8 13  1  0  0  0  0
 18 25  1  0  0  0  0
 21 26  1  0  0  0  0
 41 43  1  0  0  0  0
  7 12  1  0  0  0  0
 31 36  1  0  0  0  0
 17 24  1  0  0  0  0
 22 27  1  0  0  0  0
M  END
$$$$

  -OEChem-05262214473D

 46 45  0     1  0  0  0  0  0999 V2000
   -4.6700    2.7214    1.5150 C   0  0  0  0  0  0  0  0  0  0  0  0
   -5.4532    2.5715    0.5845 O   0  0  0  0  0  0  0  0  0  0  0  0
   -5.0996    3.4865    2.7226 C   0  0  0  0  0  0  0  0  0  0  0  0
   -4.8796    4.5629    2.6387 H   0  0  0  0  0  0  0  0  0  0  0  0
   -6.1861    3.4241    2.8954 H   0  0  0  0  0  0  0  0  0  0  0  0
   -4.6369    3.1693    3.6708 H   0  0  0  0  0  0  0  0  0  0  0  0
   -3.3731    2.2391    1.5790 N   0  0  0  0  0  0  0  0  0  0  0  0
   -2.7599    1.4751    0.5247 C   0  0  2  0  0  0  0  0  0  0  0  0
   -1.5143    0.8067    1.0915 C   0  0  0  0  0  0  0  0  0  0  0  0
   -0.9247    1.2213    2.0872 O   0  0  0  0  0  0  0  0  0  0  0  0
   -2.4106    2.3553   -0.6653 C   0  0  0  0  0  0  0  0  0  0  0  0
   -2.8254    2.4352    2.4150 H   0  0  0  0  0  0  0  0  0  0  0  0
   -3.4836    0.7082    0.2278 H   0  0  0  0  0  0  0  0  0  0  0  0
   -1.6866    3.1298   -0.3871 H   0  0  0  0  0  0  0  0  0  0  0  0
   -1.9704    1.7677   -1.4777 H   0  0  0  0  0  0  0  0  0  0  0  0
   -3.3030    2.8584   -1.0531 H   0  0  0  0  0  0  0  0  0  0  0  0
   -1.1107   -0.2839    0.3303 N   0  0  0  0  0  0  0  0  0  0  0  0
    0.0490   -1.0750    0.6539 C   0  0  2  0  0  0  0  0  0  0  0  0
    1.0508   -0.1598    1.3519 C   0  0  0  0  0  0  0  0  0  0  0  0
    0.7161    0.8294    2.0006 O   0  0  0  0  0  0  0  0  0  0  0  0
    0.6672   -1.7550   -0.5764 C   0  0  2  0  0  0  0  0  0  0  0  0
    1.0978   -0.7826   -1.5275 O   0  0  0  0  0  0  0  0  0  0  0  0
   -0.3158   -2.6865   -1.2752 C   0  0  0  0  0  0  0  0  0  0  0  0
   -1.6733   -0.5660   -0.4691 H   0  0  0  0  0  0  0  0  0  0  0  0
   -0.2837   -1.8337    1.3727 H   0  0  0  0  0  0  0  0  0  0  0  0
    1.5490   -2.3377   -0.2856 H   0  0  0  0  0  0  0  0  0  0  0  0
    1.5196   -1.2727   -2.2496 H   0  0  0  0  0  0  0  0  0  0  0  0
   -1.2195   -2.1525   -1.5882 H   0  0  0  0  0  0  0  0  0  0  0  0
   -0.6039   -3.5195   -0.6269 H   0  0  0  0  0  0  0  0  0  0  0  0
    0.1335   -3.0955   -2.1869 H   0  0  0  0  0  0  0  0  0  0  0  0
    2.3630   -0.5496    1.1238 N   0  0  0  0  0  0  0  0  0  0  0  0
    3.4929    0.1778    1.6523 C   0  0  2  0  0  0  0  0  0  0  0  0
    3.6502   -0.1989    3.1196 C   0  0  0  0  0  0  0  0  0  0  0  0
    2.7300   -0.6494    3.7988 O   0  0  0  0  0  0  0  0  0  0  0  0
    3.3080    1.6789    1.4934 C   0  0  0  0  0  0  0  0  0  0  0  0
    2.5353   -1.3790    0.5632 H   0  0  0  0  0  0  0  0  0  0  0  0
    4.3736   -0.1556    1.0926 H   0  0  0  0  0  0  0  0  0  0  0  0
    2.4303    2.0315    2.0473 H   0  0  0  0  0  0  0  0  0  0  0  0
    4.1780    2.2278    1.8686 H   0  0  0  0  0  0  0  0  0  0  0  0
    3.1652    1.9447    0.4404 H   0  0  0  0  0  0  0  0  0  0  0  0
    4.9274    0.0675    3.5928 N   0  0  0  0  0  0  0  0  0  0  0  0
    5.3228   -0.1910    4.9576 C   0  0  0  0  0  0  0  0  0  0  0  0
    5.6328    0.4232    2.9542 H   0  0  0  0  0  0  0  0  0  0  0  0
    5.1673    0.7144    5.5627 H   0  0  0  0  0  0  0  0  0  0  0  0
    4.7164   -1.0131    5.3655 H   0  0  0  0  0  0  0  0  0  0  0  0
    6.3861   -0.4715    4.9843 H   0  0  0  0  0  0  0  0  0  0  0  0
  1  3  1  0  0  0  0
  1  7  1  0  0  0  0
  1  2  2  0  0  0  0
 32 33  1  0  0  0  0
 33 41  1  0  0  0  0
 33 34  2  0  0  0  0
  8  9  1  0  0  0  0
  9 17  1  0  0  0  0
  9 10  2  0  0  0  0
 18 19  1  0  0  0  0
 19 31  1  0  0  0  0
 19 20  2  0  0  0  0
 32 35  1  0  0  0  0
  8 11  1  0  0  0  0
 21 23  1  0  0  0  0
 41 42  1  0  0  0  0
 31 32  1  0  0  0  0
  7  8  1  0  0  0  0
 18 21  1  0  0  0  0
 17 18  1  0  0  0  0
 21 22  1  0  0  0  0
  3  4  1  0  0  0  0
  3  5  1  0  0  0  0
  3  6  1  0  0  0  0
 35 38  1  0  0  0  0
 35 39  1  0  0  0  0
 35 40  1  0  0  0  0
 11 14  1  0  0  0  0
 11 15  1  0  0  0  0
 11 16  1  0  0  0  0
 23 28  1  0  0  0  0
 23 29  1  0  0  0  0
 23 30  1  0  0  0  0
 42 44  1  0  0  0  0
 42 45  1  0  0  0  0
 42 46  1  0  0  0  0
 32 37  1  0  0  0  0
  8 13  1  0  0  0  0
 18 25  1  0  0  0  0
 21 26  1  0  0  0  0
 41 43  1  0  0  0  0
  7 12  1  0  0  0  0
 31 36  1  0  0  0  0
 17 24  1  0  0  0  0
 22 27  1  0  0  0  0
M  END
$$$$

  -OEChem-05262214473D

 46 45  0     1  0  0  0  0  0999 V2000
   -4.6700    2.7214    1.5150 C   0  0  0  0  0  0  0  0  0  0  0  0
   -5.4532    2.5715    0.5845 O   0  0  0  0  0  0  0  0  0  0  0  0
   -5.0996    3.4865    2.7226 C   0  0  0  0  0  0  0  0  0  0  0  0
   -4.8796    4.5629    2.6387 H   0  0  0  0  0  0  0  0  0  0  0  0
   -6.1861    3.4241    2.8954 H   0  0  0  0  0  0  0  0  0  0  0  0
   -4.6369    3.1693    3.6708 H   0  0  0  0  0  0  0  0  0  0  0  0
   -3.3731    2.2391    1.5790 N   0  0  0  0  0  0  0  0  0  0  0  0
   -2.7599    1.4751    0.5247 C   0  0  2  0  0  0  0  0  0  0  0  0
   -1.5143    0.8067    1.0915 C   0  0  0  0  0  0  0  0  0  0  0  0
   -0.9247    1.2213    2.0872 O   0  0  0  0  0  0  0  0  0  0  0  0
   -2.4106    2.3553   -0.6653 C   0  0  0  0  0  0  0  0  0  0  0  0
   -2.8254    2.4352    2.4150 H   0  0  0  0  0  0  0  0  0  0  0  0
   -3.4836    0.7082    0.2278 H   0  0  0  0  0  0  0  0  0  0  0  0
   -1.6866    3.1298   -0.3871 H   0  0  0  0  0  0  0  0  0  0  0  0
   -1.9704    1.7677   -1.4777 H   0  0  0  0  0  0  0  0  0  0  0  0
   -3.3030    2.8584   -1.0531 H   0  0  0  0  0  0  0  0  0  0  0  0
   -1.1107   -0.2839    0.3303 N   0  0  0  0  0  0  0  0  0  0  0  0
    0.0490   -1.0750    0.6539 C   0  0  2  0  0  0  0  0  0  0  0  0
    1.0508   -0.1598    1.3519 C   0  0  0  0  0  0  0  0  0  0  0  0
    0.7261    0.6595    2.2090 O   0  0  0  0  0  0  0  0  0  0  0  0
    0.6672   -1.7550   -0.5764 C   0  0  2  0  0  0  0  0  0  0  0  0
    1.0978   -0.7826   -1.5275 O   0  0  0  0  0  0  0  0  0  0  0  0
   -0.3158   -2.6865   -1.2752 C   0  0  0  0  0  0  0  0  0  0  0  0
   -1.6733   -0.5660   -0.4691 H   0  0  0  0  0  0  0  0  0  0  0  0
   -0.2837   -1.8337    1.3727 H   0  0  0  0  0  0  0  0  0  0  0  0
    1.5490   -2.3377   -0.2856 H   0  0  0  0  0  0  0  0  0  0  0  0
    1.5196   -1.2727   -2.2496 H   0  0  0  0  0  0  0  0  0  0  0  0
   -1.2195   -2.1525   -1.5882 H   0  0  0  0  0  0  0  0  0  0  0  0
   -0.6039   -3.5195   -0.6269 H   0  0  0  0  0  0  0  0  0  0  0  0
    0.1335   -3.0955   -2.1869 H   0  0  0  0  0  0  0  0  0  0  0  0
    2.3407   -0.3316    0.8698 N   0  0  0  0  0  0  0  0  0  0  0  0
    3.4598    0.4441    1.3506 C   0  0  2  0  0  0  0  0  0  0  0  0
    3.8964   -0.1393    2.6880 C   0  0  0  0  0  0  0  0  0  0  0  0
    3.1537   -0.8103    3.4016 O   0  0  0  0  0  0  0  0  0  0  0  0
    3.0946    1.9136    1.4919 C   0  0  0  0  0  0  0  0  0  0  0  0
    2.5040   -1.0301    0.1506 H   0  0  0  0  0  0  0  0  0  0  0  0
    4.2658    0.3239    0.6185 H   0  0  0  0  0  0  0  0  0  0  0  0
    2.2886    2.0538    2.2214 H   0  0  0  0  0  0  0  0  0  0  0  0
    3.9522    2.5049    1.8293 H   0  0  0  0  0  0  0  0  0  0  0  0
    2.7525    2.3238    0.5357 H   0  0  0  0  0  0  0  0  0  0  0  0
    5.1992    0.2137    3.0110 N   0  0  0  0  0  0  0  0  0  0  0  0
    5.8399   -0.2062    4.2354 C   0  0  0  0  0  0  0  0  0  0  0  0
    5.7479    0.7571    2.3512 H   0  0  0  0  0  0  0  0  0  0  0  0
    5.6925    0.5618    5.0090 H   0  0  0  0  0  0  0  0  0  0  0  0
    5.3990   -1.1558    4.5729 H   0  0  0  0  0  0  0  0  0  0  0  0
    6.9165   -0.3448    4.0569 H   0  0  0  0  0  0  0  0  0  0  0  0
  1  3  1  0  0  0  0
  1  7  1  0  0  0  0
  1  2  2  0  0  0  0
 32 33  1  0  0  0  0
 33 41  1  0  0  0  0
 33 34  2  0  0  0  0
  8  9  1  0  0  0  0
  9 17  1  0  0  0  0
  9 10  2  0  0  0  0
 18 19  1  0  0  0  0
 19 31  1  0  0  0  0
 19 20  2  0  0  0  0
 32 35  1  0  0  0  0
  8 11  1  0  0  0  0
 21 23  1  0  0  0  0
 41 42  1  0  0  0  0
 31 32  1  0  0  0  0
  7  8  1  0  0  0  0
 18 21  1  0  0  0  0
 17 18  1  0  0  0  0
 21 22  1  0  0  0  0
  3  4  1  0  0  0  0
  3  5  1  0  0  0  0
  3  6  1  0  0  0  0
 35 38  1  0  0  0  0
 35 39  1  0  0  0  0
 35 40  1  0  0  0  0
 11 14  1  0  0  0  0
 11 15  1  0  0  0  0
 11 16  1  0  0  0  0
 23 28  1  0  0  0  0
 23 29  1  0  0  0  0
 23 30  1  0  0  0  0
 42 44  1  0  0  0  0
 42 45  1  0  0  0  0
 42 46  1  0  0  0  0
 32 37  1  0  0  0  0
  8 13  1  0  0  0  0
 18 25  1  0  0  0  0
 21 26  1  0  0  0  0
 41 43  1  0  0  0  0
  7 12  1  0  0  0  0
 31 36  1  0  0  0  0
 17 24  1  0  0  0  0
 22 27  1  0  0  0  0
M  END
$$$$

  -OEChem-05262214473D

 46 45  0     1  0  0  0  0  0999 V2000
   -4.6700    2.7214    1.5150 C   0  0  0  0  0  0  0  0  0  0  0  0
   -5.4532    2.5715    0.5845 O   0  0  0  0  0  0  0  0  0  0  0  0
   -5.0996    3.4865    2.7226 C   0  0  0  0  0  0  0  0  0  0  0  0
   -4.8796    4.5629    2.6387 H   0  0  0  0  0  0  0  0  0  0  0  0
   -6.1861    3.4241    2.8954 H   0  0  0  0  0  0  0  0  0  0  0  0
   -4.6369    3.1693    3.6708 H   0  0  0  0  0  0  0  0  0  0  0  0
   -3.3731    2.2391    1.5790 N   0  0  0  0  0  0  0  0  0  0  0  0
   -2.7599    1.4751    0.5247 C   0  0  2  0  0  0  0  0  0  0  0  0
   -1.5143    0.8067    1.0915 C   0  0  0  0  0  0  0  0  0  0  0  0
   -0.9247    1.2213    2.0872 O   0  0  0  0  0  0  0  0  0  0  0  0
   -2.4106    2.3553   -0.6653 C   0  0  0  0  0  0  0  0  0  0  0  0
   -2.8254    2.4352    2.4150 H   0  0  0  0  0  0  0  0  0  0  0  0
   -3.4836    0.7082    0.2278 H   0  0  0  0  0  0  0  0  0  0  0  0
   -1.6866    3.1298   -0.3871 H   0  0  0  0  0  0  0  0  0  0  0  0
   -1.9704    1.7677   -1.4777 H   0  0  0  0  0  0  0  0  0  0  0  0
   -3.3030    2.8584   -1.0531 H   0  0  0  0  0  0  0  0  0  0  0  0
   -1.1107   -0.2839    0.3303 N   0  0  0  0  0  0  0  0  0  0  0  0
    0.0490   -1.0750    0.6539 C   0  0  2  0  0  0  0  0  0  0  0  0
    1.0508   -0.1598    1.3519 C   0  0  0  0  0  0  0  0  0  0  0  0
    0.7882    0.4613    2.3798 O   0  0  0  0  0  0  0  0  0  0  0  0
    0.6672   -1.7550   -0.5764 C   0  0  2  0  0  0  0  0  0  0  0  0
    1.0978   -0.7826   -1.5275 O   0  0  0  0  0  0  0  0  0  0  0  0
   -0.3158   -2.6865   -1.2752 C   0  0  0  0  0  0  0  0  0  0  0  0
   -1.6733   -0.5660   -0.4691 H   0  0  0  0  0  0  0  0  0  0  0  0
   -0.2837   -1.8337    1.3727 H   0  0  0  0  0  0  0  0  0  0  0  0
    1.5490   -2.3377   -0.2856 H   0  0  0  0  0  0  0  0  0  0  0  0
    1.5196   -1.2727   -2.2496 H   0  0  0  0  0  0  0  0  0  0  0  0
   -1.2195   -2.1525   -1.5882 H   0  0  0  0  0  0  0  0  0  0  0  0
   -0.6039   -3.5195   -0.6269 H   0  0  0  0  0  0  0  0  0  0  0  0
    0.1335   -3.0955   -2.1869 H   0  0  0  0  0  0  0  0  0  0  0  0
    2.2539   -0.0804    0.6649 N   0  0  0  0  0  0  0  0  0  0  0  0
    3.3495    0.7487    1.1096 C   0  0  2  0  0  0  0  0  0  0  0  0
    4.0602    0.0208    2.2430 C   0  0  0  0  0  0  0  0  0  0  0  0
    3.5204   -0.8481    2.9248 O   0  0  0  0  0  0  0  0  0  0  0  0
    2.8605    2.1153    1.5635 C   0  0  0  0  0  0  0  0  0  0  0  0
    2.3684   -0.6267   -0.1838 H   0  0  0  0  0  0  0  0  0  0  0  0
    4.0313    0.8549    0.2588 H   0  0  0  0  0  0  0  0  0  0  0  0
    2.1761    2.0291    2.4153 H   0  0  0  0  0  0  0  0  0  0  0  0
    3.6953    2.7526    1.8734 H   0  0  0  0  0  0  0  0  0  0  0  0
    2.3237    2.6250    0.7561 H   0  0  0  0  0  0  0  0  0  0  0  0
    5.3541    0.4859    2.4317 N   0  0  0  0  0  0  0  0  0  0  0  0
    6.2291   -0.0370    3.4550 C   0  0  0  0  0  0  0  0  0  0  0  0
    5.7259    1.1957    1.8075 H   0  0  0  0  0  0  0  0  0  0  0  0
    6.1319    0.5706    4.3668 H   0  0  0  0  0  0  0  0  0  0  0  0
    5.9522   -1.0782    3.6770 H   0  0  0  0  0  0  0  0  0  0  0  0
    7.2697   -0.0020    3.1003 H   0  0  0  0  0  0  0  0  0  0  0  0
  1  3  1  0  0  0  0
  1  7  1  0  0  0  0
  1  2  2  0  0  0  0
 32 33  1  0  0  0  0
 33 41  1  0  0  0  0
 33 34  2  0  0  0  0
  8  9  1  0  0  0  0
  9 17  1  0  0  0  0
  9 10  2  0  0  0  0
 18 19  1  0  0  0  0
 19 31  1  0  0  0  0
 19 20  2  0  0  0  0
 32 35  1  0  0  0  0
  8 11  1  0  0  0  0
 21 23  1  0  0  0  0
 41 42  1  0  0  0  0
 31 32  1  0  0  0  0
  7  8  1  0  0  0  0
 18 21  1  0  0  0  0
 17 18  1  0  0  0  0
 21 22  1  0  0  0  0
  3  4  1  0  0  0  0
  3  5  1  0  0  0  0
  3  6  1  0  0  0  0
 35 38  1  0  0  0  0
 35 39  1  0  0  0  0
 35 40  1  0  0  0  0
 11 14  1  0  0  0  0
 11 15  1  0  0  0  0
 11 16  1  0  0  0  0
 23 28  1  0  0  0  0
 23 29  1  0  0  0  0
 23 30  1  0  0  0  0
 42 44  1  0  0  0  0
 42 45  1  0  0  0  0
 42 46  1  0  0  0  0
 32 37  1  0  0  0  0
  8 13  1  0  0  0  0
 18 25  1  0  0  0  0
 21 26  1  0  0  0  0
 41 43  1  0  0  0  0
  7 12  1  0  0  0  0
 31 36  1  0  0  0  0
 17 24  1  0  0  0  0
 22 27  1  0  0  0  0
M  END
$$$$

  -OEChem-05262214473D

 46 45  0     1  0  0  0  0  0999 V2000
   -4.6700    2.7214    1.5150 C   0  0  0  0  0  0  0  0  0  0  0  0
   -5.4532    2.5715    0.5845 O   0  0  0  0  0  0  0  0  0  0  0  0
   -5.0996    3.4865    2.7226 C   0  0  0  0  0  0  0  0  0  0  0  0
   -4.8796    4.5629    2.6387 H   0  0  0  0  0  0  0  0  0  0  0  0
   -6.1861    3.4241    2.8954 H   0  0  0  0  0  0  0  0  0  0  0  0
   -4.6369    3.1693    3.6708 H   0  0  0  0  0  0  0  0  0  0  0  0
   -3.3731    2.2391    1.5790 N   0  0  0  0  0  0  0  0  0  0  0  0
   -2.7599    1.4751    0.5247 C   0  0  2  0  0  0  0  0  0  0  0  0
   -1.5143    0.8067    1.0915 C   0  0  0  0  0  0  0  0  0  0  0  0
   -0.9247    1.2213    2.0872 O   0  0  0  0  0  0  0  0  0  0  0  0
   -2.4106    2.3553   -0.6653 C   0  0  0  0  0  0  0  0  0  0  0  0
   -2.8254    2.4352    2.4150 H   0  0  0  0  0  0  0  0  0  0  0  0
   -3.4836    0.7082    0.2278 H   0  0  0  0  0  0  0  0  0  0  0  0
   -1.6866    3.1298   -0.3871 H   0  0  0  0  0  0  0  0  0  0  0  0
   -1.9704    1.7677   -1.4777 H   0  0  0  0  0  0  0  0  0  0  0  0
   -3.3030    2.8584   -1.0531 H   0  0  0  0  0  0  0  0  0  0  0  0
   -1.1107   -0.2839    0.3303 N   0  0  0  0  0  0  0  0  0  0  0  0
    0.0490   -1.0750    0.6539 C   0  0  2  0  0  0  0  0  0  0  0  0
    1.0508   -0.1598    1.3519 C   0  0  0  0  0  0  0  0  0  0  0  0
    0.8982    0.2480    2.5015 O   0  0  0  0  0  0  0  0  0  0  0  0
    0.6672   -1.7550   -0.5764 C   0  0  2  0  0  0  0  0  0  0  0  0
    1.0978   -0.7826   -1.5275 O   0  0  0  0  0  0  0  0  0  0  0  0
   -0.3158   -2.6865   -1.2752 C   0  0  0  0  0  0  0  0  0  0  0  0
   -1.6733   -0.5660   -0.4691 H   0  0  0  0  0  0  0  0  0  0  0  0
   -0.2837   -1.8337    1.3727 H   0  0  0  0  0  0  0  0  0  0  0  0
    1.5490   -2.3377   -0.2856 H   0  0  0  0  0  0  0  0  0  0  0  0
    1.5196   -1.2727   -2.2496 H   0  0  0  0  0  0  0  0  0  0  0  0
   -1.2195   -2.1525   -1.5882 H   0  0  0  0  0  0  0  0  0  0  0  0
   -0.6039   -3.5195   -0.6269 H   0  0  0  0  0  0  0  0  0  0  0  0
    0.1335   -3.0955   -2.1869 H   0  0  0  0  0  0  0  0  0  0  0  0
    2.1086    0.1868    0.5232 N   0  0  0  0  0  0  0  0  0  0  0  0
    3.1695    1.0707    0.9457 C   0  0  2  0  0  0  0  0  0  0  0  0
    4.1303    0.2704    1.8150 C   0  0  0  0  0  0  0  0  0  0  0  0
    3.8051   -0.7602    2.4009 O   0  0  0  0  0  0  0  0  0  0  0  0
    2.6216    2.2702    1.7032 C   0  0  0  0  0  0  0  0  0  0  0  0
    2.1378   -0.1963   -0.4171 H   0  0  0  0  0  0  0  0  0  0  0  0
    3.6862    1.4011    0.0380 H   0  0  0  0  0  0  0  0  0  0  0  0
    2.1005    1.9589    2.6159 H   0  0  0  0  0  0  0  0  0  0  0  0
    3.4246    2.9538    1.9980 H   0  0  0  0  0  0  0  0  0  0  0  0
    1.9082    2.8277    1.0869 H   0  0  0  0  0  0  0  0  0  0  0  0
    5.3816    0.8656    1.8944 N   0  0  0  0  0  0  0  0  0  0  0  0
    6.4638    0.3052    2.6694 C   0  0  0  0  0  0  0  0  0  0  0  0
    5.5684    1.7092    1.3603 H   0  0  0  0  0  0  0  0  0  0  0  0
    6.4556    0.7402    3.6797 H   0  0  0  0  0  0  0  0  0  0  0  0
    6.3383   -0.7855    2.7390 H   0  0  0  0  0  0  0  0  0  0  0  0
    7.4219    0.5335    2.1797 H   0  0  0  0  0  0  0  0  0  0  0  0
  1  3  1  0  0  0  0
  1  7  1  0  0  0  0
  1  2  2  0  0  0  0
 32 33  1  0  0  0  0
 33 41  1  0  0  0  0
 33 34  2  0  0  0  0
  8  9  1  0  0  0  0
  9 17  1  0  0  0  0
  9 10  2  0  0  0  0
 18 19  1  0  0  0  0
 19 31  1  0  0  0  0
 19 20  2  0  0  0  0
 32 35  1  0  0  0  0
  8 11  1  0  0  0  0
 21 23  1  0  0  0  0
 41 42  1  0  0  0  0
 31 32  1  0  0  0  0
  7  8  1  0  0  0  0
 18 21  1  0  0  0  0
 17 18  1  0  0  0  0
 21 22  1  0  0  0  0
  3  4  1  0  0  0  0
  3  5  1  0  0  0  0
  3  6  1  0  0  0  0
 35 38  1  0  0  0  0
 35 39  1  0  0  0  0
 35 40  1  0  0  0  0
 11 14  1  0  0  0  0
 11 15  1  0  0  0  0
 11 16  1  0  0  0  0
 23 28  1  0  0  0  0
 23 29  1  0  0  0  0
 23 30  1  0  0  0  0
 42 44  1  0  0  0  0
 42 45  1  0  0  0  0
 42 46  1  0  0  0  0
 32 37  1  0  0  0  0
  8 13  1  0  0  0  0
 18 25  1  0  0  0  0
 21 26  1  0  0  0  0
 41 43  1  0  0  0  0
  7 12  1  0  0  0  0
 31 36  1  0  0  0  0
 17 24  1  0  0  0  0
 22 27  1  0  0  0  0
M  END
$$$$

  -OEChem-05262214473D

 46 45  0     1  0  0  0  0  0999 V2000
   -4.6700    2.7214    1.5150 C   0  0  0  0  0  0  0  0  0  0  0  0
   -5.4532    2.5715    0.5845 O   0  0  0  0  0  0  0  0  0  0  0  0
   -5.0996    3.4865    2.7226 C   0  0  0  0  0  0  0  0  0  0  0  0
   -4.8796    4.5629    2.6387 H   0  0  0  0  0  0  0  0  0  0  0  0
   -6.1861    3.4241    2.8954 H   0  0  0  0  0  0  0  0  0  0  0  0
   -4.6369    3.1693    3.6708 H   0  0  0  0  0  0  0  0  0  0  0  0
   -3.3731    2.2391    1.5790 N   0  0  0  0  0  0  0  0  0  0  0  0
   -2.7599    1.4751    0.5247 C   0  0  2  0  0  0  0  0  0  0  0  0
   -1.5143    0.8067    1.0915 C   0  0  0  0  0  0  0  0  0  0  0  0
   -0.9247    1.2213    2.0872 O   0  0  0  0  0  0  0  0  0  0  0  0
   -2.4106    2.3553   -0.6653 C   0  0  0  0  0  0  0  0  0  0  0  0
   -2.8254    2.4352    2.4150 H   0  0  0  0  0  0  0  0  0  0  0  0
   -3.4836    0.7082    0.2278 H   0  0  0  0  0  0  0  0  0  0  0  0
   -1.6866    3.1298   -0.3871 H   0  0  0  0  0  0  0  0  0  0  0  0
   -1.9704    1.7677   -1.4777 H   0  0  0  0  0  0  0  0  0  0  0  0
   -3.3030    2.8584   -1.0531 H   0  0  0  0  0  0  0  0  0  0  0  0
   -1.1107   -0.2839    0.3303 N   0  0  0  0  0  0  0  0  0  0  0  0
    0.0490   -1.0750    0.6539 C   0  0  2  0  0  0  0  0  0  0  0  0
    1.0508   -0.1598    1.3519 C   0  0  0  0  0  0  0  0  0  0  0  0
    1.0486    0.0344    2.5658 O   0  0  0  0  0  0  0  0  0  0  0  0
    0.6672   -1.7550   -0.5764 C   0  0  2  0  0  0  0  0  0  0  0  0
    1.0978   -0.7826   -1.5275 O   0  0  0  0  0  0  0  0  0  0  0  0
   -0.3158   -2.6865   -1.2752 C   0  0  0  0  0  0  0  0  0  0  0  0
   -1.6733   -0.5660   -0.4691 H   0  0  0  0  0  0  0  0  0  0  0  0
   -0.2837   -1.8337    1.3727 H   0  0  0  0  0  0  0  0  0  0  0  0
    1.5490   -2.3377   -0.2856 H   0  0  0  0  0  0  0  0  0  0  0  0
    1.5196   -1.2727   -2.2496 H   0  0  0  0  0  0  0  0  0  0  0  0
   -1.2195   -2.1525   -1.5882 H   0  0  0  0  0  0  0  0  0  0  0  0
   -0.6039   -3.5195   -0.6269 H   0  0  0  0  0  0  0  0  0  0  0  0
    0.1335   -3.0955   -2.1869 H   0  0  0  0  0  0  0  0  0  0  0  0
    1.9146    0.4517    0.4543 N   0  0  0  0  0  0  0  0  0  0  0  0
    2.9320    1.3884    0.8700 C   0  0  2  0  0  0  0  0  0  0  0  0
    4.1021    0.5925    1.4331 C   0  0  0  0  0  0  0  0  0  0  0  0
    3.9883   -0.5525    1.8657 O   0  0  0  0  0  0  0  0  0  0  0  0
    2.3942    2.3678    1.9016 C   0  0  0  0  0  0  0  0  0  0  0  0
    1.8278    0.2319   -0.5336 H   0  0  0  0  0  0  0  0  0  0  0  0
    3.2538    1.9254   -0.0289 H   0  0  0  0  0  0  0  0  0  0  0  0
    2.0669    1.8480    2.8094 H   0  0  0  0  0  0  0  0  0  0  0  0
    3.1586    3.0950    2.1946 H   0  0  0  0  0  0  0  0  0  0  0  0
    1.5341    2.9181    1.5052 H   0  0  0  0  0  0  0  0  0  0  0  0
    5.2797    1.3269    1.4356 N   0  0  0  0  0  0  0  0  0  0  0  0
    6.5280    0.7969    1.9324 C   0  0  0  0  0  0  0  0  0  0  0  0
    5.2860    2.2625    1.0401 H   0  0  0  0  0  0  0  0  0  0  0  0
    6.6415    1.0592    2.9946 H   0  0  0  0  0  0  0  0  0  0  0  0
    6.5310   -0.2976    1.8228 H   0  0  0  0  0  0  0  0  0  0  0  0
    7.3626    1.2252    1.3579 H   0  0  0  0  0  0  0  0  0  0  0  0
  1  3  1  0  0  0  0
  1  7  1  0  0  0  0
  1  2  2  0  0  0  0
 32 33  1  0  0  0  0
 33 41  1  0  0  0  0
 33 34  2  0  0  0  0
  8  9  1  0  0  0  0
  9 17  1  0  0  0  0
  9 10  2  0  0  0  0
 18 19  1  0  0  0  0
 19 31  1  0  0  0  0
 19 20  2  0  0  0  0
 32 35  1  0  0  0  0
  8 11  1  0  0  0  0
 21 23  1  0  0  0  0
 41 42  1  0  0  0  0
 31 32  1  0  0  0  0
  7  8  1  0  0  0  0
 18 21  1  0  0  0  0
 17 18  1  0  0  0  0
 21 22  1  0  0  0  0
  3  4  1  0  0  0  0
  3  5  1  0  0  0  0
  3  6  1  0  0  0  0
 35 38  1  0  0  0  0
 35 39  1  0  0  0  0
 35 40  1  0  0  0  0
 11 14  1  0  0  0  0
 11 15  1  0  0  0  0
 11 16  1  0  0  0  0
 23 28  1  0  0  0  0
 23 29  1  0  0  0  0
 23 30  1  0  0  0  0
 42 44  1  0  0  0  0
 42 45  1  0  0  0  0
 42 46  1  0  0  0  0
 32 37  1  0  0  0  0
  8 13  1  0  0  0  0
 18 25  1  0  0  0  0
 21 26  1  0  0  0  0
 41 43  1  0  0  0  0
  7 12  1  0  0  0  0
 31 36  1  0  0  0  0
 17 24  1  0  0  0  0
 22 27  1  0  0  0  0
M  END
$$$$

  -OEChem-05262214473D

 46 45  0     1  0  0  0  0  0999 V2000
   -4.6700    2.7214    1.5150 C   0  0  0  0  0  0  0  0  0  0  0  0
   -5.4532    2.5715    0.5845 O   0  0  0  0  0  0  0  0  0  0  0  0
   -5.0996    3.4865    2.7226 C   0  0  0  0  0  0  0  0  0  0  0  0
   -4.8796    4.5629    2.6387 H   0  0  0  0  0  0  0  0  0  0  0  0
   -6.1861    3.4241    2.8954 H   0  0  0  0  0  0  0  0  0  0  0  0
   -4.6369    3.1693    3.6708 H   0  0  0  0  0  0  0  0  0  0  0  0
   -3.3731    2.2391    1.5790 N   0  0  0  0  0  0  0  0  0  0  0  0
   -2.7599    1.4751    0.5247 C   0  0  2  0  0  0  0  0  0  0  0  0
   -1.5143    0.8067    1.0915 C   0  0  0  0  0  0  0  0  0  0  0  0
   -0.9247    1.2213    2.0872 O   0  0  0  0  0  0  0  0  0  0  0  0
   -2.4106    2.3553   -0.6653 C   0  0  0  0  0  0  0  0  0  0  0  0
   -2.8254    2.4352    2.4150 H   0  0  0  0  0  0  0  0  0  0  0  0
   -3.4836    0.7082    0.2278 H   0  0  0  0  0  0  0  0  0  0  0  0
   -1.6866    3.1298   -0.3871 H   0  0  0  0  0  0  0  0  0  0  0  0
   -1.9704    1.7677   -1.4777 H   0  0  0  0  0  0  0  0  0  0  0  0
   -3.3030    2.8584   -1.0531 H   0  0  0  0  0  0  0  0  0  0  0  0
   -1.1107   -0.2839    0.3303 N   0  0  0  0  0  0  0  0  0  0  0  0
    0.0490   -1.0750    0.6539 C   0  0  2  0  0  0  0  0  0  0  0  0
    1.0508   -0.1598    1.3519 C   0  0  0  0  0  0  0  0  0  0  0  0
    1.2291   -0.1650    2.5682 O   0  0  0  0  0  0  0  0  0  0  0  0
    0.6672   -1.7550   -0.5764 C   0  0  2  0  0  0  0  0  0  0  0  0
    1.0978   -0.7826   -1.5275 O   0  0  0  0  0  0  0  0  0  0  0  0
   -0.3158   -2.6865   -1.2752 C   0  0  0  0  0  0  0  0  0  0  0  0
   -1.6733   -0.5660   -0.4691 H   0  0  0  0  0  0  0  0  0  0  0  0
   -0.2837   -1.8337    1.3727 H   0  0  0  0  0  0  0  0  0  0  0  0
    1.5490   -2.3377   -0.2856 H   0  0  0  0  0  0  0  0  0  0  0  0
    1.5196   -1.2727   -2.2496 H   0  0  0  0  0  0  0  0  0  0  0  0
   -1.2195   -2.1525   -1.5882 H   0  0  0  0  0  0  0  0  0  0  0  0
   -0.6039   -3.5195   -0.6269 H   0  0  0  0  0  0  0  0  0  0  0  0
    0.1335   -3.0955   -2.1869 H   0  0  0  0  0  0  0  0  0  0  0  0
    1.6852    0.6963    0.4629 N   0  0  0  0  0  0  0  0  0  0  0  0
    2.6533    1.6799    0.8878 C   0  0  2  0  0  0  0  0  0  0  0  0
    3.9774    0.9652    1.1234 C   0  0  0  0  0  0  0  0  0  0  0  0
    4.0576   -0.2392    1.3555 O   0  0  0  0  0  0  0  0  0  0  0  0
    2.1938    2.4014    2.1451 C   0  0  0  0  0  0  0  0  0  0  0  0
    1.4597    0.6285   -0.5253 H   0  0  0  0  0  0  0  0  0  0  0  0
    2.7638    2.3920    0.0627 H   0  0  0  0  0  0  0  0  0  0  0  0
    2.0776    1.7041    2.9828 H   0  0  0  0  0  0  0  0  0  0  0  0
    2.9156    3.1665    2.4497 H   0  0  0  0  0  0  0  0  0  0  0  0
    1.2270    2.8900    1.9828 H   0  0  0  0  0  0  0  0  0  0  0  0
    5.0555    1.8384    1.0867 N   0  0  0  0  0  0  0  0  0  0  0  0
    6.4175    1.4047    1.2940 C   0  0  0  0  0  0  0  0  0  0  0  0
    4.8980    2.8179    0.8686 H   0  0  0  0  0  0  0  0  0  0  0  0
    6.6770    1.5057    2.3582 H   0  0  0  0  0  0  0  0  0  0  0  0
    6.5172    0.3521    0.9907 H   0  0  0  0  0  0  0  0  0  0  0  0
    7.0958    2.0260    0.6908 H   0  0  0  0  0  0  0  0  0  0  0  0
  1  3  1  0  0  0  0
  1  7  1  0  0  0  0
  1  2  2  0  0  0  0
 32 33  1  0  0  0  0
 33 41  1  0  0  0  0
 33 34  2  0  0  0  0
  8  9  1  0  0  0  0
  9 17  1  0  0  0  0
  9 10  2  0  0  0  0
 18 19  1  0  0  0  0
 19 31  1  0  0  0  0
 19 20  2  0  0  0  0
 32 35  1  0  0  0  0
  8 11  1  0  0  0  0
 21 23  1  0  0  0  0
 41 42  1  0  0  0  0
 31 32  1  0  0  0  0
  7  8  1  0  0  0  0
 18 21  1  0  0  0  0
 17 18  1  0  0  0  0
 21 22  1  0  0  0  0
  3  4  1  0  0  0  0
  3  5  1  0  0  0  0
  3  6  1  0  0  0  0
 35 38  1  0  0  0  0
 35 39  1  0  0  0  0
 35 40  1  0  0  0  0
 11 14  1  0  0  0  0
 11 15  1  0  0  0  0
 11 16  1  0  0  0  0
 23 28  1  0  0  0  0
 23 29  1  0  0  0  0
 23 30  1  0  0  0  0
 42 44  1  0  0  0  0
 42 45  1  0  0  0  0
 42 46  1  0  0  0  0
 32 37  1  0  0  0  0
  8 13  1  0  0  0  0
 18 25  1  0  0  0  0
 21 26  1  0  0  0  0
 41 43  1  0  0  0  0
  7 12  1  0  0  0  0
 31 36  1  0  0  0  0
 17 24  1  0  0  0  0
 22 27  1  0  0  0  0
M  END
$$$$

  -OEChem-05262214473D

 46 45  0     1  0  0  0  0  0999 V2000
   -4.6700    2.7214    1.5150 C   0  0  0  0  0  0  0  0  0  0  0  0
   -5.4532    2.5715    0.5845 O   0  0  0  0  0  0  0  0  0  0  0  0
   -5.0996    3.4865    2.7226 C   0  0  0  0  0  0  0  0  0  0  0  0
   -4.8796    4.5629    2.6387 H   0  0  0  0  0  0  0  0  0  0  0  0
   -6.1861    3.4241    2.8954 H   0  0  0  0  0  0  0  0  0  0  0  0
   -4.6369    3.1693    3.6708 H   0  0  0  0  0  0  0  0  0  0  0  0
   -3.3731    2.2391    1.5790 N   0  0  0  0  0  0  0  0  0  0  0  0
   -2.7599    1.4751    0.5247 C   0  0  2  0  0  0  0  0  0  0  0  0
   -1.5143    0.8067    1.0915 C   0  0  0  0  0  0  0  0  0  0  0  0
   -0.9247    1.2213    2.0872 O   0  0  0  0  0  0  0  0  0  0  0  0
   -2.4106    2.3553   -0.6653 C   0  0  0  0  0  0  0  0  0  0  0  0
   -2.8254    2.4352    2.4150 H   0  0  0  0  0  0  0  0  0  0  0  0
   -3.4836    0.7082    0.2278 H   0  0  0  0  0  0  0  0  0  0  0  0
   -1.6866    3.1298   -0.3871 H   0  0  0  0  0  0  0  0  0  0  0  0
   -1.9704    1.7677   -1.4777 H   0  0  0  0  0  0  0  0  0  0  0  0
   -3.3030    2.8584   -1.0531 H   0  0  0  0  0  0  0  0  0  0  0  0
   -1.1107   -0.2839    0.3303 N   0  0  0  0  0  0  0  0  0  0  0  0
    0.0490   -1.0750    0.6539 C   0  0  2  0  0  0  0  0  0  0  0  0
    1.0508   -0.1598    1.3519 C   0  0  0  0  0  0  0  0  0  0  0  0
    1.4275   -0.3367    2.5087 O   0  0  0  0  0  0  0  0  0  0  0  0
    0.6672   -1.7550   -0.5764 C   0  0  2  0  0  0  0  0  0  0  0  0
    1.0978   -0.7826   -1.5275 O   0  0  0  0  0  0  0  0  0  0  0  0
   -0.3158   -2.6865   -1.2752 C   0  0  0  0  0  0  0  0  0  0  0  0
   -1.6733   -0.5660   -0.4691 H   0  0  0  0  0  0  0  0  0  0  0  0
   -0.2837   -1.8337    1.3727 H   0  0  0  0  0  0  0  0  0  0  0  0
    1.5490   -2.3377   -0.2856 H   0  0  0  0  0  0  0  0  0  0  0  0
    1.5196   -1.2727   -2.2496 H   0  0  0  0  0  0  0  0  0  0  0  0
   -1.2195   -2.1525   -1.5882 H   0  0  0  0  0  0  0  0  0  0  0  0
   -0.6039   -3.5195   -0.6269 H   0  0  0  0  0  0  0  0  0  0  0  0
    0.1335   -3.0955   -2.1869 H   0  0  0  0  0  0  0  0  0  0  0  0
    1.4359    0.9040    0.5483 N   0  0  0  0  0  0  0  0  0  0  0  0
    2.3524    1.9255    0.9977 C   0  0  2  0  0  0  0  0  0  0  0  0
    3.7648    1.3631    0.9068 C   0  0  0  0  0  0  0  0  0  0  0  0
    4.0082    0.1582    0.9052 O   0  0  0  0  0  0  0  0  0  0  0  0
    2.0341    2.3688    2.4172 C   0  0  0  0  0  0  0  0  0  0  0  0
    1.0584    0.9666   -0.3927 H   0  0  0  0  0  0  0  0  0  0  0  0
    2.2494    2.7691    0.3065 H   0  0  0  0  0  0  0  0  0  0  0  0
    2.1319    1.5369    3.1241 H   0  0  0  0  0  0  0  0  0  0  0  0
    2.7119    3.1635    2.7461 H   0  0  0  0  0  0  0  0  0  0  0  0
    1.0079    2.7454    2.4870 H   0  0  0  0  0  0  0  0  0  0  0  0
    4.7243    2.3653    0.8714 N   0  0  0  0  0  0  0  0  0  0  0  0
    6.1396    2.0873    0.7979 C   0  0  0  0  0  0  0  0  0  0  0  0
    4.4309    3.3376    0.8576 H   0  0  0  0  0  0  0  0  0  0  0  0
    6.5596    2.0493    1.8139 H   0  0  0  0  0  0  0  0  0  0  0  0
    6.2977    1.1194    0.2996 H   0  0  0  0  0  0  0  0  0  0  0  0
    6.6398    2.8812    0.2239 H   0  0  0  0  0  0  0  0  0  0  0  0
  1  3  1  0  0  0  0
  1  7  1  0  0  0  0
  1  2  2  0  0  0  0
 32 33  1  0  0  0  0
 33 41  1  0  0  0  0
 33 34  2  0  0  0  0
  8  9  1  0  0  0  0
  9 17  1  0  0  0  0
  9 10  2  0  0  0  0
 18 19  1  0  0  0  0
 19 31  1  0  0  0  0
 19 20  2  0  0  0  0
 32 35  1  0  0  0  0
  8 11  1  0  0  0  0
 21 23  1  0  0  0  0
 41 42  1  0  0  0  0
 31 32  1  0  0  0  0
  7  8  1  0  0  0  0
 18 21  1  0  0  0  0
 17 18  1  0  0  0  0
 21 22  1  0  0  0  0
  3  4  1  0  0  0  0
  3  5  1  0  0  0  0
  3  6  1  0  0  0  0
 35 38  1  0  0  0  0
 35 39  1  0  0  0  0
 35 40  1  0  0  0  0
 11 14  1  0  0  0  0
 11 15  1  0  0  0  0
 11 16  1  0  0  0  0
 23 28  1  0  0  0  0
 23 29  1  0  0  0  0
 23 30  1  0  0  0  0
 42 44  1  0  0  0  0
 42 45  1  0  0  0  0
 42 46  1  0  0  0  0
 32 37  1  0  0  0  0
  8 13  1  0  0  0  0
 18 25  1  0  0  0  0
 21 26  1  0  0  0  0
 41 43  1  0  0  0  0
  7 12  1  0  0  0  0
 31 36  1  0  0  0  0
 17 24  1  0  0  0  0
 22 27  1  0  0  0  0
M  END
$$$$

  -OEChem-05262214473D

 46 45  0     1  0  0  0  0  0999 V2000
   -4.6700    2.7214    1.5150 C   0  0  0  0  0  0  0  0  0  0  0  0
   -5.4532    2.5715    0.5845 O   0  0  0  0  0  0  0  0  0  0  0  0
   -5.0996    3.4865    2.7226 C   0  0  0  0  0  0  0  0  0  0  0  0
   -4.8796    4.5629    2.6387 H   0  0  0  0  0  0  0  0  0  0  0  0
   -6.1861    3.4241    2.8954 H   0  0  0  0  0  0  0  0  0  0  0  0
   -4.6369    3.1693    3.6708 H   0  0  0  0  0  0  0  0  0  0  0  0
   -3.3731    2.2391    1.5790 N   0  0  0  0  0  0  0  0  0  0  0  0
   -2.7599    1.4751    0.5247 C   0  0  2  0  0  0  0  0  0  0  0  0
   -1.5143    0.8067    1.0915 C   0  0  0  0  0  0  0  0  0  0  0  0
   -0.9247    1.2213    2.0872 O   0  0  0  0  0  0  0  0  0  0  0  0
   -2.4106    2.3553   -0.6653 C   0  0  0  0  0  0  0  0  0  0  0  0
   -2.8254    2.4352    2.4150 H   0  0  0  0  0  0  0  0  0  0  0  0
   -3.4836    0.7082    0.2278 H   0  0  0  0  0  0  0  0  0  0  0  0
   -1.6866    3.1298   -0.3871 H   0  0  0  0  0  0  0  0  0  0  0  0
   -1.9704    1.7677   -1.4777 H   0  0  0  0  0  0  0  0  0  0  0  0
   -3.3030    2.8584   -1.0531 H   0  0  0  0  0  0  0  0  0  0  0  0
   -1.1107   -0.2839    0.3303 N   0  0  0  0  0  0  0  0  0  0  0  0
    0.0490   -1.0750    0.6539 C   0  0  2  0  0  0  0  0  0  0  0  0
    1.0508   -0.1598    1.3519 C   0  0  0  0  0  0  0  0  0  0  0  0
    1.6302   -0.4690    2.3911 O   0  0  0  0  0  0  0  0  0  0  0  0
    0.6672   -1.7550   -0.5764 C   0  0  2  0  0  0  0  0  0  0  0  0
    1.0978   -0.7826   -1.5275 O   0  0  0  0  0  0  0  0  0  0  0  0
   -0.3158   -2.6865   -1.2752 C   0  0  0  0  0  0  0  0  0  0  0  0
   -1.6733   -0.5660   -0.4691 H   0  0  0  0  0  0  0  0  0  0  0  0
   -0.2837   -1.8337    1.3727 H   0  0  0  0  0  0  0  0  0  0  0  0
    1.5490   -2.3377   -0.2856 H   0  0  0  0  0  0  0  0  0  0  0  0
    1.5196   -1.2727   -2.2496 H   0  0  0  0  0  0  0  0  0  0  0  0
   -1.2195   -2.1525   -1.5882 H   0  0  0  0  0  0  0  0  0  0  0  0
   -0.6039   -3.5195   -0.6269 H   0  0  0  0  0  0  0  0  0  0  0  0
    0.1335   -3.0955   -2.1869 H   0  0  0  0  0  0  0  0  0  0  0  0
    1.1838    1.0606    0.7048 N   0  0  0  0  0  0  0  0  0  0  0  0
    2.0496    2.1084    1.1923 C   0  0  2  0  0  0  0  0  0  0  0  0
    3.4787    1.7591    0.7983 C   0  0  0  0  0  0  0  0  0  0  0  0
    3.8436    0.6128    0.5454 O   0  0  0  0  0  0  0  0  0  0  0  0
    1.9258    2.2722    2.6992 C   0  0  0  0  0  0  0  0  0  0  0  0
    0.6513    1.2232   -0.1448 H   0  0  0  0  0  0  0  0  0  0  0  0
    1.7457    3.0310    0.6859 H   0  0  0  0  0  0  0  0  0  0  0  0
    2.2261    1.3578    3.2237 H   0  0  0  0  0  0  0  0  0  0  0  0
    2.5615    3.0860    3.0634 H   0  0  0  0  0  0  0  0  0  0  0  0
    0.8916    2.4941    2.9835 H   0  0  0  0  0  0  0  0  0  0  0  0
    4.3085    2.8715    0.8043 N   0  0  0  0  0  0  0  0  0  0  0  0
    5.7134    2.7979    0.4778 C   0  0  0  0  0  0  0  0  0  0  0  0
    3.9165    3.7862    1.0078 H   0  0  0  0  0  0  0  0  0  0  0  0
    6.2974    2.6531    1.3986 H   0  0  0  0  0  0  0  0  0  0  0  0
    5.8876    1.9521   -0.2035 H   0  0  0  0  0  0  0  0  0  0  0  0
    6.0256    3.7326   -0.0110 H   0  0  0  0  0  0  0  0  0  0  0  0
  1  3  1  0  0  0  0
  1  7  1  0  0  0  0
  1  2  2  0  0  0  0
 32 33  1  0  0  0  0
 33 41  1  0  0  0  0
 33 34  2  0  0  0  0
  8  9  1  0  0  0  0
  9 17  1  0  0  0  0
  9 10  2  0  0  0  0
 18 19  1  0  0  0  0
 19 31  1  0  0  0  0
 19 20  2  0  0  0  0
 32 35  1  0  0  0  0
  8 11  1  0  0  0  0
 21 23  1  0  0  0  0
 41 42  1  0  0  0  0
 31 32  1  0  0  0  0
  7  8  1  0  0  0  0
 18 21  1  0  0  0  0
 17 18  1  0  0  0  0
 21 22  1  0  0  0  0
  3  4  1  0  0  0  0
  3  5  1  0  0  0  0
  3  6  1  0  0  0  0
 35 38  1  0  0  0  0
 35 39  1  0  0  0  0
 35 40  1  0  0  0  0
 11 14  1  0  0  0  0
 11 15  1  0  0  0  0
 11 16  1  0  0  0  0
 23 28  1  0  0  0  0
 23 29  1  0  0  0  0
 23 30  1  0  0  0  0
 42 44  1  0  0  0  0
 42 45  1  0  0  0  0
 42 46  1  0  0  0  0
 32 37  1  0  0  0  0
  8 13  1  0  0  0  0
 18 25  1  0  0  0  0
 21 26  1  0  0  0  0
 41 43  1  0  0  0  0
  7 12  1  0  0  0  0
 31 36  1  0  0  0  0
 17 24  1  0  0  0  0
 22 27  1  0  0  0  0
M  END
$$$$

  -OEChem-05262214473D

 46 45  0     1  0  0  0  0  0999 V2000
   -4.6700    2.7214    1.5150 C   0  0  0  0  0  0  0  0  0  0  0  0
   -5.4532    2.5715    0.5845 O   0  0  0  0  0  0  0  0  0  0  0  0
   -5.0996    3.4865    2.7226 C   0  0  0  0  0  0  0  0  0  0  0  0
   -4.8796    4.5629    2.6387 H   0  0  0  0  0  0  0  0  0  0  0  0
   -6.1861    3.4241    2.8954 H   0  0  0  0  0  0  0  0  0  0  0  0
   -4.6369    3.1693    3.6708 H   0  0  0  0  0  0  0  0  0  0  0  0
   -3.3731    2.2391    1.5790 N   0  0  0  0  0  0  0  0  0  0  0  0
   -2.7599    1.4751    0.5247 C   0  0  2  0  0  0  0  0  0  0  0  0
   -1.5143    0.8067    1.0915 C   0  0  0  0  0  0  0  0  0  0  0  0
   -0.9247    1.2213    2.0872 O   0  0  0  0  0  0  0  0  0  0  0  0
   -2.4106    2.3553   -0.6653 C   0  0  0  0  0  0  0  0  0  0  0  0
   -2.8254    2.4352    2.4150 H   0  0  0  0  0  0  0  0  0  0  0  0
   -3.4836    0.7082    0.2278 H   0  0  0  0  0  0  0  0  0  0  0  0
   -1.6866    3.1298   -0.3871 H   0  0  0  0  0  0  0  0  0  0  0  0
   -1.9704    1.7677   -1.4777 H   0  0  0  0  0  0  0  0  0  0  0  0
   -3.3030    2.8584   -1.0531 H   0  0  0  0  0  0  0  0  0  0  0  0
   -1.1107   -0.2839    0.3303 N   0  0  0  0  0  0  0  0  0  0  0  0
    0.0490   -1.0750    0.6539 C   0  0  2  0  0  0  0  0  0  0  0  0
    1.0508   -0.1598    1.3519 C   0  0  0  0  0  0  0  0  0  0  0  0
    1.8234   -0.5527    2.2237 O   0  0  0  0  0  0  0  0  0  0  0  0
    0.6672   -1.7550   -0.5764 C   0  0  2  0  0  0  0  0  0  0  0  0
    1.0978   -0.7826   -1.5275 O   0  0  0  0  0  0  0  0  0  0  0  0
   -0.3158   -2.6865   -1.2752 C   0  0  0  0  0  0  0  0  0  0  0  0
   -1.6733   -0.5660   -0.4691 H   0  0  0  0  0  0  0  0  0  0  0  0
   -0.2837   -1.8337    1.3727 H   0  0  0  0  0  0  0  0  0  0  0  0
    1.5490   -2.3377   -0.2856 H   0  0  0  0  0  0  0  0  0  0  0  0
    1.5196   -1.2727   -2.2496 H   0  0  0  0  0  0  0  0  0  0  0  0
   -1.2195   -2.1525   -1.5882 H   0  0  0  0  0  0  0  0  0  0  0  0
   -0.6039   -3.5195   -0.6269 H   0  0  0  0  0  0  0  0  0  0  0  0
    0.1335   -3.0955   -2.1869 H   0  0  0  0  0  0  0  0  0  0  0  0
    0.9460    1.1554    0.9218 N   0  0  0  0  0  0  0  0  0  0  0  0
    1.7658    2.2162    1.4584 C   0  0  2  0  0  0  0  0  0  0  0  0
    3.1386    2.1261    0.8052 C   0  0  0  0  0  0  0  0  0  0  0  0
    3.5749    1.0936    0.3007 O   0  0  0  0  0  0  0  0  0  0  0  0
    1.8765    2.1181    2.9720 C   0  0  0  0  0  0  0  0  0  0  0  0
    0.2662    1.3807    0.2014 H   0  0  0  0  0  0  0  0  0  0  0  0
    1.2871    3.1600    1.1751 H   0  0  0  0  0  0  0  0  0  0  0  0
    2.3537    1.1790    3.2749 H   0  0  0  0  0  0  0  0  0  0  0  0
    2.4747    2.9395    3.3801 H   0  0  0  0  0  0  0  0  0  0  0  0
    0.8860    2.1532    3.4383 H   0  0  0  0  0  0  0  0  0  0  0  0
    3.8365    3.3227    0.8901 N   0  0  0  0  0  0  0  0  0  0  0  0
    5.1679    3.4883    0.3554 C   0  0  0  0  0  0  0  0  0  0  0  0
    3.3898    4.1331    1.3089 H   0  0  0  0  0  0  0  0  0  0  0  0
    5.9081    3.2757    1.1409 H   0  0  0  0  0  0  0  0  0  0  0  0
    5.3147    2.7932   -0.4844 H   0  0  0  0  0  0  0  0  0  0  0  0
    5.2951    4.5223    0.0022 H   0  0  0  0  0  0  0  0  0  0  0  0
  1  3  1  0  0  0  0
  1  7  1  0  0  0  0
  1  2  2  0  0  0  0
 32 33  1  0  0  0  0
 33 41  1  0  0  0  0
 33 34  2  0  0  0  0
  8  9  1  0  0  0  0
  9 17  1  0  0  0  0
  9 10  2  0  0  0  0
 18 19  1  0  0  0  0
 19 31  1  0  0  0  0
 19 20  2  0  0  0  0
 32 35  1  0  0  0  0
  8 11  1  0  0  0  0
 21 23  1  0  0  0  0
 41 42  1  0  0  0  0
 31 32  1  0  0  0  0
  7  8  1  0  0  0  0
 18 21  1  0  0  0  0
 17 18  1  0  0  0  0
 21 22  1  0  0  0  0
  3  4  1  0  0  0  0
  3  5  1  0  0  0  0
  3  6  1  0  0  0  0
 35 38  1  0  0  0  0
 35 39  1  0  0  0  0
 35 40  1  0  0  0  0
 11 14  1  0  0  0  0
 11 15  1  0  0  0  0
 11 16  1  0  0  0  0
 23 28  1  0  0  0  0
 23 29  1  0  0  0  0
 23 30  1  0  0  0  0
 42 44  1  0  0  0  0
 42 45  1  0  0  0  0
 42 46  1  0  0  0  0
 32 37  1  0  0  0  0
  8 13  1  0  0  0  0
 18 25  1  0  0  0  0
 21 26  1  0  0  0  0
 41 43  1  0  0  0  0
  7 12  1  0  0  0  0
 31 36  1  0  0  0  0
 17 24  1  0  0  0  0
 22 27  1  0  0  0  0
M  END
$$$$

  -OEChem-05262214473D

 46 45  0     1  0  0  0  0  0999 V2000
   -4.6700    2.7214    1.5150 C   0  0  0  0  0  0  0  0  0  0  0  0
   -5.4532    2.5715    0.5845 O   0  0  0  0  0  0  0  0  0  0  0  0
   -5.0996    3.4865    2.7226 C   0  0  0  0  0  0  0  0  0  0  0  0
   -4.8796    4.5629    2.6387 H   0  0  0  0  0  0  0  0  0  0  0  0
   -6.1861    3.4241    2.8954 H   0  0  0  0  0  0  0  0  0  0  0  0
   -4.6369    3.1693    3.6708 H   0  0  0  0  0  0  0  0  0  0  0  0
   -3.3731    2.2391    1.5790 N   0  0  0  0  0  0  0  0  0  0  0  0
   -2.7599    1.4751    0.5247 C   0  0  2  0  0  0  0  0  0  0  0  0
   -1.5143    0.8067    1.0915 C   0  0  0  0  0  0  0  0  0  0  0  0
   -0.9247    1.2213    2.0872 O   0  0  0  0  0  0  0  0  0  0  0  0
   -2.4106    2.3553   -0.6653 C   0  0  0  0  0  0  0  0  0  0  0  0
   -2.8254    2.4352    2.4150 H   0  0  0  0  0  0  0  0  0  0  0  0
   -3.4836    0.7082    0.2278 H   0  0  0  0  0  0  0  0  0  0  0  0
   -1.6866    3.1298   -0.3871 H   0  0  0  0  0  0  0  0  0  0  0  0
   -1.9704    1.7677   -1.4777 H   0  0  0  0  0  0  0  0  0  0  0  0
   -3.3030    2.8584   -1.0531 H   0  0  0  0  0  0  0  0  0  0  0  0
   -1.1107   -0.2839    0.3303 N   0  0  0  0  0  0  0  0  0  0  0  0
    0.0490   -1.0750    0.6539 C   0  0  2  0  0  0  0  0  0  0  0  0
    1.0508   -0.1598    1.3519 C   0  0  0  0  0  0  0  0  0  0  0  0
    1.9939   -0.5823    2.0178 O   0  0  0  0  0  0  0  0  0  0  0  0
    0.6672   -1.7550   -0.5764 C   0  0  2  0  0  0  0  0  0  0  0  0
    1.0978   -0.7826   -1.5275 O   0  0  0  0  0  0  0  0  0  0  0  0
   -0.3158   -2.6865   -1.2752 C   0  0  0  0  0  0  0  0  0  0  0  0
   -1.6733   -0.5660   -0.4691 H   0  0  0  0  0  0  0  0  0  0  0  0
   -0.2837   -1.8337    1.3727 H   0  0  0  0  0  0  0  0  0  0  0  0
    1.5490   -2.3377   -0.2856 H   0  0  0  0  0  0  0  0  0  0  0  0
    1.5196   -1.2727   -2.2496 H   0  0  0  0  0  0  0  0  0  0  0  0
   -1.2195   -2.1525   -1.5882 H   0  0  0  0  0  0  0  0  0  0  0  0
   -0.6039   -3.5195   -0.6269 H   0  0  0  0  0  0  0  0  0  0  0  0
    0.1335   -3.0955   -2.1869 H   0  0  0  0  0  0  0  0  0  0  0  0
    0.7388    1.1820    1.1843 N   0  0  0  0  0  0  0  0  0  0  0  0
    1.5201    2.2415    1.7779 C   0  0  2  0  0  0  0  0  0  0  0  0
    2.7677    2.4392    0.9270 C   0  0  0  0  0  0  0  0  0  0  0  0
    3.2204    1.5677    0.1877 O   0  0  0  0  0  0  0  0  0  0  0  0
    1.8895    1.9171    3.2170 C   0  0  0  0  0  0  0  0  0  0  0  0
   -0.0706    1.4284    0.6223 H   0  0  0  0  0  0  0  0  0  0  0  0
    0.9048    3.1471    1.7408 H   0  0  0  0  0  0  0  0  0  0  0  0
    2.5061    1.0127    3.2742 H   0  0  0  0  0  0  0  0  0  0  0  0
    2.4574    2.7339    3.6746 H   0  0  0  0  0  0  0  0  0  0  0  0
    0.9917    1.7460    3.8207 H   0  0  0  0  0  0  0  0  0  0  0  0
    3.3405    3.6880    1.1229 N   0  0  0  0  0  0  0  0  0  0  0  0
    4.5403    4.1114    0.4393 C   0  0  0  0  0  0  0  0  0  0  0  0
    2.8867    4.3546    1.7405 H   0  0  0  0  0  0  0  0  0  0  0  0
    5.4184    3.8749    1.0581 H   0  0  0  0  0  0  0  0  0  0  0  0
    4.6183    3.5857   -0.5238 H   0  0  0  0  0  0  0  0  0  0  0  0
    4.4980    5.1963    0.2625 H   0  0  0  0  0  0  0  0  0  0  0  0
  1  3  1  0  0  0  0
  1  7  1  0  0  0  0
  1  2  2  0  0  0  0
 32 33  1  0  0  0  0
 33 41  1  0  0  0  0
 33 34  2  0  0  0  0
  8  9  1  0  0  0  0
  9 17  1  0  0  0  0
  9 10  2  0  0  0  0
 18 19  1  0  0  0  0
 19 31  1  0  0  0  0
 19 20  2  0  0  0  0
 32 35  1  0  0  0  0
  8 11  1  0  0  0  0
 21 23  1  0  0  0  0
 41 42  1  0  0  0  0
 31 32  1  0  0  0  0
  7  8  1  0  0  0  0
 18 21  1  0  0  0  0
 17 18  1  0  0  0  0
 21 22  1  0  0  0  0
  3  4  1  0  0  0  0
  3  5  1  0  0  0  0
  3  6  1  0  0  0  0
 35 38  1  0  0  0  0
 35 39  1  0  0  0  0
 35 40  1  0  0  0  0
 11 14  1  0  0  0  0
 11 15  1  0  0  0  0
 11 16  1  0  0  0  0
 23 28  1  0  0  0  0
 23 29  1  0  0  0  0
 23 30  1  0  0  0  0
 42 44  1  0  0  0  0
 42 45  1  0  0  0  0
 42 46  1  0  0  0  0
 32 37  1  0  0  0  0
  8 13  1  0  0  0  0
 18 25  1  0  0  0  0
 21 26  1  0  0  0  0
 41 43  1  0  0  0  0
  7 12  1  0  0  0  0
 31 36  1  0  0  0  0
 17 24  1  0  0  0  0
 22 27  1  0  0  0  0
M  END
$$$$

  -OEChem-05262214473D

 46 45  0     1  0  0  0  0  0999 V2000
   -4.6700    2.7214    1.5150 C   0  0  0  0  0  0  0  0  0  0  0  0
   -5.4532    2.5715    0.5845 O   0  0  0  0  0  0  0  0  0  0  0  0
   -5.0996    3.4865    2.7226 C   0  0  0  0  0  0  0  0  0  0  0  0
   -4.8796    4.5629    2.6387 H   0  0  0  0  0  0  0  0  0  0  0  0
   -6.1861    3.4241    2.8954 H   0  0  0  0  0  0  0  0  0  0  0  0
   -4.6369    3.1693    3.6708 H   0  0  0  0  0  0  0  0  0  0  0  0
   -3.3731    2.2391    1.5790 N   0  0  0  0  0  0  0  0  0  0  0  0
   -2.7599    1.4751    0.5247 C   0  0  2  0  0  0  0  0  0  0  0  0
   -1.5143    0.8067    1.0915 C   0  0  0  0  0  0  0  0  0  0  0  0
   -0.9247    1.2213    2.0872 O   0  0  0  0  0  0  0  0  0  0  0  0
   -2.4106    2.3553   -0.6653 C   0  0  0  0  0  0  0  0  0  0  0  0
   -2.8254    2.4352    2.4150 H   0  0  0  0  0  0  0  0  0  0  0  0
   -3.4836    0.7082    0.2278 H   0  0  0  0  0  0  0  0  0  0  0  0
   -1.6866    3.1298   -0.3871 H   0  0  0  0  0  0  0  0  0  0  0  0
   -1.9704    1.7677   -1.4777 H   0  0  0  0  0  0  0  0  0  0  0  0
   -3.3030    2.8584   -1.0531 H   0  0  0  0  0  0  0  0  0  0  0  0
   -1.1107   -0.2839    0.3303 N   0  0  0  0  0  0  0  0  0  0  0  0
    0.0490   -1.0750    0.6539 C   0  0  2  0  0  0  0  0  0  0  0  0
    1.0508   -0.1598    1.3519 C   0  0  0  0  0  0  0  0  0  0  0  0
    2.1301   -0.5557    1.7873 O   0  0  0  0  0  0  0  0  0  0  0  0
    0.6672   -1.7550   -0.5764 C   0  0  2  0  0  0  0  0  0  0  0  0
    1.0978   -0.7826   -1.5275 O   0  0  0  0  0  0  0  0  0  0  0  0
   -0.3158   -2.6865   -1.2752 C   0  0  0  0  0  0  0  0  0  0  0  0
   -1.6733   -0.5660   -0.4691 H   0  0  0  0  0  0  0  0  0  0  0  0
   -0.2837   -1.8337    1.3727 H   0  0  0  0  0  0  0  0  0  0  0  0
    1.5490   -2.3377   -0.2856 H   0  0  0  0  0  0  0  0  0  0  0  0
    1.5196   -1.2727   -2.2496 H   0  0  0  0  0  0  0  0  0  0  0  0
   -1.2195   -2.1525   -1.5882 H   0  0  0  0  0  0  0  0  0  0  0  0
   -0.6039   -3.5195   -0.6269 H   0  0  0  0  0  0  0  0  0  0  0  0
    0.1335   -3.0955   -2.1869 H   0  0  0  0  0  0  0  0  0  0  0  0
    0.5763    1.1385    1.4746 N   0  0  0  0  0  0  0  0  0  0  0  0
    1.3294    2.1826    2.1288 C   0  0  2  0  0  0  0  0  0  0  0  0
    2.3913    2.6770    1.1554 C   0  0  0  0  0  0  0  0  0  0  0  0
    2.8044    2.0029    0.2141 O   0  0  0  0  0  0  0  0  0  0  0  0
    1.9638    1.6829    3.4174 C   0  0  0  0  0  0  0  0  0  0  0  0
   -0.3363    1.3631    1.0893 H   0  0  0  0  0  0  0  0  0  0  0  0
    0.6248    2.9932    2.3443 H   0  0  0  0  0  0  0  0  0  0  0  0
    2.6729    0.8703    3.2216 H   0  0  0  0  0  0  0  0  0  0  0  0
    2.5107    2.4832    3.9268 H   0  0  0  0  0  0  0  0  0  0  0  0
    1.2013    1.3002    4.1044 H   0  0  0  0  0  0  0  0  0  0  0  0
    2.8544    3.9426    1.4869 N   0  0  0  0  0  0  0  0  0  0  0  0
    3.8733    4.6247    0.7236 C   0  0  0  0  0  0  0  0  0  0  0  0
    2.4415    4.4357    2.2732 H   0  0  0  0  0  0  0  0  0  0  0  0
    4.8616    4.4097    1.1560 H   0  0  0  0  0  0  0  0  0  0  0  0
    3.8456    4.2754   -0.3191 H   0  0  0  0  0  0  0  0  0  0  0  0
    3.6887    5.7087    0.7522 H   0  0  0  0  0  0  0  0  0  0  0  0
  1  3  1  0  0  0  0
  1  7  1  0  0  0  0
  1  2  2  0  0  0  0
 32 33  1  0  0  0  0
 33 41  1  0  0  0  0
 33 34  2  0  0  0  0
  8  9  1  0  0  0  0
  9 17  1  0  0  0  0
  9 10  2  0  0  0  0
 18 19  1  0  0  0  0
 19 31  1  0  0  0  0
 19 20  2  0  0  0  0
 32 35  1  0  0  0  0
  8 11  1  0  0  0  0
 21 23  1  0  0  0  0
 41 42  1  0  0  0  0
 31 32  1  0  0  0  0
  7  8  1  0  0  0  0
 18 21  1  0  0  0  0
 17 18  1  0  0  0  0
 21 22  1  0  0  0  0
  3  4  1  0  0  0  0
  3  5  1  0  0  0  0
  3  6  1  0  0  0  0
 35 38  1  0  0  0  0
 35 39  1  0  0  0  0
 35 40  1  0  0  0  0
 11 14  1  0  0  0  0
 11 15  1  0  0  0  0
 11 16  1  0  0  0  0
 23 28  1  0  0  0  0
 23 29  1  0  0  0  0
 23 30  1  0  0  0  0
 42 44  1  0  0  0  0
 42 45  1  0  0  0  0
 42 46  1  0  0  0  0
 32 37  1  0  0  0  0
  8 13  1  0  0  0  0
 18 25  1  0  0  0  0
 21 26  1  0  0  0  0
 41 43  1  0  0  0  0
  7 12  1  0  0  0  0
 31 36  1  0  0  0  0
 17 24  1  0  0  0  0
 22 27  1  0  0  0  0
M  END
$$$$

  -OEChem-05262214473D

 46 45  0     1  0  0  0  0  0999 V2000
   -4.6700    2.7214    1.5150 C   0  0  0  0  0  0  0  0  0  0  0  0
   -5.4532    2.5715    0.5845 O   0  0  0  0  0  0  0  0  0  0  0  0
   -5.0996    3.4865    2.7226 C   0  0  0  0  0  0  0  0  0  0  0  0
   -4.8796    4.5629    2.6387 H   0  0  0  0  0  0  0  0  0  0  0  0
   -6.1861    3.4241    2.8954 H   0  0  0  0  0  0  0  0  0  0  0  0
   -4.6369    3.1693    3.6708 H   0  0  0  0  0  0  0  0  0  0  0  0
   -3.3731    2.2391    1.5790 N   0  0  0  0  0  0  0  0  0  0  0  0
   -2.7599    1.4751    0.5247 C   0  0  2  0  0  0  0  0  0  0  0  0
   -1.5143    0.8067    1.0915 C   0  0  0  0  0  0  0  0  0  0  0  0
   -0.9247    1.2213    2.0872 O   0  0  0  0  0  0  0  0  0  0  0  0
   -2.4106    2.3553   -0.6653 C   0  0  0  0  0  0  0  0  0  0  0  0
   -2.8254    2.4352    2.4150 H   0  0  0  0  0  0  0  0  0  0  0  0
   -3.4836    0.7082    0.2278 H   0  0  0  0  0  0  0  0  0  0  0  0
   -1.6866    3.1298   -0.3871 H   0  0  0  0  0  0  0  0  0  0  0  0
   -1.9704    1.7677   -1.4777 H   0  0  0  0  0  0  0  0  0  0  0  0
   -3.3030    2.8584   -1.0531 H   0  0  0  0  0  0  0  0  0  0  0  0
   -1.1107   -0.2839    0.3303 N   0  0  0  0  0  0  0  0  0  0  0  0
    0.0490   -1.0750    0.6539 C   0  0  2  0  0  0  0  0  0  0  0  0
    1.0508   -0.1598    1.3519 C   0  0  0  0  0  0  0  0  0  0  0  0
    2.2228   -0.4748    1.5481 O   0  0  0  0  0  0  0  0  0  0  0  0
    0.6672   -1.7550   -0.5764 C   0  0  2  0  0  0  0  0  0  0  0  0
    1.0978   -0.7826   -1.5275 O   0  0  0  0  0  0  0  0  0  0  0  0
   -0.3158   -2.6865   -1.2752 C   0  0  0  0  0  0  0  0  0  0  0  0
   -1.6733   -0.5660   -0.4691 H   0  0  0  0  0  0  0  0  0  0  0  0
   -0.2837   -1.8337    1.3727 H   0  0  0  0  0  0  0  0  0  0  0  0
    1.5490   -2.3377   -0.2856 H   0  0  0  0  0  0  0  0  0  0  0  0
    1.5196   -1.2727   -2.2496 H   0  0  0  0  0  0  0  0  0  0  0  0
   -1.2195   -2.1525   -1.5882 H   0  0  0  0  0  0  0  0  0  0  0  0
   -0.6039   -3.5195   -0.6269 H   0  0  0  0  0  0  0  0  0  0  0  0
    0.1335   -3.0955   -2.1869 H   0  0  0  0  0  0  0  0  0  0  0  0
    0.4695    1.0279    1.7729 N   0  0  0  0  0  0  0  0  0  0  0  0
    1.2067    2.0435    2.4874 C   0  0  2  0  0  0  0  0  0  0  0  0
    2.0350    2.8234    1.4749 C   0  0  0  0  0  0  0  0  0  0  0  0
    2.3551    2.3696    0.3782 O   0  0  0  0  0  0  0  0  0  0  0  0
    2.0945    1.4313    3.5597 C   0  0  0  0  0  0  0  0  0  0  0  0
   -0.5127    1.1892    1.5705 H   0  0  0  0  0  0  0  0  0  0  0  0
    0.4663    2.7089    2.9445 H   0  0  0  0  0  0  0  0  0  0  0  0
    2.8427    0.7614    3.1207 H   0  0  0  0  0  0  0  0  0  0  0  0
    2.6310    2.2045    4.1195 H   0  0  0  0  0  0  0  0  0  0  0  0
    1.5006    0.8462    4.2701 H   0  0  0  0  0  0  0  0  0  0  0  0
    2.4111    4.0692    1.9572 N   0  0  0  0  0  0  0  0  0  0  0  0
    3.2124    4.9932    1.1890 C   0  0  0  0  0  0  0  0  0  0  0  0
    2.0846    4.3708    2.8705 H   0  0  0  0  0  0  0  0  0  0  0  0
    4.2757    4.8437    1.4279 H   0  0  0  0  0  0  0  0  0  0  0  0
    3.0493    4.8153    0.1158 H   0  0  0  0  0  0  0  0  0  0  0  0
    2.9223    6.0246    1.4379 H   0  0  0  0  0  0  0  0  0  0  0  0
  1  3  1  0  0  0  0
  1  7  1  0  0  0  0
  1  2  2  0  0  0  0
 32 33  1  0  0  0  0
 33 41  1  0  0  0  0
 33 34  2  0  0  0  0
  8  9  1  0  0  0  0
  9 17  1  0  0  0  0
  9 10  2  0  0  0  0
 18 19  1  0  0  0  0
 19 31  1  0  0  0  0
 19 20  2  0  0  0  0
 32 35  1  0  0  0  0
  8 11  1  0  0  0  0
 21 23  1  0  0  0  0
 41 42  1  0  0  0  0
 31 32  1  0  0  0  0
  7  8  1  0  0  0  0
 18 21  1  0  0  0  0
 17 18  1  0  0  0  0
 21 22  1  0  0  0  0
  3  4  1  0  0  0  0
  3  5  1  0  0  0  0
  3  6  1  0  0  0  0
 35 38  1  0  0  0  0
 35 39  1  0  0  0  0
 35 40  1  0  0  0  0
 11 14  1  0  0  0  0
 11 15  1  0  0  0  0
 11 16  1  0  0  0  0
 23 28  1  0  0  0  0
 23 29  1  0  0  0  0
 23 30  1  0  0  0  0
 42 44  1  0  0  0  0
 42 45  1  0  0  0  0
 42 46  1  0  0  0  0
 32 37  1  0  0  0  0
  8 13  1  0  0  0  0
 18 25  1  0  0  0  0
 21 26  1  0  0  0  0
 41 43  1  0  0  0  0
  7 12  1  0  0  0  0
 31 36  1  0  0  0  0
 17 24  1  0  0  0  0
 22 27  1  0  0  0  0
M  END
$$$$

  -OEChem-05262214473D

 46 45  0     1  0  0  0  0  0999 V2000
   -4.6700    2.7214    1.5150 C   0  0  0  0  0  0  0  0  0  0  0  0
   -5.4532    2.5715    0.5845 O   0  0  0  0  0  0  0  0  0  0  0  0
   -5.0996    3.4865    2.7226 C   0  0  0  0  0  0  0  0  0  0  0  0
   -4.8796    4.5629    2.6387 H   0  0  0  0  0  0  0  0  0  0  0  0
   -6.1861    3.4241    2.8954 H   0  0  0  0  0  0  0  0  0  0  0  0
   -4.6369    3.1693    3.6708 H   0  0  0  0  0  0  0  0  0  0  0  0
   -3.3731    2.2391    1.5790 N   0  0  0  0  0  0  0  0  0  0  0  0
   -2.7599    1.4751    0.5247 C   0  0  2  0  0  0  0  0  0  0  0  0
   -1.5143    0.8067    1.0915 C   0  0  0  0  0  0  0  0  0  0  0  0
   -0.9247    1.2213    2.0872 O   0  0  0  0  0  0  0  0  0  0  0  0
   -2.4106    2.3553   -0.6653 C   0  0  0  0  0  0  0  0  0  0  0  0
   -2.8254    2.4352    2.4150 H   0  0  0  0  0  0  0  0  0  0  0  0
   -3.4836    0.7082    0.2278 H   0  0  0  0  0  0  0  0  0  0  0  0
   -1.6866    3.1298   -0.3871 H   0  0  0  0  0  0  0  0  0  0  0  0
   -1.9704    1.7677   -1.4777 H   0  0  0  0  0  0  0  0  0  0  0  0
   -3.3030    2.8584   -1.0531 H   0  0  0  0  0  0  0  0  0  0  0  0
   -1.1107   -0.2839    0.3303 N   0  0  0  0  0  0  0  0  0  0  0  0
    0.0490   -1.0750    0.6539 C   0  0  2  0  0  0  0  0  0  0  0  0
    1.0508   -0.1598    1.3519 C   0  0  0  0  0  0  0  0  0  0  0  0
    2.2656   -0.3449    1.3164 O   0  0  0  0  0  0  0  0  0  0  0  0
    0.6672   -1.7550   -0.5764 C   0  0  2  0  0  0  0  0  0  0  0  0
    1.0978   -0.7826   -1.5275 O   0  0  0  0  0  0  0  0  0  0  0  0
   -0.3158   -2.6865   -1.2752 C   0  0  0  0  0  0  0  0  0  0  0  0
   -1.6733   -0.5660   -0.4691 H   0  0  0  0  0  0  0  0  0  0  0  0
   -0.2837   -1.8337    1.3727 H   0  0  0  0  0  0  0  0  0  0  0  0
    1.5490   -2.3377   -0.2856 H   0  0  0  0  0  0  0  0  0  0  0  0
    1.5196   -1.2727   -2.2496 H   0  0  0  0  0  0  0  0  0  0  0  0
   -1.2195   -2.1525   -1.5882 H   0  0  0  0  0  0  0  0  0  0  0  0
   -0.6039   -3.5195   -0.6269 H   0  0  0  0  0  0  0  0  0  0  0  0
    0.1335   -3.0955   -2.1869 H   0  0  0  0  0  0  0  0  0  0  0  0
    0.4258    0.8578    2.0587 N   0  0  0  0  0  0  0  0  0  0  0  0
    1.1603    1.8336    2.8292 C   0  0  2  0  0  0  0  0  0  0  0  0
    1.7231    2.8682    1.8637 C   0  0  0  0  0  0  0  0  0  0  0  0
    1.9032    2.6426    0.6688 O   0  0  0  0  0  0  0  0  0  0  0  0
    2.2726    1.1797    3.6342 C   0  0  0  0  0  0  0  0  0  0  0  0
   -0.5879    0.9186    2.0332 H   0  0  0  0  0  0  0  0  0  0  0  0
    0.4401    2.3136    3.5007 H   0  0  0  0  0  0  0  0  0  0  0  0
    3.0040    0.6935    2.9783 H   0  0  0  0  0  0  0  0  0  0  0  0
    2.8102    1.9168    4.2397 H   0  0  0  0  0  0  0  0  0  0  0  0
    1.8691    0.4149    4.3066 H   0  0  0  0  0  0  0  0  0  0  0  0
    2.0410    4.0590    2.5018 N   0  0  0  0  0  0  0  0  0  0  0  0
    2.6026    5.1918    1.8037 C   0  0  0  0  0  0  0  0  0  0  0  0
    1.8403    4.1644    3.4919 H   0  0  0  0  0  0  0  0  0  0  0  0
    3.7005    5.1474    1.8552 H   0  0  0  0  0  0  0  0  0  0  0  0
    2.2838    5.1686    0.7512 H   0  0  0  0  0  0  0  0  0  0  0  0
    2.2510    6.1226    2.2729 H   0  0  0  0  0  0  0  0  0  0  0  0
  1  3  1  0  0  0  0
  1  7  1  0  0  0  0
  1  2  2  0  0  0  0
 32 33  1  0  0  0  0
 33 41  1  0  0  0  0
 33 34  2  0  0  0  0
  8  9  1  0  0  0  0
  9 17  1  0  0  0  0
  9 10  2  0  0  0  0
 18 19  1  0  0  0  0
 19 31  1  0  0  0  0
 19 20  2  0  0  0  0
 32 35  1  0  0  0  0
  8 11  1  0  0  0  0
 21 23  1  0  0  0  0
 41 42  1  0  0  0  0
 31 32  1  0  0  0  0
  7  8  1  0  0  0  0
 18 21  1  0  0  0  0
 17 18  1  0  0  0  0
 21 22  1  0  0  0  0
  3  4  1  0  0  0  0
  3  5  1  0  0  0  0
  3  6  1  0  0  0  0
 35 38  1  0  0  0  0
 35 39  1  0  0  0  0
 35 40  1  0  0  0  0
 11 14  1  0  0  0  0
 11 15  1  0  0  0  0
 11 16  1  0  0  0  0
 23 28  1  0  0  0  0
 23 29  1  0  0  0  0
 23 30  1  0  0  0  0
 42 44  1  0  0  0  0
 42 45  1  0  0  0  0
 42 46  1  0  0  0  0
 32 37  1  0  0  0  0
  8 13  1  0  0  0  0
 18 25  1  0  0  0  0
 21 26  1  0  0  0  0
 41 43  1  0  0  0  0
  7 12  1  0  0  0  0
 31 36  1  0  0  0  0
 17 24  1  0  0  0  0
 22 27  1  0  0  0  0
M  END
$$$$

  -OEChem-05262214473D

 46 45  0     1  0  0  0  0  0999 V2000
   -4.6700    2.7214    1.5150 C   0  0  0  0  0  0  0  0  0  0  0  0
   -5.4532    2.5715    0.5845 O   0  0  0  0  0  0  0  0  0  0  0  0
   -5.0996    3.4865    2.7226 C   0  0  0  0  0  0  0  0  0  0  0  0
   -4.8796    4.5629    2.6387 H   0  0  0  0  0  0  0  0  0  0  0  0
   -6.1861    3.4241    2.8954 H   0  0  0  0  0  0  0  0  0  0  0  0
   -4.6369    3.1693    3.6708 H   0  0  0  0  0  0  0  0  0  0  0  0
   -3.3731    2.2391    1.5790 N   0  0  0  0  0  0  0  0  0  0  0  0
   -2.7599    1.4751    0.5247 C   0  0  2  0  0  0  0  0  0  0  0  0
   -1.5143    0.8067    1.0915 C   0  0  0  0  0  0  0  0  0  0  0  0
   -0.9247    1.2213    2.0872 O   0  0  0  0  0  0  0  0  0  0  0  0
   -2.4106    2.3553   -0.6653 C   0  0  0  0  0  0  0  0  0  0  0  0
   -2.8254    2.4352    2.4150 H   0  0  0  0  0  0  0  0  0  0  0  0
   -3.4836    0.7082    0.2278 H   0  0  0  0  0  0  0  0  0  0  0  0
   -1.6866    3.1298   -0.3871 H   0  0  0  0  0  0  0  0  0  0  0  0
   -1.9704    1.7677   -1.4777 H   0  0  0  0  0  0  0  0  0  0  0  0
   -3.3030    2.8584   -1.0531 H   0  0  0  0  0  0  0  0  0  0  0  0
   -1.1107   -0.2839    0.3303 N   0  0  0  0  0  0  0  0  0  0  0  0
    0.0490   -1.0750    0.6539 C   0  0  2  0  0  0  0  0  0  0  0  0
    1.0508   -0.1598    1.3519 C   0  0  0  0  0  0  0  0  0  0  0  0
    2.2556   -0.1751    1.1080 O   0  0  0  0  0  0  0  0  0  0  0  0
    0.6672   -1.7550   -0.5764 C   0  0  2  0  0  0  0  0  0  0  0  0
    1.0978   -0.7826   -1.5275 O   0  0  0  0  0  0  0  0  0  0  0  0
   -0.3158   -2.6865   -1.2752 C   0  0  0  0  0  0  0  0  0  0  0  0
   -1.6733   -0.5660   -0.4691 H   0  0  0  0  0  0  0  0  0  0  0  0
   -0.2837   -1.8337    1.3727 H   0  0  0  0  0  0  0  0  0  0  0  0
    1.5490   -2.3377   -0.2856 H   0  0  0  0  0  0  0  0  0  0  0  0
    1.5196   -1.2727   -2.2496 H   0  0  0  0  0  0  0  0  0  0  0  0
   -1.2195   -2.1525   -1.5882 H   0  0  0  0  0  0  0  0  0  0  0  0
   -0.6039   -3.5195   -0.6269 H   0  0  0  0  0  0  0  0  0  0  0  0
    0.1335   -3.0955   -2.1869 H   0  0  0  0  0  0  0  0  0  0  0  0
    0.4481    0.6397    2.3127 N   0  0  0  0  0  0  0  0  0  0  0  0
    1.1934    1.5673    3.1308 C   0  0  2  0  0  0  0  0  0  0  0  0
    1.4769    2.8086    2.2952 C   0  0  0  0  0  0  0  0  0  0  0  0
    1.4795    2.8035    1.0660 O   0  0  0  0  0  0  0  0  0  0  0  0
    2.4859    0.9450    3.6356 C   0  0  0  0  0  0  0  0  0  0  0  0
   -0.5566    0.5697    2.4457 H   0  0  0  0  0  0  0  0  0  0  0  0
    0.5478    1.8341    3.9747 H   0  0  0  0  0  0  0  0  0  0  0  0
    3.1457    0.6711    2.8043 H   0  0  0  0  0  0  0  0  0  0  0  0
    3.0359    1.6397    4.2790 H   0  0  0  0  0  0  0  0  0  0  0  0
    2.2818    0.0358    4.2114 H   0  0  0  0  0  0  0  0  0  0  0  0
    1.7692    3.9129    3.0835 N   0  0  0  0  0  0  0  0  0  0  0  0
    2.0855    5.2071    2.5259 C   0  0  0  0  0  0  0  0  0  0  0  0
    1.7252    3.8305    4.0950 H   0  0  0  0  0  0  0  0  0  0  0  0
    3.1753    5.3001    2.4089 H   0  0  0  0  0  0  0  0  0  0  0  0
    1.6012    5.3114    1.5438 H   0  0  0  0  0  0  0  0  0  0  0  0
    1.7207    5.9958    3.2003 H   0  0  0  0  0  0  0  0  0  0  0  0
  1  3  1  0  0  0  0
  1  7  1  0  0  0  0
  1  2  2  0  0  0  0
 32 33  1  0  0  0  0
 33 41  1  0  0  0  0
 33 34  2  0  0  0  0
  8  9  1  0  0  0  0
  9 17  1  0  0  0  0
  9 10  2  0  0  0  0
 18 19  1  0  0  0  0
 19 31  1  0  0  0  0
 19 20  2  0  0  0  0
 32 35  1  0  0  0  0
  8 11  1  0  0  0  0
 21 23  1  0  0  0  0
 41 42  1  0  0  0  0
 31 32  1  0  0  0  0
  7  8  1  0  0  0  0
 18 21  1  0  0  0  0
 17 18  1  0  0  0  0
 21 22  1  0  0  0  0
  3  4  1  0  0  0  0
  3  5  1  0  0  0  0
  3  6  1  0  0  0  0
 35 38  1  0  0  0  0
 35 39  1  0  0  0  0
 35 40  1  0  0  0  0
 11 14  1  0  0  0  0
 11 15  1  0  0  0  0
 11 16  1  0  0  0  0
 23 28  1  0  0  0  0
 23 29  1  0  0  0  0
 23 30  1  0  0  0  0
 42 44  1  0  0  0  0
 42 45  1  0  0  0  0
 42 46  1  0  0  0  0
 32 37  1  0  0  0  0
  8 13  1  0  0  0  0
 18 25  1  0  0  0  0
 21 26  1  0  0  0  0
 41 43  1  0  0  0  0
  7 12  1  0  0  0  0
 31 36  1  0  0  0  0
 17 24  1  0  0  0  0
 22 27  1  0  0  0  0
M  END
$$$$

  -OEChem-05262214473D

 46 45  0     1  0  0  0  0  0999 V2000
   -4.6700    2.7214    1.5150 C   0  0  0  0  0  0  0  0  0  0  0  0
   -5.4532    2.5715    0.5845 O   0  0  0  0  0  0  0  0  0  0  0  0
   -5.0996    3.4865    2.7226 C   0  0  0  0  0  0  0  0  0  0  0  0
   -4.8796    4.5629    2.6387 H   0  0  0  0  0  0  0  0  0  0  0  0
   -6.1861    3.4241    2.8954 H   0  0  0  0  0  0  0  0  0  0  0  0
   -4.6369    3.1693    3.6708 H   0  0  0  0  0  0  0  0  0  0  0  0
   -3.3731    2.2391    1.5790 N   0  0  0  0  0  0  0  0  0  0  0  0
   -2.7599    1.4751    0.5247 C   0  0  2  0  0  0  0  0  0  0  0  0
   -1.5143    0.8067    1.0915 C   0  0  0  0  0  0  0  0  0  0  0  0
   -0.9247    1.2213    2.0872 O   0  0  0  0  0  0  0  0  0  0  0  0
   -2.4106    2.3553   -0.6653 C   0  0  0  0  0  0  0  0  0  0  0  0
   -2.8254    2.4352    2.4150 H   0  0  0  0  0  0  0  0  0  0  0  0
   -3.4836    0.7082    0.2278 H   0  0  0  0  0  0  0  0  0  0  0  0
   -1.6866    3.1298   -0.3871 H   0  0  0  0  0  0  0  0  0  0  0  0
   -1.9704    1.7677   -1.4777 H   0  0  0  0  0  0  0  0  0  0  0  0
   -3.3030    2.8584   -1.0531 H   0  0  0  0  0  0  0  0  0  0  0  0
   -1.1107   -0.2839    0.3303 N   0  0  0  0  0  0  0  0  0  0  0  0
    0.0490   -1.0750    0.6539 C   0  0  2  0  0  0  0  0  0  0  0  0
    1.0508   -0.1598    1.3519 C   0  0  0  0  0  0  0  0  0  0  0  0
    2.1935    0.0232    0.9372 O   0  0  0  0  0  0  0  0  0  0  0  0
    0.6672   -1.7550   -0.5764 C   0  0  2  0  0  0  0  0  0  0  0  0
    1.0978   -0.7826   -1.5275 O   0  0  0  0  0  0  0  0  0  0  0  0
   -0.3158   -2.6865   -1.2752 C   0  0  0  0  0  0  0  0  0  0  0  0
   -1.6733   -0.5660   -0.4691 H   0  0  0  0  0  0  0  0  0  0  0  0
   -0.2837   -1.8337    1.3727 H   0  0  0  0  0  0  0  0  0  0  0  0
    1.5490   -2.3377   -0.2856 H   0  0  0  0  0  0  0  0  0  0  0  0
    1.5196   -1.2727   -2.2496 H   0  0  0  0  0  0  0  0  0  0  0  0
   -1.2195   -2.1525   -1.5882 H   0  0  0  0  0  0  0  0  0  0  0  0
   -0.6039   -3.5195   -0.6269 H   0  0  0  0  0  0  0  0  0  0  0  0
    0.1335   -3.0955   -2.1869 H   0  0  0  0  0  0  0  0  0  0  0  0
    0.5348    0.3885    2.5176 N   0  0  0  0  0  0  0  0  0  0  0  0
    1.3037    1.2628    3.3719 C   0  0  2  0  0  0  0  0  0  0  0  0
    1.3131    2.6486    2.7402 C   0  0  0  0  0  0  0  0  0  0  0  0
    1.1128    2.8413    1.5428 O   0  0  0  0  0  0  0  0  0  0  0  0
    2.7200    0.7433    3.5641 C   0  0  0  0  0  0  0  0  0  0  0  0
   -0.4210    0.1663    2.7801 H   0  0  0  0  0  0  0  0  0  0  0  0
    0.7823    1.3031    4.3344 H   0  0  0  0  0  0  0  0  0  0  0  0
    3.2581    0.6959    2.6103 H   0  0  0  0  0  0  0  0  0  0  0  0
    3.2929    1.3920    4.2349 H   0  0  0  0  0  0  0  0  0  0  0  0
    2.7106   -0.2654    3.9909 H   0  0  0  0  0  0  0  0  0  0  0  0
    1.6143    3.6406    3.6628 N   0  0  0  0  0  0  0  0  0  0  0  0
    1.6964    5.0379    3.3064 C   0  0  0  0  0  0  0  0  0  0  0  0
    1.7471    3.3918    4.6386 H   0  0  0  0  0  0  0  0  0  0  0  0
    2.7359    5.2912    3.0511 H   0  0  0  0  0  0  0  0  0  0  0  0
    1.0480    5.2337    2.4397 H   0  0  0  0  0  0  0  0  0  0  0  0
    1.3674    5.6530    4.1569 H   0  0  0  0  0  0  0  0  0  0  0  0
  1  3  1  0  0  0  0
  1  7  1  0  0  0  0
  1  2  2  0  0  0  0
 32 33  1  0  0  0  0
 33 41  1  0  0  0  0
 33 34  2  0  0  0  0
  8  9  1  0  0  0  0
  9 17  1  0  0  0  0
  9 10  2  0  0  0  0
 18 19  1  0  0  0  0
 19 31  1  0  0  0  0
 19 20  2  0  0  0  0
 32 35  1  0  0  0  0
  8 11  1  0  0  0  0
 21 23  1  0  0  0  0
 41 42  1  0  0  0  0
 31 32  1  0  0  0  0
  7  8  1  0  0  0  0
 18 21  1  0  0  0  0
 17 18  1  0  0  0  0
 21 22  1  0  0  0  0
  3  4  1  0  0  0  0
  3  5  1  0  0  0  0
  3  6  1  0  0  0  0
 35 38  1  0  0  0  0
 35 39  1  0  0  0  0
 35 40  1  0  0  0  0
 11 14  1  0  0  0  0
 11 15  1  0  0  0  0
 11 16  1  0  0  0  0
 23 28  1  0  0  0  0
 23 29  1  0  0  0  0
 23 30  1  0  0  0  0
 42 44  1  0  0  0  0
 42 45  1  0  0  0  0
 42 46  1  0  0  0  0
 32 37  1  0  0  0  0
  8 13  1  0  0  0  0
 18 25  1  0  0  0  0
 21 26  1  0  0  0  0
 41 43  1  0  0  0  0
  7 12  1  0  0  0  0
 31 36  1  0  0  0  0
 17 24  1  0  0  0  0
 22 27  1  0  0  0  0
M  END
$$$$

  -OEChem-05262214473D

 46 45  0     1  0  0  0  0  0999 V2000
   -4.6700    2.7214    1.5150 C   0  0  0  0  0  0  0  0  0  0  0  0
   -5.4532    2.5715    0.5845 O   0  0  0  0  0  0  0  0  0  0  0  0
   -5.0996    3.4865    2.7226 C   0  0  0  0  0  0  0  0  0  0  0  0
   -4.8796    4.5629    2.6387 H   0  0  0  0  0  0  0  0  0  0  0  0
   -6.1861    3.4241    2.8954 H   0  0  0  0  0  0  0  0  0  0  0  0
   -4.6369    3.1693    3.6708 H   0  0  0  0  0  0  0  0  0  0  0  0
   -3.3731    2.2391    1.5790 N   0  0  0  0  0  0  0  0  0  0  0  0
   -2.7599    1.4751    0.5247 C   0  0  2  0  0  0  0  0  0  0  0  0
   -1.5143    0.8067    1.0915 C   0  0  0  0  0  0  0  0  0  0  0  0
   -0.9247    1.2213    2.0872 O   0  0  0  0  0  0  0  0  0  0  0  0
   -2.4106    2.3553   -0.6653 C   0  0  0  0  0  0  0  0  0  0  0  0
   -2.8254    2.4352    2.4150 H   0  0  0  0  0  0  0  0  0  0  0  0
   -3.4836    0.7082    0.2278 H   0  0  0  0  0  0  0  0  0  0  0  0
   -1.6866    3.1298   -0.3871 H   0  0  0  0  0  0  0  0  0  0  0  0
   -1.9704    1.7677   -1.4777 H   0  0  0  0  0  0  0  0  0  0  0  0
   -3.3030    2.8584   -1.0531 H   0  0  0  0  0  0  0  0  0  0  0  0
   -1.1107   -0.2839    0.3303 N   0  0  0  0  0  0  0  0  0  0  0  0
    0.0490   -1.0750    0.6539 C   0  0  2  0  0  0  0  0  0  0  0  0
    1.0508   -0.1598    1.3519 C   0  0  0  0  0  0  0  0  0  0  0  0
    2.0835    0.2365    0.8154 O   0  0  0  0  0  0  0  0  0  0  0  0
    0.6672   -1.7550   -0.5764 C   0  0  2  0  0  0  0  0  0  0  0  0
    1.0978   -0.7826   -1.5275 O   0  0  0  0  0  0  0  0  0  0  0  0
   -0.3158   -2.6865   -1.2752 C   0  0  0  0  0  0  0  0  0  0  0  0
   -1.6733   -0.5660   -0.4691 H   0  0  0  0  0  0  0  0  0  0  0  0
   -0.2837   -1.8337    1.3727 H   0  0  0  0  0  0  0  0  0  0  0  0
    1.5490   -2.3377   -0.2856 H   0  0  0  0  0  0  0  0  0  0  0  0
    1.5196   -1.2727   -2.2496 H   0  0  0  0  0  0  0  0  0  0  0  0
   -1.2195   -2.1525   -1.5882 H   0  0  0  0  0  0  0  0  0  0  0  0
   -0.6039   -3.5195   -0.6269 H   0  0  0  0  0  0  0  0  0  0  0  0
    0.1335   -3.0955   -2.1869 H   0  0  0  0  0  0  0  0  0  0  0  0
    0.6801    0.1214    2.6593 N   0  0  0  0  0  0  0  0  0  0  0  0
    1.4837    0.9407    3.5358 C   0  0  2  0  0  0  0  0  0  0  0  0
    1.2430    2.3989    3.1682 C   0  0  0  0  0  0  0  0  0  0  0  0
    0.8282    2.7533    2.0666 O   0  0  0  0  0  0  0  0  0  0  0  0
    2.9589    0.5884    3.4243 C   0  0  0  0  0  0  0  0  0  0  0  0
   -0.1903   -0.2642    3.0135 H   0  0  0  0  0  0  0  0  0  0  0  0
    1.1274    0.7569    4.5553 H   0  0  0  0  0  0  0  0  0  0  0  0
    3.3338    0.7661    2.4097 H   0  0  0  0  0  0  0  0  0  0  0  0
    3.5636    1.1908    4.1103 H   0  0  0  0  0  0  0  0  0  0  0  0
    3.1262   -0.4681    3.6602 H   0  0  0  0  0  0  0  0  0  0  0  0
    1.5868    3.2609    4.2001 N   0  0  0  0  0  0  0  0  0  0  0  0
    1.4617    4.6957    4.0919 C   0  0  0  0  0  0  0  0  0  0  0  0
    1.9047    2.8784    5.0858 H   0  0  0  0  0  0  0  0  0  0  0  0
    2.4122    5.1216    3.7382 H   0  0  0  0  0  0  0  0  0  0  0  0
    0.6618    4.9410    3.3777 H   0  0  0  0  0  0  0  0  0  0  0  0
    1.2152    5.1175    5.0774 H   0  0  0  0  0  0  0  0  0  0  0  0
  1  3  1  0  0  0  0
  1  7  1  0  0  0  0
  1  2  2  0  0  0  0
 32 33  1  0  0  0  0
 33 41  1  0  0  0  0
 33 34  2  0  0  0  0
  8  9  1  0  0  0  0
  9 17  1  0  0  0  0
  9 10  2  0  0  0  0
 18 19  1  0  0  0  0
 19 31  1  0  0  0  0
 19 20  2  0  0  0  0
 32 35  1  0  0  0  0
  8 11  1  0  0  0  0
 21 23  1  0  0  0  0
 41 42  1  0  0  0  0
 31 32  1  0  0  0  0
  7  8  1  0  0  0  0
 18 21  1  0  0  0  0
 17 18  1  0  0  0  0
 21 22  1  0  0  0  0
  3  4  1  0  0  0  0
  3  5  1  0  0  0  0
  3  6  1  0  0  0  0
 35 38  1  0  0  0  0
 35 39  1  0  0  0  0
 35 40  1  0  0  0  0
 11 14  1  0  0  0  0
 11 15  1  0  0  0  0
 11 16  1  0  0  0  0
 23 28  1  0  0  0  0
 23 29  1  0  0  0  0
 23 30  1  0  0  0  0
 42 44  1  0  0  0  0
 42 45  1  0  0  0  0
 42 46  1  0  0  0  0
 32 37  1  0  0  0  0
  8 13  1  0  0  0  0
 18 25  1  0  0  0  0
 21 26  1  0  0  0  0
 41 43  1  0  0  0  0
  7 12  1  0  0  0  0
 31 36  1  0  0  0  0
 17 24  1  0  0  0  0
 22 27  1  0  0  0  0
M  END
$$$$

  -OEChem-05262214473D

 46 45  0     1  0  0  0  0  0999 V2000
   -4.6700    2.7214    1.5150 C   0  0  0  0  0  0  0  0  0  0  0  0
   -5.4532    2.5715    0.5845 O   0  0  0  0  0  0  0  0  0  0  0  0
   -5.0996    3.4865    2.7226 C   0  0  0  0  0  0  0  0  0  0  0  0
   -4.8796    4.5629    2.6387 H   0  0  0  0  0  0  0  0  0  0  0  0
   -6.1861    3.4241    2.8954 H   0  0  0  0  0  0  0  0  0  0  0  0
   -4.6369    3.1693    3.6708 H   0  0  0  0  0  0  0  0  0  0  0  0
   -3.3731    2.2391    1.5790 N   0  0  0  0  0  0  0  0  0  0  0  0
   -2.7599    1.4751    0.5247 C   0  0  2  0  0  0  0  0  0  0  0  0
   -1.5143    0.8067    1.0915 C   0  0  0  0  0  0  0  0  0  0  0  0
   -0.9247    1.2213    2.0872 O   0  0  0  0  0  0  0  0  0  0  0  0
   -2.4106    2.3553   -0.6653 C   0  0  0  0  0  0  0  0  0  0  0  0
   -2.8254    2.4352    2.4150 H   0  0  0  0  0  0  0  0  0  0  0  0
   -3.4836    0.7082    0.2278 H   0  0  0  0  0  0  0  0  0  0  0  0
   -1.6866    3.1298   -0.3871 H   0  0  0  0  0  0  0  0  0  0  0  0
   -1.9704    1.7677   -1.4777 H   0  0  0  0  0  0  0  0  0  0  0  0
   -3.3030    2.8584   -1.0531 H   0  0  0  0  0  0  0  0  0  0  0  0
   -1.1107   -0.2839    0.3303 N   0  0  0  0  0  0  0  0  0  0  0  0
    0.0490   -1.0750    0.6539 C   0  0  2  0  0  0  0  0  0  0  0  0
    1.0508   -0.1598    1.3519 C   0  0  0  0  0  0  0  0  0  0  0  0
    1.9332    0.4501    0.7512 O   0  0  0  0  0  0  0  0  0  0  0  0
    0.6672   -1.7550   -0.5764 C   0  0  2  0  0  0  0  0  0  0  0  0
    1.0978   -0.7826   -1.5275 O   0  0  0  0  0  0  0  0  0  0  0  0
   -0.3158   -2.6865   -1.2752 C   0  0  0  0  0  0  0  0  0  0  0  0
   -1.6733   -0.5660   -0.4691 H   0  0  0  0  0  0  0  0  0  0  0  0
   -0.2837   -1.8337    1.3727 H   0  0  0  0  0  0  0  0  0  0  0  0
    1.5490   -2.3377   -0.2856 H   0  0  0  0  0  0  0  0  0  0  0  0
    1.5196   -1.2727   -2.2496 H   0  0  0  0  0  0  0  0  0  0  0  0
   -1.2195   -2.1525   -1.5882 H   0  0  0  0  0  0  0  0  0  0  0  0
   -0.6039   -3.5195   -0.6269 H   0  0  0  0  0  0  0  0  0  0  0  0
    0.1335   -3.0955   -2.1869 H   0  0  0  0  0  0  0  0  0  0  0  0
    0.8741   -0.1435    2.7282 N   0  0  0  0  0  0  0  0  0  0  0  0
    1.7211    0.6231    3.6115 C   0  0  2  0  0  0  0  0  0  0  0  0
    1.2712    2.0768    3.5501 C   0  0  0  0  0  0  0  0  0  0  0  0
    0.6450    2.5457    2.6019 O   0  0  0  0  0  0  0  0  0  0  0  0
    3.1863    0.4908    3.2259 C   0  0  0  0  0  0  0  0  0  0  0  0
    0.1196   -0.6923    3.1300 H   0  0  0  0  0  0  0  0  0  0  0  0
    1.5598    0.2326    4.6222 H   0  0  0  0  0  0  0  0  0  0  0  0
    3.3674    0.8769    2.2162 H   0  0  0  0  0  0  0  0  0  0  0  0
    3.8295    1.0496    3.9137 H   0  0  0  0  0  0  0  0  0  0  0  0
    3.5002   -0.5584    3.2418 H   0  0  0  0  0  0  0  0  0  0  0  0
    1.6886    2.7996    4.6589 N   0  0  0  0  0  0  0  0  0  0  0  0
    1.3974    4.2040    4.8289 C   0  0  0  0  0  0  0  0  0  0  0  0
    2.1870    2.3251    5.4060 H   0  0  0  0  0  0  0  0  0  0  0  0
    2.2263    4.8026    4.4233 H   0  0  0  0  0  0  0  0  0  0  0  0
    0.4692    4.4532    4.2939 H   0  0  0  0  0  0  0  0  0  0  0  0
    1.2745    4.4258    5.8993 H   0  0  0  0  0  0  0  0  0  0  0  0
  1  3  1  0  0  0  0
  1  7  1  0  0  0  0
  1  2  2  0  0  0  0
 32 33  1  0  0  0  0
 33 41  1  0  0  0  0
 33 34  2  0  0  0  0
  8  9  1  0  0  0  0
  9 17  1  0  0  0  0
  9 10  2  0  0  0  0
 18 19  1  0  0  0  0
 19 31  1  0  0  0  0
 19 20  2  0  0  0  0
 32 35  1  0  0  0  0
  8 11  1  0  0  0  0
 21 23  1  0  0  0  0
 41 42  1  0  0  0  0
 31 32  1  0  0  0  0
  7  8  1  0  0  0  0
 18 21  1  0  0  0  0
 17 18  1  0  0  0  0
 21 22  1  0  0  0  0
  3  4  1  0  0  0  0
  3  5  1  0  0  0  0
  3  6  1  0  0  0  0
 35 38  1  0  0  0  0
 35 39  1  0  0  0  0
 35 40  1  0  0  0  0
 11 14  1  0  0  0  0
 11 15  1  0  0  0  0
 11 16  1  0  0  0  0
 23 28  1  0  0  0  0
 23 29  1  0  0  0  0
 23 30  1  0  0  0  0
 42 44  1  0  0  0  0
 42 45  1  0  0  0  0
 42 46  1  0  0  0  0
 32 37  1  0  0  0  0
  8 13  1  0  0  0  0
 18 25  1  0  0  0  0
 21 26  1  0  0  0  0
 41 43  1  0  0  0  0
  7 12  1  0  0  0  0
 31 36  1  0  0  0  0
 17 24  1  0  0  0  0
 22 27  1  0  0  0  0
M  END
$$$$

  -OEChem-05262214473D

 46 45  0     1  0  0  0  0  0999 V2000
   -4.6700    2.7214    1.5150 C   0  0  0  0  0  0  0  0  0  0  0  0
   -5.4532    2.5715    0.5845 O   0  0  0  0  0  0  0  0  0  0  0  0
   -5.0996    3.4865    2.7226 C   0  0  0  0  0  0  0  0  0  0  0  0
   -4.8796    4.5629    2.6387 H   0  0  0  0  0  0  0  0  0  0  0  0
   -6.1861    3.4241    2.8954 H   0  0  0  0  0  0  0  0  0  0  0  0
   -4.6369    3.1693    3.6708 H   0  0  0  0  0  0  0  0  0  0  0  0
   -3.3731    2.2391    1.5790 N   0  0  0  0  0  0  0  0  0  0  0  0
   -2.7599    1.4751    0.5247 C   0  0  2  0  0  0  0  0  0  0  0  0
   -1.5143    0.8067    1.0915 C   0  0  0  0  0  0  0  0  0  0  0  0
   -0.9247    1.2213    2.0872 O   0  0  0  0  0  0  0  0  0  0  0  0
   -2.4106    2.3553   -0.6653 C   0  0  0  0  0  0  0  0  0  0  0  0
   -2.8254    2.4352    2.4150 H   0  0  0  0  0  0  0  0  0  0  0  0
   -3.4836    0.7082    0.2278 H   0  0  0  0  0  0  0  0  0  0  0  0
   -1.6866    3.1298   -0.3871 H   0  0  0  0  0  0  0  0  0  0  0  0
   -1.9704    1.7677   -1.4777 H   0  0  0  0  0  0  0  0  0  0  0  0
   -3.3030    2.8584   -1.0531 H   0  0  0  0  0  0  0  0  0  0  0  0
   -1.1107   -0.2839    0.3303 N   0  0  0  0  0  0  0  0  0  0  0  0
    0.0490   -1.0750    0.6539 C   0  0  2  0  0  0  0  0  0  0  0  0
    1.0508   -0.1598    1.3519 C   0  0  0  0  0  0  0  0  0  0  0  0
    1.7527    0.6495    0.7488 O   0  0  0  0  0  0  0  0  0  0  0  0
    0.6672   -1.7550   -0.5764 C   0  0  2  0  0  0  0  0  0  0  0  0
    1.0978   -0.7826   -1.5275 O   0  0  0  0  0  0  0  0  0  0  0  0
   -0.3158   -2.6865   -1.2752 C   0  0  0  0  0  0  0  0  0  0  0  0
   -1.6733   -0.5660   -0.4691 H   0  0  0  0  0  0  0  0  0  0  0  0
   -0.2837   -1.8337    1.3727 H   0  0  0  0  0  0  0  0  0  0  0  0
    1.5490   -2.3377   -0.2856 H   0  0  0  0  0  0  0  0  0  0  0  0
    1.5196   -1.2727   -2.2496 H   0  0  0  0  0  0  0  0  0  0  0  0
   -1.2195   -2.1525   -1.5882 H   0  0  0  0  0  0  0  0  0  0  0  0
   -0.6039   -3.5195   -0.6269 H   0  0  0  0  0  0  0  0  0  0  0  0
    0.1335   -3.0955   -2.1869 H   0  0  0  0  0  0  0  0  0  0  0  0
    1.1036   -0.3882    2.7196 N   0  0  0  0  0  0  0  0  0  0  0  0
    1.9999    0.3315    3.5937 C   0  0  2  0  0  0  0  0  0  0  0  0
    1.3959    1.7041    3.8598 C   0  0  0  0  0  0  0  0  0  0  0  0
    0.5757    2.2324    3.1121 O   0  0  0  0  0  0  0  0  0  0  0  0
    3.3867    0.4572    2.9824 C   0  0  0  0  0  0  0  0  0  0  0  0
    0.4878   -1.0889    3.1216 H   0  0  0  0  0  0  0  0  0  0  0  0
    2.0499   -0.2340    4.5306 H   0  0  0  0  0  0  0  0  0  0  0  0
    3.3566    1.0209    2.0429 H   0  0  0  0  0  0  0  0  0  0  0  0
    4.0726    0.9781    3.6586 H   0  0  0  0  0  0  0  0  0  0  0  0
    3.8073   -0.5304    2.7642 H   0  0  0  0  0  0  0  0  0  0  0  0
    1.9128    2.2881    5.0078 N   0  0  0  0  0  0  0  0  0  0  0  0
    1.5080    3.5961    5.4673 C   0  0  0  0  0  0  0  0  0  0  0  0
    2.5750    1.7696    5.5775 H   0  0  0  0  0  0  0  0  0  0  0  0
    2.1908    4.3561    5.0597 H   0  0  0  0  0  0  0  0  0  0  0  0
    0.4830    3.8035    5.1259 H   0  0  0  0  0  0  0  0  0  0  0  0
    1.5413    3.6251    6.5664 H   0  0  0  0  0  0  0  0  0  0  0  0
  1  3  1  0  0  0  0
  1  7  1  0  0  0  0
  1  2  2  0  0  0  0
 32 33  1  0  0  0  0
 33 41  1  0  0  0  0
 33 34  2  0  0  0  0
  8  9  1  0  0  0  0
  9 17  1  0  0  0  0
  9 10  2  0  0  0  0
 18 19  1  0  0  0  0
 19 31  1  0  0  0  0
 19 20  2  0  0  0  0
 32 35  1  0  0  0  0
  8 11  1  0  0  0  0
 21 23  1  0  0  0  0
 41 42  1  0  0  0  0
 31 32  1  0  0  0  0
  7  8  1  0  0  0  0
 18 21  1  0  0  0  0
 17 18  1  0  0  0  0
 21 22  1  0  0  0  0
  3  4  1  0  0  0  0
  3  5  1  0  0  0  0
  3  6  1  0  0  0  0
 35 38  1  0  0  0  0
 35 39  1  0  0  0  0
 35 40  1  0  0  0  0
 11 14  1  0  0  0  0
 11 15  1  0  0  0  0
 11 16  1  0  0  0  0
 23 28  1  0  0  0  0
 23 29  1  0  0  0  0
 23 30  1  0  0  0  0
 42 44  1  0  0  0  0
 42 45  1  0  0  0  0
 42 46  1  0  0  0  0
 32 37  1  0  0  0  0
  8 13  1  0  0  0  0
 18 25  1  0  0  0  0
 21 26  1  0  0  0  0
 41 43  1  0  0  0  0
  7 12  1  0  0  0  0
 31 36  1  0  0  0  0
 17 24  1  0  0  0  0
 22 27  1  0  0  0  0
M  END
$$$$

  -OEChem-05262214473D

 46 45  0     1  0  0  0  0  0999 V2000
   -4.6700    2.7214    1.5150 C   0  0  0  0  0  0  0  0  0  0  0  0
   -5.4532    2.5715    0.5845 O   0  0  0  0  0  0  0  0  0  0  0  0
   -5.0996    3.4865    2.7226 C   0  0  0  0  0  0  0  0  0  0  0  0
   -4.8796    4.5629    2.6387 H   0  0  0  0  0  0  0  0  0  0  0  0
   -6.1861    3.4241    2.8954 H   0  0  0  0  0  0  0  0  0  0  0  0
   -4.6369    3.1693    3.6708 H   0  0  0  0  0  0  0  0  0  0  0  0
   -3.3731    2.2391    1.5790 N   0  0  0  0  0  0  0  0  0  0  0  0
   -2.7599    1.4751    0.5247 C   0  0  2  0  0  0  0  0  0  0  0  0
   -1.5143    0.8067    1.0915 C   0  0  0  0  0  0  0  0  0  0  0  0
   -0.9247    1.2213    2.0872 O   0  0  0  0  0  0  0  0  0  0  0  0
   -2.4106    2.3553   -0.6653 C   0  0  0  0  0  0  0  0  0  0  0  0
   -2.8254    2.4352    2.4150 H   0  0  0  0  0  0  0  0  0  0  0  0
   -3.4836    0.7082    0.2278 H   0  0  0  0  0  0  0  0  0  0  0  0
   -1.6866    3.1298   -0.3871 H   0  0  0  0  0  0  0  0  0  0  0  0
   -1.9704    1.7677   -1.4777 H   0  0  0  0  0  0  0  0  0  0  0  0
   -3.3030    2.8584   -1.0531 H   0  0  0  0  0  0  0  0  0  0  0  0
   -1.1107   -0.2839    0.3303 N   0  0  0  0  0  0  0  0  0  0  0  0
    0.0490   -1.0750    0.6539 C   0  0  2  0  0  0  0  0  0  0  0  0
    1.0508   -0.1598    1.3519 C   0  0  0  0  0  0  0  0  0  0  0  0
    1.5543    0.8212    0.8083 O   0  0  0  0  0  0  0  0  0  0  0  0
    0.6672   -1.7550   -0.5764 C   0  0  2  0  0  0  0  0  0  0  0  0
    1.0978   -0.7826   -1.5275 O   0  0  0  0  0  0  0  0  0  0  0  0
   -0.3158   -2.6865   -1.2752 C   0  0  0  0  0  0  0  0  0  0  0  0
   -1.6733   -0.5660   -0.4691 H   0  0  0  0  0  0  0  0  0  0  0  0
   -0.2837   -1.8337    1.3727 H   0  0  0  0  0  0  0  0  0  0  0  0
    1.5490   -2.3377   -0.2856 H   0  0  0  0  0  0  0  0  0  0  0  0
    1.5196   -1.2727   -2.2496 H   0  0  0  0  0  0  0  0  0  0  0  0
   -1.2195   -2.1525   -1.5882 H   0  0  0  0  0  0  0  0  0  0  0  0
   -0.6039   -3.5195   -0.6269 H   0  0  0  0  0  0  0  0  0  0  0  0
    0.1335   -3.0955   -2.1869 H   0  0  0  0  0  0  0  0  0  0  0  0
    1.3529   -0.5959    2.6342 N   0  0  0  0  0  0  0  0  0  0  0  0
    2.3008    0.0859    3.4838 C   0  0  2  0  0  0  0  0  0  0  0  0
    1.6085    1.3062    4.0764 C   0  0  0  0  0  0  0  0  0  0  0  0
    0.6250    1.8350    3.5624 O   0  0  0  0  0  0  0  0  0  0  0  0
    3.5464    0.4898    2.7104 C   0  0  0  0  0  0  0  0  0  0  0  0
    0.8891   -1.4271    2.9890 H   0  0  0  0  0  0  0  0  0  0  0  0
    2.5643   -0.6111    4.2868 H   0  0  0  0  0  0  0  0  0  0  0  0
    3.3023    1.1881    1.9016 H   0  0  0  0  0  0  0  0  0  0  0  0
    4.2763    0.9811    3.3622 H   0  0  0  0  0  0  0  0  0  0  0  0
    4.0265   -0.3857    2.2600 H   0  0  0  0  0  0  0  0  0  0  0  0
    2.2441    1.7612    5.2231 N   0  0  0  0  0  0  0  0  0  0  0  0
    1.7858    2.9136    5.9634 C   0  0  0  0  0  0  0  0  0  0  0  0
    3.0421    1.2499    5.5885 H   0  0  0  0  0  0  0  0  0  0  0  0
    2.3082    3.8125    5.6040 H   0  0  0  0  0  0  0  0  0  0  0  0
    0.7025    3.0362    5.8171 H   0  0  0  0  0  0  0  0  0  0  0  0
    1.9973    2.7699    7.0333 H   0  0  0  0  0  0  0  0  0  0  0  0
  1  3  1  0  0  0  0
  1  7  1  0  0  0  0
  1  2  2  0  0  0  0
 32 33  1  0  0  0  0
 33 41  1  0  0  0  0
 33 34  2  0  0  0  0
  8  9  1  0  0  0  0
  9 17  1  0  0  0  0
  9 10  2  0  0  0  0
 18 19  1  0  0  0  0
 19 31  1  0  0  0  0
 19 20  2  0  0  0  0
 32 35  1  0  0  0  0
  8 11  1  0  0  0  0
 21 23  1  0  0  0  0
 41 42  1  0  0  0  0
 31 32  1  0  0  0  0
  7  8  1  0  0  0  0
 18 21  1  0  0  0  0
 17 18  1  0  0  0  0
 21 22  1  0  0  0  0
  3  4  1  0  0  0  0
  3  5  1  0  0  0  0
  3  6  1  0  0  0  0
 35 38  1  0  0  0  0
 35 39  1  0  0  0  0
 35 40  1  0  0  0  0
 11 14  1  0  0  0  0
 11 15  1  0  0  0  0
 11 16  1  0  0  0  0
 23 28  1  0  0  0  0
 23 29  1  0  0  0  0
 23 30  1  0  0  0  0
 42 44  1  0  0  0  0
 42 45  1  0  0  0  0
 42 46  1  0  0  0  0
 32 37  1  0  0  0  0
  8 13  1  0  0  0  0
 18 25  1  0  0  0  0
 21 26  1  0  0  0  0
 41 43  1  0  0  0  0
  7 12  1  0  0  0  0
 31 36  1  0  0  0  0
 17 24  1  0  0  0  0
 22 27  1  0  0  0  0
M  END
$$$$

  -OEChem-05262214473D

 46 45  0     1  0  0  0  0  0999 V2000
   -4.6700    2.7214    1.5150 C   0  0  0  0  0  0  0  0  0  0  0  0
   -5.4532    2.5715    0.5845 O   0  0  0  0  0  0  0  0  0  0  0  0
   -5.0996    3.4865    2.7226 C   0  0  0  0  0  0  0  0  0  0  0  0
   -4.8796    4.5629    2.6387 H   0  0  0  0  0  0  0  0  0  0  0  0
   -6.1861    3.4241    2.8954 H   0  0  0  0  0  0  0  0  0  0  0  0
   -4.6369    3.1693    3.6708 H   0  0  0  0  0  0  0  0  0  0  0  0
   -3.3731    2.2391    1.5790 N   0  0  0  0  0  0  0  0  0  0  0  0
   -2.7599    1.4751    0.5247 C   0  0  2  0  0  0  0  0  0  0  0  0
   -1.5143    0.8067    1.0915 C   0  0  0  0  0  0  0  0  0  0  0  0
   -0.9247    1.2213    2.0872 O   0  0  0  0  0  0  0  0  0  0  0  0
   -2.4106    2.3553   -0.6653 C   0  0  0  0  0  0  0  0  0  0  0  0
   -2.8254    2.4352    2.4150 H   0  0  0  0  0  0  0  0  0  0  0  0
   -3.4836    0.7082    0.2278 H   0  0  0  0  0  0  0  0  0  0  0  0
   -1.6866    3.1298   -0.3871 H   0  0  0  0  0  0  0  0  0  0  0  0
   -1.9704    1.7677   -1.4777 H   0  0  0  0  0  0  0  0  0  0  0  0
   -3.3030    2.8584   -1.0531 H   0  0  0  0  0  0  0  0  0  0  0  0
   -1.1107   -0.2839    0.3303 N   0  0  0  0  0  0  0  0  0  0  0  0
    0.0490   -1.0750    0.6539 C   0  0  2  0  0  0  0  0  0  0  0  0
    1.0508   -0.1598    1.3519 C   0  0  0  0  0  0  0  0  0  0  0  0
    1.3516    0.9534    0.9258 O   0  0  0  0  0  0  0  0  0  0  0  0
    0.6672   -1.7550   -0.5764 C   0  0  2  0  0  0  0  0  0  0  0  0
    1.0978   -0.7826   -1.5275 O   0  0  0  0  0  0  0  0  0  0  0  0
   -0.3158   -2.6865   -1.2752 C   0  0  0  0  0  0  0  0  0  0  0  0
   -1.6733   -0.5660   -0.4691 H   0  0  0  0  0  0  0  0  0  0  0  0
   -0.2837   -1.8337    1.3727 H   0  0  0  0  0  0  0  0  0  0  0  0
    1.5490   -2.3377   -0.2856 H   0  0  0  0  0  0  0  0  0  0  0  0
    1.5196   -1.2727   -2.2496 H   0  0  0  0  0  0  0  0  0  0  0  0
   -1.2195   -2.1525   -1.5882 H   0  0  0  0  0  0  0  0  0  0  0  0
   -0.6039   -3.5195   -0.6269 H   0  0  0  0  0  0  0  0  0  0  0  0
    0.1335   -3.0955   -2.1869 H   0  0  0  0  0  0  0  0  0  0  0  0
    1.6050   -0.7525    2.4777 N   0  0  0  0  0  0  0  0  0  0  0  0
    2.6036   -0.0970    3.2891 C   0  0  2  0  0  0  0  0  0  0  0  0
    1.8947    0.9102    4.1849 C   0  0  0  0  0  0  0  0  0  0  0  0
    0.7897    1.3804    3.9222 O   0  0  0  0  0  0  0  0  0  0  0  0
    3.6547    0.5864    2.4284 C   0  0  0  0  0  0  0  0  0  0  0  0
    1.2961   -1.6836    2.7412 H   0  0  0  0  0  0  0  0  0  0  0  0
    3.0679   -0.8730    3.9073 H   0  0  0  0  0  0  0  0  0  0  0  0
    3.2081    1.3672    1.8019 H   0  0  0  0  0  0  0  0  0  0  0  0
    4.4266    1.0586    3.0449 H   0  0  0  0  0  0  0  0  0  0  0  0
    4.1428   -0.1344    1.7636 H   0  0  0  0  0  0  0  0  0  0  0  0
    2.6599    1.2550    5.2902 N   0  0  0  0  0  0  0  0  0  0  0  0
    2.2120    2.2029    6.2836 C   0  0  0  0  0  0  0  0  0  0  0  0
    3.5566    0.8013    5.4383 H   0  0  0  0  0  0  0  0  0  0  0  0
    2.5705    3.2087    6.0192 H   0  0  0  0  0  0  0  0  0  0  0  0
    1.1126    2.2035    6.3202 H   0  0  0  0  0  0  0  0  0  0  0  0
    2.6115    1.9184    7.2681 H   0  0  0  0  0  0  0  0  0  0  0  0
  1  3  1  0  0  0  0
  1  7  1  0  0  0  0
  1  2  2  0  0  0  0
 32 33  1  0  0  0  0
 33 41  1  0  0  0  0
 33 34  2  0  0  0  0
  8  9  1  0  0  0  0
  9 17  1  0  0  0  0
  9 10  2  0  0  0  0
 18 19  1  0  0  0  0
 19 31  1  0  0  0  0
 19 20  2  0  0  0  0
 32 35  1  0  0  0  0
  8 11  1  0  0  0  0
 21 23  1  0  0  0  0
 41 42  1  0  0  0  0
 31 32  1  0  0  0  0
  7  8  1  0  0  0  0
 18 21  1  0  0  0  0
 17 18  1  0  0  0  0
 21 22  1  0  0  0  0
  3  4  1  0  0  0  0
  3  5  1  0  0  0  0
  3  6  1  0  0  0  0
 35 38  1  0  0  0  0
 35 39  1  0  0  0  0
 35 40  1  0  0  0  0
 11 14  1  0  0  0  0
 11 15  1  0  0  0  0
 11 16  1  0  0  0  0
 23 28  1  0  0  0  0
 23 29  1  0  0  0  0
 23 30  1  0  0  0  0
 42 44  1  0  0  0  0
 42 45  1  0  0  0  0
 42 46  1  0  0  0  0
 32 37  1  0  0  0  0
  8 13  1  0  0  0  0
 18 25  1  0  0  0  0
 21 26  1  0  0  0  0
 41 43  1  0  0  0  0
  7 12  1  0  0  0  0
 31 36  1  0  0  0  0
 17 24  1  0  0  0  0
 22 27  1  0  0  0  0
M  END
$$$$

  -OEChem-05262214473D

 46 45  0     1  0  0  0  0  0999 V2000
   -4.6700    2.7214    1.5150 C   0  0  0  0  0  0  0  0  0  0  0  0
   -5.4532    2.5715    0.5845 O   0  0  0  0  0  0  0  0  0  0  0  0
   -5.0996    3.4865    2.7226 C   0  0  0  0  0  0  0  0  0  0  0  0
   -4.8796    4.5629    2.6387 H   0  0  0  0  0  0  0  0  0  0  0  0
   -6.1861    3.4241    2.8954 H   0  0  0  0  0  0  0  0  0  0  0  0
   -4.6369    3.1693    3.6708 H   0  0  0  0  0  0  0  0  0  0  0  0
   -3.3731    2.2391    1.5790 N   0  0  0  0  0  0  0  0  0  0  0  0
   -2.7599    1.4751    0.5247 C   0  0  2  0  0  0  0  0  0  0  0  0
   -1.5143    0.8067    1.0915 C   0  0  0  0  0  0  0  0  0  0  0  0
   -0.9247    1.2213    2.0872 O   0  0  0  0  0  0  0  0  0  0  0  0
   -2.4106    2.3553   -0.6653 C   0  0  0  0  0  0  0  0  0  0  0  0
   -2.8254    2.4352    2.4150 H   0  0  0  0  0  0  0  0  0  0  0  0
   -3.4836    0.7082    0.2278 H   0  0  0  0  0  0  0  0  0  0  0  0
   -1.6866    3.1298   -0.3871 H   0  0  0  0  0  0  0  0  0  0  0  0
   -1.9704    1.7677   -1.4777 H   0  0  0  0  0  0  0  0  0  0  0  0
   -3.3030    2.8584   -1.0531 H   0  0  0  0  0  0  0  0  0  0  0  0
   -1.1107   -0.2839    0.3303 N   0  0  0  0  0  0  0  0  0  0  0  0
    0.0490   -1.0750    0.6539 C   0  0  2  0  0  0  0  0  0  0  0  0
    1.0508   -0.1598    1.3519 C   0  0  0  0  0  0  0  0  0  0  0  0
    1.1584    1.0372    1.0933 O   0  0  0  0  0  0  0  0  0  0  0  0
    0.6672   -1.7550   -0.5764 C   0  0  2  0  0  0  0  0  0  0  0  0
    1.0978   -0.7826   -1.5275 O   0  0  0  0  0  0  0  0  0  0  0  0
   -0.3158   -2.6865   -1.2752 C   0  0  0  0  0  0  0  0  0  0  0  0
   -1.6733   -0.5660   -0.4691 H   0  0  0  0  0  0  0  0  0  0  0  0
   -0.2837   -1.8337    1.3727 H   0  0  0  0  0  0  0  0  0  0  0  0
    1.5490   -2.3377   -0.2856 H   0  0  0  0  0  0  0  0  0  0  0  0
    1.5196   -1.2727   -2.2496 H   0  0  0  0  0  0  0  0  0  0  0  0
   -1.2195   -2.1525   -1.5882 H   0  0  0  0  0  0  0  0  0  0  0  0
   -0.6039   -3.5195   -0.6269 H   0  0  0  0  0  0  0  0  0  0  0  0
    0.1335   -3.0955   -2.1869 H   0  0  0  0  0  0  0  0  0  0  0  0
    1.8427   -0.8473    2.2607 N   0  0  0  0  0  0  0  0  0  0  0  0
    2.8874   -0.2048    3.0230 C   0  0  2  0  0  0  0  0  0  0  0  0
    2.2347    0.5432    4.1780 C   0  0  0  0  0  0  0  0  0  0  0  0
    1.0583    0.8996    4.1669 O   0  0  0  0  0  0  0  0  0  0  0  0
    3.7040    0.7404    2.1556 C   0  0  0  0  0  0  0  0  0  0  0  0
    1.6812   -1.8411    2.3950 H   0  0  0  0  0  0  0  0  0  0  0  0
    3.5265   -1.0020    3.4181 H   0  0  0  0  0  0  0  0  0  0  0  0
    3.0805    1.5459    1.7507 H   0  0  0  0  0  0  0  0  0  0  0  0
    4.5134    1.2051    2.7282 H   0  0  0  0  0  0  0  0  0  0  0  0
    4.1483    0.2064    1.3087 H   0  0  0  0  0  0  0  0  0  0  0  0
    3.1319    0.8038    5.2044 N   0  0  0  0  0  0  0  0  0  0  0  0
    2.7575    1.5125    6.4059 C   0  0  0  0  0  0  0  0  0  0  0  0
    4.0833    0.4545    5.1372 H   0  0  0  0  0  0  0  0  0  0  0  0
    2.9597    2.5861    6.2770 H   0  0  0  0  0  0  0  0  0  0  0  0
    1.6854    1.3623    6.6011 H   0  0  0  0  0  0  0  0  0  0  0  0
    3.3421    1.1288    7.2550 H   0  0  0  0  0  0  0  0  0  0  0  0
  1  3  1  0  0  0  0
  1  7  1  0  0  0  0
  1  2  2  0  0  0  0
 32 33  1  0  0  0  0
 33 41  1  0  0  0  0
 33 34  2  0  0  0  0
  8  9  1  0  0  0  0
  9 17  1  0  0  0  0
  9 10  2  0  0  0  0
 18 19  1  0  0  0  0
 19 31  1  0  0  0  0
 19 20  2  0  0  0  0
 32 35  1  0  0  0  0
  8 11  1  0  0  0  0
 21 23  1  0  0  0  0
 41 42  1  0  0  0  0
 31 32  1  0  0  0  0
  7  8  1  0  0  0  0
 18 21  1  0  0  0  0
 17 18  1  0  0  0  0
 21 22  1  0  0  0  0
  3  4  1  0  0  0  0
  3  5  1  0  0  0  0
  3  6  1  0  0  0  0
 35 38  1  0  0  0  0
 35 39  1  0  0  0  0
 35 40  1  0  0  0  0
 11 14  1  0  0  0  0
 11 15  1  0  0  0  0
 11 16  1  0  0  0  0
 23 28  1  0  0  0  0
 23 29  1  0  0  0  0
 23 30  1  0  0  0  0
 42 44  1  0  0  0  0
 42 45  1  0  0  0  0
 42 46  1  0  0  0  0
 32 37  1  0  0  0  0
  8 13  1  0  0  0  0
 18 25  1  0  0  0  0
 21 26  1  0  0  0  0
 41 43  1  0  0  0  0
  7 12  1  0  0  0  0
 31 36  1  0  0  0  0
 17 24  1  0  0  0  0
 22 27  1  0  0  0  0
M  END
$$$$

  -OEChem-05262214473D

 46 45  0     1  0  0  0  0  0999 V2000
   -4.6700    2.7214    1.5150 C   0  0  0  0  0  0  0  0  0  0  0  0
   -5.4532    2.5715    0.5845 O   0  0  0  0  0  0  0  0  0  0  0  0
   -5.0996    3.4865    2.7226 C   0  0  0  0  0  0  0  0  0  0  0  0
   -4.8796    4.5629    2.6387 H   0  0  0  0  0  0  0  0  0  0  0  0
   -6.1861    3.4241    2.8954 H   0  0  0  0  0  0  0  0  0  0  0  0
   -4.6369    3.1693    3.6708 H   0  0  0  0  0  0  0  0  0  0  0  0
   -3.3731    2.2391    1.5790 N   0  0  0  0  0  0  0  0  0  0  0  0
   -2.7599    1.4751    0.5247 C   0  0  2  0  0  0  0  0  0  0  0  0
   -1.5143    0.8067    1.0915 C   0  0  0  0  0  0  0  0  0  0  0  0
   -0.9247    1.2213    2.0872 O   0  0  0  0  0  0  0  0  0  0  0  0
   -2.4106    2.3553   -0.6653 C   0  0  0  0  0  0  0  0  0  0  0  0
   -2.8254    2.4352    2.4150 H   0  0  0  0  0  0  0  0  0  0  0  0
   -3.4836    0.7082    0.2278 H   0  0  0  0  0  0  0  0  0  0  0  0
   -1.6866    3.1298   -0.3871 H   0  0  0  0  0  0  0  0  0  0  0  0
   -1.9704    1.7677   -1.4777 H   0  0  0  0  0  0  0  0  0  0  0  0
   -3.3030    2.8584   -1.0531 H   0  0  0  0  0  0  0  0  0  0  0  0
   -1.1107   -0.2839    0.3303 N   0  0  0  0  0  0  0  0  0  0  0  0
    0.0490   -1.0750    0.6539 C   0  0  2  0  0  0  0  0  0  0  0  0
    1.0508   -0.1598    1.3519 C   0  0  0  0  0  0  0  0  0  0  0  0
    0.9879    1.0668    1.2992 O   0  0  0  0  0  0  0  0  0  0  0  0
    0.6672   -1.7550   -0.5764 C   0  0  2  0  0  0  0  0  0  0  0  0
    1.0978   -0.7826   -1.5275 O   0  0  0  0  0  0  0  0  0  0  0  0
   -0.3158   -2.6865   -1.2752 C   0  0  0  0  0  0  0  0  0  0  0  0
   -1.6733   -0.5660   -0.4691 H   0  0  0  0  0  0  0  0  0  0  0  0
   -0.2837   -1.8337    1.3727 H   0  0  0  0  0  0  0  0  0  0  0  0
    1.5490   -2.3377   -0.2856 H   0  0  0  0  0  0  0  0  0  0  0  0
    1.5196   -1.2727   -2.2496 H   0  0  0  0  0  0  0  0  0  0  0  0
   -1.2195   -2.1525   -1.5882 H   0  0  0  0  0  0  0  0  0  0  0  0
   -0.6039   -3.5195   -0.6269 H   0  0  0  0  0  0  0  0  0  0  0  0
    0.1335   -3.0955   -2.1869 H   0  0  0  0  0  0  0  0  0  0  0  0
    2.0499   -0.8738    1.9982 N   0  0  0  0  0  0  0  0  0  0  0  0
    3.1331   -0.2301    2.7036 C   0  0  2  0  0  0  0  0  0  0  0  0
    2.6056    0.2301    4.0562 C   0  0  0  0  0  0  0  0  0  0  0  0
    1.4128    0.4255    4.2799 O   0  0  0  0  0  0  0  0  0  0  0  0
    3.6910    0.9415    1.9106 C   0  0  0  0  0  0  0  0  0  0  0  0
    2.0181   -1.8888    1.9741 H   0  0  0  0  0  0  0  0  0  0  0  0
    3.9088   -0.9891    2.8525 H   0  0  0  0  0  0  0  0  0  0  0  0
    2.9281    1.7122    1.7514 H   0  0  0  0  0  0  0  0  0  0  0  0
    4.5308    1.4107    2.4337 H   0  0  0  0  0  0  0  0  0  0  0  0
    4.0426    0.6137    0.9264 H   0  0  0  0  0  0  0  0  0  0  0  0
    3.6278    0.4385    4.9716 N   0  0  0  0  0  0  0  0  0  0  0  0
    3.3851    0.8895    6.3220 C   0  0  0  0  0  0  0  0  0  0  0  0
    4.5863    0.2329    4.7056 H   0  0  0  0  0  0  0  0  0  0  0  0
    3.4494    1.9869    6.3598 H   0  0  0  0  0  0  0  0  0  0  0  0
    2.3819    0.5699    6.6405 H   0  0  0  0  0  0  0  0  0  0  0  0
    4.1392    0.4548    6.9947 H   0  0  0  0  0  0  0  0  0  0  0  0
  1  3  1  0  0  0  0
  1  7  1  0  0  0  0
  1  2  2  0  0  0  0
 32 33  1  0  0  0  0
 33 41  1  0  0  0  0
 33 34  2  0  0  0  0
  8  9  1  0  0  0  0
  9 17  1  0  0  0  0
  9 10  2  0  0  0  0
 18 19  1  0  0  0  0
 19 31  1  0  0  0  0
 19 20  2  0  0  0  0
 32 35  1  0  0  0  0
  8 11  1  0  0  0  0
 21 23  1  0  0  0  0
 41 42  1  0  0  0  0
 31 32  1  0  0  0  0
  7  8  1  0  0  0  0
 18 21  1  0  0  0  0
 17 18  1  0  0  0  0
 21 22  1  0  0  0  0
  3  4  1  0  0  0  0
  3  5  1  0  0  0  0
  3  6  1  0  0  0  0
 35 38  1  0  0  0  0
 35 39  1  0  0  0  0
 35 40  1  0  0  0  0
 11 14  1  0  0  0  0
 11 15  1  0  0  0  0
 11 16  1  0  0  0  0
 23 28  1  0  0  0  0
 23 29  1  0  0  0  0
 23 30  1  0  0  0  0
 42 44  1  0  0  0  0
 42 45  1  0  0  0  0
 42 46  1  0  0  0  0
 32 37  1  0  0  0  0
  8 13  1  0  0  0  0
 18 25  1  0  0  0  0
 21 26  1  0  0  0  0
 41 43  1  0  0  0  0
  7 12  1  0  0  0  0
 31 36  1  0  0  0  0
 17 24  1  0  0  0  0
 22 27  1  0  0  0  0
M  END
$$$$

  -OEChem-05262214473D

 46 45  0     1  0  0  0  0  0999 V2000
   -4.6700    2.7214    1.5150 C   0  0  0  0  0  0  0  0  0  0  0  0
   -5.4532    2.5715    0.5845 O   0  0  0  0  0  0  0  0  0  0  0  0
   -5.0996    3.4865    2.7226 C   0  0  0  0  0  0  0  0  0  0  0  0
   -4.8796    4.5629    2.6387 H   0  0  0  0  0  0  0  0  0  0  0  0
   -6.1861    3.4241    2.8954 H   0  0  0  0  0  0  0  0  0  0  0  0
   -4.6369    3.1693    3.6708 H   0  0  0  0  0  0  0  0  0  0  0  0
   -3.3731    2.2391    1.5790 N   0  0  0  0  0  0  0  0  0  0  0  0
   -2.7599    1.4751    0.5247 C   0  0  2  0  0  0  0  0  0  0  0  0
   -1.5143    0.8067    1.0915 C   0  0  0  0  0  0  0  0  0  0  0  0
   -0.9247    1.2213    2.0872 O   0  0  0  0  0  0  0  0  0  0  0  0
   -2.4106    2.3553   -0.6653 C   0  0  0  0  0  0  0  0  0  0  0  0
   -2.8254    2.4352    2.4150 H   0  0  0  0  0  0  0  0  0  0  0  0
   -3.4836    0.7082    0.2278 H   0  0  0  0  0  0  0  0  0  0  0  0
   -1.6866    3.1298   -0.3871 H   0  0  0  0  0  0  0  0  0  0  0  0
   -1.9704    1.7677   -1.4777 H   0  0  0  0  0  0  0  0  0  0  0  0
   -3.3030    2.8584   -1.0531 H   0  0  0  0  0  0  0  0  0  0  0  0
   -1.1107   -0.2839    0.3303 N   0  0  0  0  0  0  0  0  0  0  0  0
    0.0490   -1.0750    0.6539 C   0  0  2  0  0  0  0  0  0  0  0  0
    0.8769   -0.2868    1.6647 C   0  0  0  0  0  0  0  0  0  0  0  0
    0.5681    0.8383    2.0522 O   0  0  0  0  0  0  0  0  0  0  0  0
    0.8769   -1.4507   -0.5837 C   0  0  2  0  0  0  0  0  0  0  0  0
    1.3604   -0.2807   -1.2417 O   0  0  0  0  0  0  0  0  0  0  0  0
    0.0688   -2.2538   -1.5958 C   0  0  0  0  0  0  0  0  0  0  0  0
   -1.6733   -0.5660   -0.4691 H   0  0  0  0  0  0  0  0  0  0  0  0
   -0.3219   -1.9828    1.1452 H   0  0  0  0  0  0  0  0  0  0  0  0
    1.7512   -2.0434   -0.2905 H   0  0  0  0  0  0  0  0  0  0  0  0
    1.9112   -0.5876   -1.9780 H   0  0  0  0  0  0  0  0  0  0  0  0
   -0.8206   -1.7049   -1.9238 H   0  0  0  0  0  0  0  0  0  0  0  0
   -0.2430   -3.2172   -1.1813 H   0  0  0  0  0  0  0  0  0  0  0  0
    0.6666   -2.4400   -2.4949 H   0  0  0  0  0  0  0  0  0  0  0  0
    2.0253   -0.9670    2.0445 N   0  0  0  0  0  0  0  0  0  0  0  0
    2.9874   -0.4127    2.9678 C   0  0  2  0  0  0  0  0  0  0  0  0
    2.4372   -0.5814    4.3779 C   0  0  0  0  0  0  0  0  0  0  0  0
    1.2401   -0.7235    4.6184 O   0  0  0  0  0  0  0  0  0  0  0  0
    3.2656    1.0513    2.6644 C   0  0  0  0  0  0  0  0  0  0  0  0
    2.1958   -1.8908    1.6581 H   0  0  0  0  0  0  0  0  0  0  0  0
    3.9047   -1.0017    2.8602 H   0  0  0  0  0  0  0  0  0  0  0  0
    2.3580    1.6573    2.7671 H   0  0  0  0  0  0  0  0  0  0  0  0
    4.0164    1.4623    3.3474 H   0  0  0  0  0  0  0  0  0  0  0  0
    3.6330    1.1740    1.6399 H   0  0  0  0  0  0  0  0  0  0  0  0
    3.4356   -0.5114    5.3395 N   0  0  0  0  0  0  0  0  0  0  0  0
    3.1659   -0.6303    6.7534 C   0  0  0  0  0  0  0  0  0  0  0  0
    4.4035   -0.4107    5.0484 H   0  0  0  0  0  0  0  0  0  0  0  0
    3.0113    0.3704    7.1831 H   0  0  0  0  0  0  0  0  0  0  0  0
    2.2613   -1.2377    6.9042 H   0  0  0  0  0  0  0  0  0  0  0  0
    4.0197   -1.1145    7.2499 H   0  0  0  0  0  0  0  0  0  0  0  0
  1  3  1  0  0  0  0
  1  7  1  0  0  0  0
  1  2  2  0  0  0  0
 32 33  1  0  0  0  0
 33 41  1  0  0  0  0
 33 34  2  0  0  0  0
  8  9  1  0  0  0  0
  9 17  1  0  0  0  0
  9 10  2  0  0  0  0
 18 19  1  0  0  0  0
 19 31  1  0  0  0  0
 19 20  2  0  0  0  0
 32 35  1  0  0  0  0
  8 11  1  0  0  0  0
 21 23  1  0  0  0  0
 41 42  1  0  0  0  0
 31 32  1  0  0  0  0
  7  8  1  0  0  0  0
 18 21  1  0  0  0  0
 17 18  1  0  0  0  0
 21 22  1  0  0  0  0
  3  4  1  0  0  0  0
  3  5  1  0  0  0  0
  3  6  1  0  0  0  0
 35 38  1  0  0  0  0
 35 39  1  0  0  0  0
 35 40  1  0  0  0  0
 11 14  1  0  0  0  0
 11 15  1  0  0  0  0
 11 16  1  0  0  0  0
 23 28  1  0  0  0  0
 23 29  1  0  0  0  0
 23 30  1  0  0  0  0
 42 44  1  0  0  0  0
 42 45  1  0  0  0  0
 42 46  1  0  0  0  0
 32 37  1  0  0  0  0
  8 13  1  0  0  0  0
 18 25  1  0  0  0  0
 21 26  1  0  0  0  0
 41 43  1  0  0  0  0
  7 12  1  0  0  0  0
 31 36  1  0  0  0  0
 17 24  1  0  0  0  0
 22 27  1  0  0  0  0
M  END
$$$$

  -OEChem-05262214473D

 46 45  0     1  0  0  0  0  0999 V2000
   -4.6700    2.7214    1.5150 C   0  0  0  0  0  0  0  0  0  0  0  0
   -5.4532    2.5715    0.5845 O   0  0  0  0  0  0  0  0  0  0  0  0
   -5.0996    3.4865    2.7226 C   0  0  0  0  0  0  0  0  0  0  0  0
   -4.8796    4.5629    2.6387 H   0  0  0  0  0  0  0  0  0  0  0  0
   -6.1861    3.4241    2.8954 H   0  0  0  0  0  0  0  0  0  0  0  0
   -4.6369    3.1693    3.6708 H   0  0  0  0  0  0  0  0  0  0  0  0
   -3.3731    2.2391    1.5790 N   0  0  0  0  0  0  0  0  0  0  0  0
   -2.7599    1.4751    0.5247 C   0  0  2  0  0  0  0  0  0  0  0  0
   -1.5143    0.8067    1.0915 C   0  0  0  0  0  0  0  0  0  0  0  0
   -0.9247    1.2213    2.0872 O   0  0  0  0  0  0  0  0  0  0  0  0
   -2.4106    2.3553   -0.6653 C   0  0  0  0  0  0  0  0  0  0  0  0
   -2.8254    2.4352    2.4150 H   0  0  0  0  0  0  0  0  0  0  0  0
   -3.4836    0.7082    0.2278 H   0  0  0  0  0  0  0  0  0  0  0  0
   -1.6866    3.1298   -0.3871 H   0  0  0  0  0  0  0  0  0  0  0  0
   -1.9704    1.7677   -1.4777 H   0  0  0  0  0  0  0  0  0  0  0  0
   -3.3030    2.8584   -1.0531 H   0  0  0  0  0  0  0  0  0  0  0  0
   -1.1107   -0.2839    0.3303 N   0  0  0  0  0  0  0  0  0  0  0  0
    0.0490   -1.0750    0.6539 C   0  0  2  0  0  0  0  0  0  0  0  0
    0.8769   -0.2868    1.6647 C   0  0  0  0  0  0  0  0  0  0  0  0
    0.4500    0.7044    2.2534 O   0  0  0  0  0  0  0  0  0  0  0  0
    0.8769   -1.4507   -0.5837 C   0  0  2  0  0  0  0  0  0  0  0  0
    1.3604   -0.2807   -1.2417 O   0  0  0  0  0  0  0  0  0  0  0  0
    0.0688   -2.2538   -1.5958 C   0  0  0  0  0  0  0  0  0  0  0  0
   -1.6733   -0.5660   -0.4691 H   0  0  0  0  0  0  0  0  0  0  0  0
   -0.3219   -1.9828    1.1452 H   0  0  0  0  0  0  0  0  0  0  0  0
    1.7512   -2.0434   -0.2905 H   0  0  0  0  0  0  0  0  0  0  0  0
    1.9112   -0.5876   -1.9780 H   0  0  0  0  0  0  0  0  0  0  0  0
   -0.8206   -1.7049   -1.9238 H   0  0  0  0  0  0  0  0  0  0  0  0
   -0.2430   -3.2172   -1.1813 H   0  0  0  0  0  0  0  0  0  0  0  0
    0.6666   -2.4400   -2.4949 H   0  0  0  0  0  0  0  0  0  0  0  0
    2.1632   -0.7911    1.7944 N   0  0  0  0  0  0  0  0  0  0  0  0
    3.1472   -0.1954    2.6674 C   0  0  2  0  0  0  0  0  0  0  0  0
    2.8434   -0.6410    4.0917 C   0  0  0  0  0  0  0  0  0  0  0  0
    1.7331   -1.0272    4.4514 O   0  0  0  0  0  0  0  0  0  0  0  0
    3.1374    1.3215    2.5587 C   0  0  0  0  0  0  0  0  0  0  0  0
    2.4228   -1.6112    1.2541 H   0  0  0  0  0  0  0  0  0  0  0  0
    4.1221   -0.5897    2.3609 H   0  0  0  0  0  0  0  0  0  0  0  0
    2.1685    1.7348    2.8618 H   0  0  0  0  0  0  0  0  0  0  0  0
    3.9033    1.7702    3.1999 H   0  0  0  0  0  0  0  0  0  0  0  0
    3.3266    1.6395    1.5278 H   0  0  0  0  0  0  0  0  0  0  0  0
    3.9467   -0.5159    4.9243 N   0  0  0  0  0  0  0  0  0  0  0  0
    3.9092   -0.8627    6.3258 C   0  0  0  0  0  0  0  0  0  0  0  0
    4.8326   -0.2051    4.5365 H   0  0  0  0  0  0  0  0  0  0  0  0
    3.6590    0.0297    6.9183 H   0  0  0  0  0  0  0  0  0  0  0  0
    3.1467   -1.6381    6.4913 H   0  0  0  0  0  0  0  0  0  0  0  0
    4.8933   -1.2442    6.6355 H   0  0  0  0  0  0  0  0  0  0  0  0
  1  3  1  0  0  0  0
  1  7  1  0  0  0  0
  1  2  2  0  0  0  0
 32 33  1  0  0  0  0
 33 41  1  0  0  0  0
 33 34  2  0  0  0  0
  8  9  1  0  0  0  0
  9 17  1  0  0  0  0
  9 10  2  0  0  0  0
 18 19  1  0  0  0  0
 19 31  1  0  0  0  0
 19 20  2  0  0  0  0
 32 35  1  0  0  0  0
  8 11  1  0  0  0  0
 21 23  1  0  0  0  0
 41 42  1  0  0  0  0
 31 32  1  0  0  0  0
  7  8  1  0  0  0  0
 18 21  1  0  0  0  0
 17 18  1  0  0  0  0
 21 22  1  0  0  0  0
  3  4  1  0  0  0  0
  3  5  1  0  0  0  0
  3  6  1  0  0  0  0
 35 38  1  0  0  0  0
 35 39  1  0  0  0  0
 35 40  1  0  0  0  0
 11 14  1  0  0  0  0
 11 15  1  0  0  0  0
 11 16  1  0  0  0  0
 23 28  1  0  0  0  0
 23 29  1  0  0  0  0
 23 30  1  0  0  0  0
 42 44  1  0  0  0  0
 42 45  1  0  0  0  0
 42 46  1  0  0  0  0
 32 37  1  0  0  0  0
  8 13  1  0  0  0  0
 18 25  1  0  0  0  0
 21 26  1  0  0  0  0
 41 43  1  0  0  0  0
  7 12  1  0  0  0  0
 31 36  1  0  0  0  0
 17 24  1  0  0  0  0
 22 27  1  0  0  0  0
M  END
$$$$

  -OEChem-05262214473D

 46 45  0     1  0  0  0  0  0999 V2000
   -4.6700    2.7214    1.5150 C   0  0  0  0  0  0  0  0  0  0  0  0
   -5.4532    2.5715    0.5845 O   0  0  0  0  0  0  0  0  0  0  0  0
   -5.0996    3.4865    2.7226 C   0  0  0  0  0  0  0  0  0  0  0  0
   -4.8796    4.5629    2.6387 H   0  0  0  0  0  0  0  0  0  0  0  0
   -6.1861    3.4241    2.8954 H   0  0  0  0  0  0  0  0  0  0  0  0
   -4.6369    3.1693    3.6708 H   0  0  0  0  0  0  0  0  0  0  0  0
   -3.3731    2.2391    1.5790 N   0  0  0  0  0  0  0  0  0  0  0  0
   -2.7599    1.4751    0.5247 C   0  0  2  0  0  0  0  0  0  0  0  0
   -1.5143    0.8067    1.0915 C   0  0  0  0  0  0  0  0  0  0  0  0
   -0.9247    1.2213    2.0872 O   0  0  0  0  0  0  0  0  0  0  0  0
   -2.4106    2.3553   -0.6653 C   0  0  0  0  0  0  0  0  0  0  0  0
   -2.8254    2.4352    2.4150 H   0  0  0  0  0  0  0  0  0  0  0  0
   -3.4836    0.7082    0.2278 H   0  0  0  0  0  0  0  0  0  0  0  0
   -1.6866    3.1298   -0.3871 H   0  0  0  0  0  0  0  0  0  0  0  0
   -1.9704    1.7677   -1.4777 H   0  0  0  0  0  0  0  0  0  0  0  0
   -3.3030    2.8584   -1.0531 H   0  0  0  0  0  0  0  0  0  0  0  0
   -1.1107   -0.2839    0.3303 N   0  0  0  0  0  0  0  0  0  0  0  0
    0.0490   -1.0750    0.6539 C   0  0  2  0  0  0  0  0  0  0  0  0
    0.8769   -0.2868    1.6647 C   0  0  0  0  0  0  0  0  0  0  0  0
    0.3857    0.5266    2.4447 O   0  0  0  0  0  0  0  0  0  0  0  0
    0.8769   -1.4507   -0.5837 C   0  0  2  0  0  0  0  0  0  0  0  0
    1.3604   -0.2807   -1.2417 O   0  0  0  0  0  0  0  0  0  0  0  0
    0.0688   -2.2538   -1.5958 C   0  0  0  0  0  0  0  0  0  0  0  0
   -1.6733   -0.5660   -0.4691 H   0  0  0  0  0  0  0  0  0  0  0  0
   -0.3219   -1.9828    1.1452 H   0  0  0  0  0  0  0  0  0  0  0  0
    1.7512   -2.0434   -0.2905 H   0  0  0  0  0  0  0  0  0  0  0  0
    1.9112   -0.5876   -1.9780 H   0  0  0  0  0  0  0  0  0  0  0  0
   -0.8206   -1.7049   -1.9238 H   0  0  0  0  0  0  0  0  0  0  0  0
   -0.2430   -3.2172   -1.1813 H   0  0  0  0  0  0  0  0  0  0  0  0
    0.6666   -2.4400   -2.4949 H   0  0  0  0  0  0  0  0  0  0  0  0
    2.2329   -0.5624    1.5590 N   0  0  0  0  0  0  0  0  0  0  0  0
    3.2241    0.0841    2.3865 C   0  0  2  0  0  0  0  0  0  0  0  0
    3.2076   -0.5888    3.7526 C   0  0  0  0  0  0  0  0  0  0  0  0
    2.2391   -1.2126    4.1815 O   0  0  0  0  0  0  0  0  0  0  0  0
    2.9532    1.5753    2.5117 C   0  0  0  0  0  0  0  0  0  0  0  0
    2.5401   -1.2454    0.8727 H   0  0  0  0  0  0  0  0  0  0  0  0
    4.1948   -0.0845    1.9074 H   0  0  0  0  0  0  0  0  0  0  0  0
    1.9849    1.7639    2.9895 H   0  0  0  0  0  0  0  0  0  0  0  0
    3.7216    2.0688    3.1159 H   0  0  0  0  0  0  0  0  0  0  0  0
    2.9358    2.0524    1.5259 H   0  0  0  0  0  0  0  0  0  0  0  0
    4.3857   -0.3742    4.4543 N   0  0  0  0  0  0  0  0  0  0  0  0
    4.6097   -0.8996    5.7809 C   0  0  0  0  0  0  0  0  0  0  0  0
    5.1434    0.1391    4.0136 H   0  0  0  0  0  0  0  0  0  0  0  0
    4.3076   -0.1511    6.5281 H   0  0  0  0  0  0  0  0  0  0  0  0
    4.0153   -1.8150    5.9178 H   0  0  0  0  0  0  0  0  0  0  0  0
    5.6772   -1.1334    5.9071 H   0  0  0  0  0  0  0  0  0  0  0  0
  1  3  1  0  0  0  0
  1  7  1  0  0  0  0
  1  2  2  0  0  0  0
 32 33  1  0  0  0  0
 33 41  1  0  0  0  0
 33 34  2  0  0  0  0
  8  9  1  0  0  0  0
  9 17  1  0  0  0  0
  9 10  2  0  0  0  0
 18 19  1  0  0  0  0
 19 31  1  0  0  0  0
 19 20  2  0  0  0  0
 32 35  1  0  0  0  0
  8 11  1  0  0  0  0
 21 23  1  0  0  0  0
 41 42  1  0  0  0  0
 31 32  1  0  0  0  0
  7  8  1  0  0  0  0
 18 21  1  0  0  0  0
 17 18  1  0  0  0  0
 21 22  1  0  0  0  0
  3  4  1  0  0  0  0
  3  5  1  0  0  0  0
  3  6  1  0  0  0  0
 35 38  1  0  0  0  0
 35 39  1  0  0  0  0
 35 40  1  0  0  0  0
 11 14  1  0  0  0  0
 11 15  1  0  0  0  0
 11 16  1  0  0  0  0
 23 28  1  0  0  0  0
 23 29  1  0  0  0  0
 23 30  1  0  0  0  0
 42 44  1  0  0  0  0
 42 45  1  0  0  0  0
 42 46  1  0  0  0  0
 32 37  1  0  0  0  0
  8 13  1  0  0  0  0
 18 25  1  0  0  0  0
 21 26  1  0  0  0  0
 41 43  1  0  0  0  0
  7 12  1  0  0  0  0
 31 36  1  0  0  0  0
 17 24  1  0  0  0  0
 22 27  1  0  0  0  0
M  END
$$$$

  -OEChem-05262214473D

 46 45  0     1  0  0  0  0  0999 V2000
   -4.6700    2.7214    1.5150 C   0  0  0  0  0  0  0  0  0  0  0  0
   -5.4532    2.5715    0.5845 O   0  0  0  0  0  0  0  0  0  0  0  0
   -5.0996    3.4865    2.7226 C   0  0  0  0  0  0  0  0  0  0  0  0
   -4.8796    4.5629    2.6387 H   0  0  0  0  0  0  0  0  0  0  0  0
   -6.1861    3.4241    2.8954 H   0  0  0  0  0  0  0  0  0  0  0  0
   -4.6369    3.1693    3.6708 H   0  0  0  0  0  0  0  0  0  0  0  0
   -3.3731    2.2391    1.5790 N   0  0  0  0  0  0  0  0  0  0  0  0
   -2.7599    1.4751    0.5247 C   0  0  2  0  0  0  0  0  0  0  0  0
   -1.5143    0.8067    1.0915 C   0  0  0  0  0  0  0  0  0  0  0  0
   -0.9247    1.2213    2.0872 O   0  0  0  0  0  0  0  0  0  0  0  0
   -2.4106    2.3553   -0.6653 C   0  0  0  0  0  0  0  0  0  0  0  0
   -2.8254    2.4352    2.4150 H   0  0  0  0  0  0  0  0  0  0  0  0
   -3.4836    0.7082    0.2278 H   0  0  0  0  0  0  0  0  0  0  0  0
   -1.6866    3.1298   -0.3871 H   0  0  0  0  0  0  0  0  0  0  0  0
   -1.9704    1.7677   -1.4777 H   0  0  0  0  0  0  0  0  0  0  0  0
   -3.3030    2.8584   -1.0531 H   0  0  0  0  0  0  0  0  0  0  0  0
   -1.1107   -0.2839    0.3303 N   0  0  0  0  0  0  0  0  0  0  0  0
    0.0490   -1.0750    0.6539 C   0  0  2  0  0  0  0  0  0  0  0  0
    0.8769   -0.2868    1.6647 C   0  0  0  0  0  0  0  0  0  0  0  0
    0.3796    0.3169    2.6132 O   0  0  0  0  0  0  0  0  0  0  0  0
    0.8769   -1.4507   -0.5837 C   0  0  2  0  0  0  0  0  0  0  0  0
    1.3604   -0.2807   -1.2417 O   0  0  0  0  0  0  0  0  0  0  0  0
    0.0688   -2.2538   -1.5958 C   0  0  0  0  0  0  0  0  0  0  0  0
   -1.6733   -0.5660   -0.4691 H   0  0  0  0  0  0  0  0  0  0  0  0
   -0.3219   -1.9828    1.1452 H   0  0  0  0  0  0  0  0  0  0  0  0
    1.7512   -2.0434   -0.2905 H   0  0  0  0  0  0  0  0  0  0  0  0
    1.9112   -0.5876   -1.9780 H   0  0  0  0  0  0  0  0  0  0  0  0
   -0.8206   -1.7049   -1.9238 H   0  0  0  0  0  0  0  0  0  0  0  0
   -0.2430   -3.2172   -1.1813 H   0  0  0  0  0  0  0  0  0  0  0  0
    0.6666   -2.4400   -2.4949 H   0  0  0  0  0  0  0  0  0  0  0  0
    2.2294   -0.2964    1.3544 N   0  0  0  0  0  0  0  0  0  0  0  0
    3.2130    0.4068    2.1440 C   0  0  2  0  0  0  0  0  0  0  0  0
    3.5052   -0.4282    3.3837 C   0  0  0  0  0  0  0  0  0  0  0  0
    2.7235   -1.2670    3.8271 O   0  0  0  0  0  0  0  0  0  0  0  0
    2.7254    1.7955    2.5265 C   0  0  0  0  0  0  0  0  0  0  0  0
    2.5397   -0.8185    0.5401 H   0  0  0  0  0  0  0  0  0  0  0  0
    4.1176    0.4798    1.5305 H   0  0  0  0  0  0  0  0  0  0  0  0
    1.8196    1.7426    3.1415 H   0  0  0  0  0  0  0  0  0  0  0  0
    3.4836    2.3380    3.1009 H   0  0  0  0  0  0  0  0  0  0  0  0
    2.4874    2.3845    1.6342 H   0  0  0  0  0  0  0  0  0  0  0  0
    4.7226   -0.0962    3.9615 N   0  0  0  0  0  0  0  0  0  0  0  0
    5.2199   -0.7387    5.1556 C   0  0  0  0  0  0  0  0  0  0  0  0
    5.3147    0.5982    3.5153 H   0  0  0  0  0  0  0  0  0  0  0  0
    4.9129   -0.1598    6.0391 H   0  0  0  0  0  0  0  0  0  0  0  0
    4.8079   -1.7564    5.2229 H   0  0  0  0  0  0  0  0  0  0  0  0
    6.3180   -0.7897    5.1142 H   0  0  0  0  0  0  0  0  0  0  0  0
  1  3  1  0  0  0  0
  1  7  1  0  0  0  0
  1  2  2  0  0  0  0
 32 33  1  0  0  0  0
 33 41  1  0  0  0  0
 33 34  2  0  0  0  0
  8  9  1  0  0  0  0
  9 17  1  0  0  0  0
  9 10  2  0  0  0  0
 18 19  1  0  0  0  0
 19 31  1  0  0  0  0
 19 20  2  0  0  0  0
 32 35  1  0  0  0  0
  8 11  1  0  0  0  0
 21 23  1  0  0  0  0
 41 42  1  0  0  0  0
 31 32  1  0  0  0  0
  7  8  1  0  0  0  0
 18 21  1  0  0  0  0
 17 18  1  0  0  0  0
 21 22  1  0  0  0  0
  3  4  1  0  0  0  0
  3  5  1  0  0  0  0
  3  6  1  0  0  0  0
 35 38  1  0  0  0  0
 35 39  1  0  0  0  0
 35 40  1  0  0  0  0
 11 14  1  0  0  0  0
 11 15  1  0  0  0  0
 11 16  1  0  0  0  0
 23 28  1  0  0  0  0
 23 29  1  0  0  0  0
 23 30  1  0  0  0  0
 42 44  1  0  0  0  0
 42 45  1  0  0  0  0
 42 46  1  0  0  0  0
 32 37  1  0  0  0  0
  8 13  1  0  0  0  0
 18 25  1  0  0  0  0
 21 26  1  0  0  0  0
 41 43  1  0  0  0  0
  7 12  1  0  0  0  0
 31 36  1  0  0  0  0
 17 24  1  0  0  0  0
 22 27  1  0  0  0  0
M  END
$$$$

  -OEChem-05262214473D

 46 45  0     1  0  0  0  0  0999 V2000
   -4.6700    2.7214    1.5150 C   0  0  0  0  0  0  0  0  0  0  0  0
   -5.4532    2.5715    0.5845 O   0  0  0  0  0  0  0  0  0  0  0  0
   -5.0996    3.4865    2.7226 C   0  0  0  0  0  0  0  0  0  0  0  0
   -4.8796    4.5629    2.6387 H   0  0  0  0  0  0  0  0  0  0  0  0
   -6.1861    3.4241    2.8954 H   0  0  0  0  0  0  0  0  0  0  0  0
   -4.6369    3.1693    3.6708 H   0  0  0  0  0  0  0  0  0  0  0  0
   -3.3731    2.2391    1.5790 N   0  0  0  0  0  0  0  0  0  0  0  0
   -2.7599    1.4751    0.5247 C   0  0  2  0  0  0  0  0  0  0  0  0
   -1.5143    0.8067    1.0915 C   0  0  0  0  0  0  0  0  0  0  0  0
   -0.9247    1.2213    2.0872 O   0  0  0  0  0  0  0  0  0  0  0  0
   -2.4106    2.3553   -0.6653 C   0  0  0  0  0  0  0  0  0  0  0  0
   -2.8254    2.4352    2.4150 H   0  0  0  0  0  0  0  0  0  0  0  0
   -3.4836    0.7082    0.2278 H   0  0  0  0  0  0  0  0  0  0  0  0
   -1.6866    3.1298   -0.3871 H   0  0  0  0  0  0  0  0  0  0  0  0
   -1.9704    1.7677   -1.4777 H   0  0  0  0  0  0  0  0  0  0  0  0
   -3.3030    2.8584   -1.0531 H   0  0  0  0  0  0  0  0  0  0  0  0
   -1.1107   -0.2839    0.3303 N   0  0  0  0  0  0  0  0  0  0  0  0
    0.0490   -1.0750    0.6539 C   0  0  2  0  0  0  0  0  0  0  0  0
    0.8769   -0.2868    1.6647 C   0  0  0  0  0  0  0  0  0  0  0  0
    0.4323    0.0897    2.7472 O   0  0  0  0  0  0  0  0  0  0  0  0
    0.8769   -1.4507   -0.5837 C   0  0  2  0  0  0  0  0  0  0  0  0
    1.3604   -0.2807   -1.2417 O   0  0  0  0  0  0  0  0  0  0  0  0
    0.0688   -2.2538   -1.5958 C   0  0  0  0  0  0  0  0  0  0  0  0
   -1.6733   -0.5660   -0.4691 H   0  0  0  0  0  0  0  0  0  0  0  0
   -0.3219   -1.9828    1.1452 H   0  0  0  0  0  0  0  0  0  0  0  0
    1.7512   -2.0434   -0.2905 H   0  0  0  0  0  0  0  0  0  0  0  0
    1.9112   -0.5876   -1.9780 H   0  0  0  0  0  0  0  0  0  0  0  0
   -0.8206   -1.7049   -1.9238 H   0  0  0  0  0  0  0  0  0  0  0  0
   -0.2430   -3.2172   -1.1813 H   0  0  0  0  0  0  0  0  0  0  0  0
    0.6666   -2.4400   -2.4949 H   0  0  0  0  0  0  0  0  0  0  0  0
    2.1532   -0.0114    1.1946 N   0  0  0  0  0  0  0  0  0  0  0  0
    3.1145    0.7505    1.9566 C   0  0  2  0  0  0  0  0  0  0  0  0
    3.7158   -0.1703    3.0101 C   0  0  0  0  0  0  0  0  0  0  0  0
    3.1534   -1.1867    3.4124 O   0  0  0  0  0  0  0  0  0  0  0  0
    2.4696    1.9671    2.6022 C   0  0  0  0  0  0  0  0  0  0  0  0
    2.4217   -0.3594    0.2788 H   0  0  0  0  0  0  0  0  0  0  0  0
    3.8960    1.0644    1.2561 H   0  0  0  0  0  0  0  0  0  0  0  0
    1.6839    1.6724    3.3074 H   0  0  0  0  0  0  0  0  0  0  0  0
    3.2056    2.5593    3.1560 H   0  0  0  0  0  0  0  0  0  0  0  0
    2.0117    2.6132    1.8455 H   0  0  0  0  0  0  0  0  0  0  0  0
    4.9345    0.2993    3.4795 N   0  0  0  0  0  0  0  0  0  0  0  0
    5.6981   -0.3909    4.4926 C   0  0  0  0  0  0  0  0  0  0  0  0
    5.3348    1.1410    3.0756 H   0  0  0  0  0  0  0  0  0  0  0  0
    5.4337    0.0042    5.4846 H   0  0  0  0  0  0  0  0  0  0  0  0
    5.4706   -1.4664    4.4539 H   0  0  0  0  0  0  0  0  0  0  0  0
    6.7720   -0.2365    4.3109 H   0  0  0  0  0  0  0  0  0  0  0  0
  1  3  1  0  0  0  0
  1  7  1  0  0  0  0
  1  2  2  0  0  0  0
 32 33  1  0  0  0  0
 33 41  1  0  0  0  0
 33 34  2  0  0  0  0
  8  9  1  0  0  0  0
  9 17  1  0  0  0  0
  9 10  2  0  0  0  0
 18 19  1  0  0  0  0
 19 31  1  0  0  0  0
 19 20  2  0  0  0  0
 32 35  1  0  0  0  0
  8 11  1  0  0  0  0
 21 23  1  0  0  0  0
 41 42  1  0  0  0  0
 31 32  1  0  0  0  0
  7  8  1  0  0  0  0
 18 21  1  0  0  0  0
 17 18  1  0  0  0  0
 21 22  1  0  0  0  0
  3  4  1  0  0  0  0
  3  5  1  0  0  0  0
  3  6  1  0  0  0  0
 35 38  1  0  0  0  0
 35 39  1  0  0  0  0
 35 40  1  0  0  0  0
 11 14  1  0  0  0  0
 11 15  1  0  0  0  0
 11 16  1  0  0  0  0
 23 28  1  0  0  0  0
 23 29  1  0  0  0  0
 23 30  1  0  0  0  0
 42 44  1  0  0  0  0
 42 45  1  0  0  0  0
 42 46  1  0  0  0  0
 32 37  1  0  0  0  0
  8 13  1  0  0  0  0
 18 25  1  0  0  0  0
 21 26  1  0  0  0  0
 41 43  1  0  0  0  0
  7 12  1  0  0  0  0
 31 36  1  0  0  0  0
 17 24  1  0  0  0  0
 22 27  1  0  0  0  0
M  END
$$$$

  -OEChem-05262214473D

 46 45  0     1  0  0  0  0  0999 V2000
   -4.6700    2.7214    1.5150 C   0  0  0  0  0  0  0  0  0  0  0  0
   -5.4532    2.5715    0.5845 O   0  0  0  0  0  0  0  0  0  0  0  0
   -5.0996    3.4865    2.7226 C   0  0  0  0  0  0  0  0  0  0  0  0
   -4.8796    4.5629    2.6387 H   0  0  0  0  0  0  0  0  0  0  0  0
   -6.1861    3.4241    2.8954 H   0  0  0  0  0  0  0  0  0  0  0  0
   -4.6369    3.1693    3.6708 H   0  0  0  0  0  0  0  0  0  0  0  0
   -3.3731    2.2391    1.5790 N   0  0  0  0  0  0  0  0  0  0  0  0
   -2.7599    1.4751    0.5247 C   0  0  2  0  0  0  0  0  0  0  0  0
   -1.5143    0.8067    1.0915 C   0  0  0  0  0  0  0  0  0  0  0  0
   -0.9247    1.2213    2.0872 O   0  0  0  0  0  0  0  0  0  0  0  0
   -2.4106    2.3553   -0.6653 C   0  0  0  0  0  0  0  0  0  0  0  0
   -2.8254    2.4352    2.4150 H   0  0  0  0  0  0  0  0  0  0  0  0
   -3.4836    0.7082    0.2278 H   0  0  0  0  0  0  0  0  0  0  0  0
   -1.6866    3.1298   -0.3871 H   0  0  0  0  0  0  0  0  0  0  0  0
   -1.9704    1.7677   -1.4777 H   0  0  0  0  0  0  0  0  0  0  0  0
   -3.3030    2.8584   -1.0531 H   0  0  0  0  0  0  0  0  0  0  0  0
   -1.1107   -0.2839    0.3303 N   0  0  0  0  0  0  0  0  0  0  0  0
    0.0490   -1.0750    0.6539 C   0  0  2  0  0  0  0  0  0  0  0  0
    0.8769   -0.2868    1.6647 C   0  0  0  0  0  0  0  0  0  0  0  0
    0.5400   -0.1396    2.8378 O   0  0  0  0  0  0  0  0  0  0  0  0
    0.8769   -1.4507   -0.5837 C   0  0  2  0  0  0  0  0  0  0  0  0
    1.3604   -0.2807   -1.2417 O   0  0  0  0  0  0  0  0  0  0  0  0
    0.0688   -2.2538   -1.5958 C   0  0  0  0  0  0  0  0  0  0  0  0
   -1.6733   -0.5660   -0.4691 H   0  0  0  0  0  0  0  0  0  0  0  0
   -0.3219   -1.9828    1.1452 H   0  0  0  0  0  0  0  0  0  0  0  0
    1.7512   -2.0434   -0.2905 H   0  0  0  0  0  0  0  0  0  0  0  0
    1.9112   -0.5876   -1.9780 H   0  0  0  0  0  0  0  0  0  0  0  0
   -0.8206   -1.7049   -1.9238 H   0  0  0  0  0  0  0  0  0  0  0  0
   -0.2430   -3.2172   -1.1813 H   0  0  0  0  0  0  0  0  0  0  0  0
    0.6666   -2.4400   -2.4949 H   0  0  0  0  0  0  0  0  0  0  0  0
    2.0093    0.2732    1.0905 N   0  0  0  0  0  0  0  0  0  0  0  0
    2.9354    1.0920    1.8370 C   0  0  2  0  0  0  0  0  0  0  0  0
    3.8250    0.1673    2.6573 C   0  0  0  0  0  0  0  0  0  0  0  0
    3.4994   -0.9772    2.9657 O   0  0  0  0  0  0  0  0  0  0  0  0
    2.2033    2.0783    2.7337 C   0  0  0  0  0  0  0  0  0  0  0  0
    2.1940    0.1004    0.1066 H   0  0  0  0  0  0  0  0  0  0  0  0
    3.5451    1.6297    1.1027 H   0  0  0  0  0  0  0  0  0  0  0  0
    1.5870    1.5580    3.4760 H   0  0  0  0  0  0  0  0  0  0  0  0
    2.9065    2.7176    3.2775 H   0  0  0  0  0  0  0  0  0  0  0  0
    1.5413    2.7229    2.1452 H   0  0  0  0  0  0  0  0  0  0  0  0
    5.0069    0.7854    3.0412 N   0  0  0  0  0  0  0  0  0  0  0  0
    6.0118    0.1202    3.8372 C   0  0  0  0  0  0  0  0  0  0  0  0
    5.2023    1.7305    2.7243 H   0  0  0  0  0  0  0  0  0  0  0  0
    5.8345    0.3298    4.9024 H   0  0  0  0  0  0  0  0  0  0  0  0
    5.9582   -0.9647    3.6633 H   0  0  0  0  0  0  0  0  0  0  0  0
    7.0083    0.4885    3.5520 H   0  0  0  0  0  0  0  0  0  0  0  0
  1  3  1  0  0  0  0
  1  7  1  0  0  0  0
  1  2  2  0  0  0  0
 32 33  1  0  0  0  0
 33 41  1  0  0  0  0
 33 34  2  0  0  0  0
  8  9  1  0  0  0  0
  9 17  1  0  0  0  0
  9 10  2  0  0  0  0
 18 19  1  0  0  0  0
 19 31  1  0  0  0  0
 19 20  2  0  0  0  0
 32 35  1  0  0  0  0
  8 11  1  0  0  0  0
 21 23  1  0  0  0  0
 41 42  1  0  0  0  0
 31 32  1  0  0  0  0
  7  8  1  0  0  0  0
 18 21  1  0  0  0  0
 17 18  1  0  0  0  0
 21 22  1  0  0  0  0
  3  4  1  0  0  0  0
  3  5  1  0  0  0  0
  3  6  1  0  0  0  0
 35 38  1  0  0  0  0
 35 39  1  0  0  0  0
 35 40  1  0  0  0  0
 11 14  1  0  0  0  0
 11 15  1  0  0  0  0
 11 16  1  0  0  0  0
 23 28  1  0  0  0  0
 23 29  1  0  0  0  0
 23 30  1  0  0  0  0
 42 44  1  0  0  0  0
 42 45  1  0  0  0  0
 42 46  1  0  0  0  0
 32 37  1  0  0  0  0
  8 13  1  0  0  0  0
 18 25  1  0  0  0  0
 21 26  1  0  0  0  0
 41 43  1  0  0  0  0
  7 12  1  0  0  0  0
 31 36  1  0  0  0  0
 17 24  1  0  0  0  0
 22 27  1  0  0  0  0
M  END
$$$$

  -OEChem-05262214473D

 46 45  0     1  0  0  0  0  0999 V2000
   -4.6700    2.7214    1.5150 C   0  0  0  0  0  0  0  0  0  0  0  0
   -5.4532    2.5715    0.5845 O   0  0  0  0  0  0  0  0  0  0  0  0
   -5.0996    3.4865    2.7226 C   0  0  0  0  0  0  0  0  0  0  0  0
   -4.8796    4.5629    2.6387 H   0  0  0  0  0  0  0  0  0  0  0  0
   -6.1861    3.4241    2.8954 H   0  0  0  0  0  0  0  0  0  0  0  0
   -4.6369    3.1693    3.6708 H   0  0  0  0  0  0  0  0  0  0  0  0
   -3.3731    2.2391    1.5790 N   0  0  0  0  0  0  0  0  0  0  0  0
   -2.7599    1.4751    0.5247 C   0  0  2  0  0  0  0  0  0  0  0  0
   -1.5143    0.8067    1.0915 C   0  0  0  0  0  0  0  0  0  0  0  0
   -0.9247    1.2213    2.0872 O   0  0  0  0  0  0  0  0  0  0  0  0
   -2.4106    2.3553   -0.6653 C   0  0  0  0  0  0  0  0  0  0  0  0
   -2.8254    2.4352    2.4150 H   0  0  0  0  0  0  0  0  0  0  0  0
   -3.4836    0.7082    0.2278 H   0  0  0  0  0  0  0  0  0  0  0  0
   -1.6866    3.1298   -0.3871 H   0  0  0  0  0  0  0  0  0  0  0  0
   -1.9704    1.7677   -1.4777 H   0  0  0  0  0  0  0  0  0  0  0  0
   -3.3030    2.8584   -1.0531 H   0  0  0  0  0  0  0  0  0  0  0  0
   -1.1107   -0.2839    0.3303 N   0  0  0  0  0  0  0  0  0  0  0  0
    0.0490   -1.0750    0.6539 C   0  0  2  0  0  0  0  0  0  0  0  0
    0.8769   -0.2868    1.6647 C   0  0  0  0  0  0  0  0  0  0  0  0
    0.6955   -0.3553    2.8786 O   0  0  0  0  0  0  0  0  0  0  0  0
    0.8769   -1.4507   -0.5837 C   0  0  2  0  0  0  0  0  0  0  0  0
    1.3604   -0.2807   -1.2417 O   0  0  0  0  0  0  0  0  0  0  0  0
    0.0688   -2.2538   -1.5958 C   0  0  0  0  0  0  0  0  0  0  0  0
   -1.6733   -0.5660   -0.4691 H   0  0  0  0  0  0  0  0  0  0  0  0
   -0.3219   -1.9828    1.1452 H   0  0  0  0  0  0  0  0  0  0  0  0
    1.7512   -2.0434   -0.2905 H   0  0  0  0  0  0  0  0  0  0  0  0
    1.9112   -0.5876   -1.9780 H   0  0  0  0  0  0  0  0  0  0  0  0
   -0.8206   -1.7049   -1.9238 H   0  0  0  0  0  0  0  0  0  0  0  0
   -0.2430   -3.2172   -1.1813 H   0  0  0  0  0  0  0  0  0  0  0  0
    0.6666   -2.4400   -2.4949 H   0  0  0  0  0  0  0  0  0  0  0  0
    1.8076    0.5381    1.0491 N   0  0  0  0  0  0  0  0  0  0  0  0
    2.6878    1.4080    1.7934 C   0  0  2  0  0  0  0  0  0  0  0  0
    3.8255    0.5618    2.3494 C   0  0  0  0  0  0  0  0  0  0  0  0
    3.7380   -0.6528    2.5173 O   0  0  0  0  0  0  0  0  0  0  0  0
    1.9445    2.1216    2.9118 C   0  0  0  0  0  0  0  0  0  0  0  0
    1.8723    0.5298    0.0354 H   0  0  0  0  0  0  0  0  0  0  0  0
    3.0886    2.1371    1.0809 H   0  0  0  0  0  0  0  0  0  0  0  0
    1.5357    1.4072    3.6357 H   0  0  0  0  0  0  0  0  0  0  0  0
    2.6067    2.8022    3.4571 H   0  0  0  0  0  0  0  0  0  0  0  0
    1.1083    2.7060    2.5131 H   0  0  0  0  0  0  0  0  0  0  0  0
    4.9349    1.3289    2.6763 N   0  0  0  0  0  0  0  0  0  0  0  0
    6.1395    0.7596    3.2339 C   0  0  0  0  0  0  0  0  0  0  0  0
    4.9264    2.3265    2.4855 H   0  0  0  0  0  0  0  0  0  0  0  0
    6.0880    0.7948    4.3321 H   0  0  0  0  0  0  0  0  0  0  0  0
    6.2375   -0.2854    2.9048 H   0  0  0  0  0  0  0  0  0  0  0  0
    7.0108    1.3358    2.8892 H   0  0  0  0  0  0  0  0  0  0  0  0
  1  3  1  0  0  0  0
  1  7  1  0  0  0  0
  1  2  2  0  0  0  0
 32 33  1  0  0  0  0
 33 41  1  0  0  0  0
 33 34  2  0  0  0  0
  8  9  1  0  0  0  0
  9 17  1  0  0  0  0
  9 10  2  0  0  0  0
 18 19  1  0  0  0  0
 19 31  1  0  0  0  0
 19 20  2  0  0  0  0
 32 35  1  0  0  0  0
  8 11  1  0  0  0  0
 21 23  1  0  0  0  0
 41 42  1  0  0  0  0
 31 32  1  0  0  0  0
  7  8  1  0  0  0  0
 18 21  1  0  0  0  0
 17 18  1  0  0  0  0
 21 22  1  0  0  0  0
  3  4  1  0  0  0  0
  3  5  1  0  0  0  0
  3  6  1  0  0  0  0
 35 38  1  0  0  0  0
 35 39  1  0  0  0  0
 35 40  1  0  0  0  0
 11 14  1  0  0  0  0
 11 15  1  0  0  0  0
 11 16  1  0  0  0  0
 23 28  1  0  0  0  0
 23 29  1  0  0  0  0
 23 30  1  0  0  0  0
 42 44  1  0  0  0  0
 42 45  1  0  0  0  0
 42 46  1  0  0  0  0
 32 37  1  0  0  0  0
  8 13  1  0  0  0  0
 18 25  1  0  0  0  0
 21 26  1  0  0  0  0
 41 43  1  0  0  0  0
  7 12  1  0  0  0  0
 31 36  1  0  0  0  0
 17 24  1  0  0  0  0
 22 27  1  0  0  0  0
M  END
$$$$

  -OEChem-05262214473D

 46 45  0     1  0  0  0  0  0999 V2000
   -4.6700    2.7214    1.5150 C   0  0  0  0  0  0  0  0  0  0  0  0
   -5.4532    2.5715    0.5845 O   0  0  0  0  0  0  0  0  0  0  0  0
   -5.0996    3.4865    2.7226 C   0  0  0  0  0  0  0  0  0  0  0  0
   -4.8796    4.5629    2.6387 H   0  0  0  0  0  0  0  0  0  0  0  0
   -6.1861    3.4241    2.8954 H   0  0  0  0  0  0  0  0  0  0  0  0
   -4.6369    3.1693    3.6708 H   0  0  0  0  0  0  0  0  0  0  0  0
   -3.3731    2.2391    1.5790 N   0  0  0  0  0  0  0  0  0  0  0  0
   -2.7599    1.4751    0.5247 C   0  0  2  0  0  0  0  0  0  0  0  0
   -1.5143    0.8067    1.0915 C   0  0  0  0  0  0  0  0  0  0  0  0
   -0.9247    1.2213    2.0872 O   0  0  0  0  0  0  0  0  0  0  0  0
   -2.4106    2.3553   -0.6653 C   0  0  0  0  0  0  0  0  0  0  0  0
   -2.8254    2.4352    2.4150 H   0  0  0  0  0  0  0  0  0  0  0  0
   -3.4836    0.7082    0.2278 H   0  0  0  0  0  0  0  0  0  0  0  0
   -1.6866    3.1298   -0.3871 H   0  0  0  0  0  0  0  0  0  0  0  0
   -1.9704    1.7677   -1.4777 H   0  0  0  0  0  0  0  0  0  0  0  0
   -3.3030    2.8584   -1.0531 H   0  0  0  0  0  0  0  0  0  0  0  0
   -1.1107   -0.2839    0.3303 N   0  0  0  0  0  0  0  0  0  0  0  0
    0.0490   -1.0750    0.6539 C   0  0  2  0  0  0  0  0  0  0  0  0
    0.8769   -0.2868    1.6647 C   0  0  0  0  0  0  0  0  0  0  0  0
    0.8881   -0.5427    2.8671 O   0  0  0  0  0  0  0  0  0  0  0  0
    0.8769   -1.4507   -0.5837 C   0  0  2  0  0  0  0  0  0  0  0  0
    1.3604   -0.2807   -1.2417 O   0  0  0  0  0  0  0  0  0  0  0  0
    0.0688   -2.2538   -1.5958 C   0  0  0  0  0  0  0  0  0  0  0  0
   -1.6733   -0.5660   -0.4691 H   0  0  0  0  0  0  0  0  0  0  0  0
   -0.3219   -1.9828    1.1452 H   0  0  0  0  0  0  0  0  0  0  0  0
    1.7512   -2.0434   -0.2905 H   0  0  0  0  0  0  0  0  0  0  0  0
    1.9112   -0.5876   -1.9780 H   0  0  0  0  0  0  0  0  0  0  0  0
   -0.8206   -1.7049   -1.9238 H   0  0  0  0  0  0  0  0  0  0  0  0
   -0.2430   -3.2172   -1.1813 H   0  0  0  0  0  0  0  0  0  0  0  0
    0.6666   -2.4400   -2.4949 H   0  0  0  0  0  0  0  0  0  0  0  0
    1.5619    0.7652    1.0733 N   0  0  0  0  0  0  0  0  0  0  0  0
    2.3887    1.6768    1.8288 C   0  0  2  0  0  0  0  0  0  0  0  0
    3.7171    0.9861    2.1072 C   0  0  0  0  0  0  0  0  0  0  0  0
    3.8529   -0.2356    2.0978 O   0  0  0  0  0  0  0  0  0  0  0  0
    1.7109    2.0941    3.1246 C   0  0  0  0  0  0  0  0  0  0  0  0
    1.4784    0.8993    0.0698 H   0  0  0  0  0  0  0  0  0  0  0  0
    2.5578    2.5521    1.1921 H   0  0  0  0  0  0  0  0  0  0  0  0
    1.5332    1.2303    3.7756 H   0  0  0  0  0  0  0  0  0  0  0  0
    2.3266    2.8073    3.6826 H   0  0  0  0  0  0  0  0  0  0  0  0
    0.7420    2.5639    2.9239 H   0  0  0  0  0  0  0  0  0  0  0  0
    4.7234    1.8927    2.4098 N   0  0  0  0  0  0  0  0  0  0  0  0
    6.0726    1.4839    2.7239 C   0  0  0  0  0  0  0  0  0  0  0  0
    4.5258    2.8885    2.3755 H   0  0  0  0  0  0  0  0  0  0  0  0
    6.1769    1.3675    3.8127 H   0  0  0  0  0  0  0  0  0  0  0  0
    6.2893    0.5251    2.2303 H   0  0  0  0  0  0  0  0  0  0  0  0
    6.7793    2.2478    2.3676 H   0  0  0  0  0  0  0  0  0  0  0  0
  1  3  1  0  0  0  0
  1  7  1  0  0  0  0
  1  2  2  0  0  0  0
 32 33  1  0  0  0  0
 33 41  1  0  0  0  0
 33 34  2  0  0  0  0
  8  9  1  0  0  0  0
  9 17  1  0  0  0  0
  9 10  2  0  0  0  0
 18 19  1  0  0  0  0
 19 31  1  0  0  0  0
 19 20  2  0  0  0  0
 32 35  1  0  0  0  0
  8 11  1  0  0  0  0
 21 23  1  0  0  0  0
 41 42  1  0  0  0  0
 31 32  1  0  0  0  0
  7  8  1  0  0  0  0
 18 21  1  0  0  0  0
 17 18  1  0  0  0  0
 21 22  1  0  0  0  0
  3  4  1  0  0  0  0
  3  5  1  0  0  0  0
  3  6  1  0  0  0  0
 35 38  1  0  0  0  0
 35 39  1  0  0  0  0
 35 40  1  0  0  0  0
 11 14  1  0  0  0  0
 11 15  1  0  0  0  0
 11 16  1  0  0  0  0
 23 28  1  0  0  0  0
 23 29  1  0  0  0  0
 23 30  1  0  0  0  0
 42 44  1  0  0  0  0
 42 45  1  0  0  0  0
 42 46  1  0  0  0  0
 32 37  1  0  0  0  0
  8 13  1  0  0  0  0
 18 25  1  0  0  0  0
 21 26  1  0  0  0  0
 41 43  1  0  0  0  0
  7 12  1  0  0  0  0
 31 36  1  0  0  0  0
 17 24  1  0  0  0  0
 22 27  1  0  0  0  0
M  END
$$$$

  -OEChem-05262214473D

 46 45  0     1  0  0  0  0  0999 V2000
   -4.6700    2.7214    1.5150 C   0  0  0  0  0  0  0  0  0  0  0  0
   -5.4532    2.5715    0.5845 O   0  0  0  0  0  0  0  0  0  0  0  0
   -5.0996    3.4865    2.7226 C   0  0  0  0  0  0  0  0  0  0  0  0
   -4.8796    4.5629    2.6387 H   0  0  0  0  0  0  0  0  0  0  0  0
   -6.1861    3.4241    2.8954 H   0  0  0  0  0  0  0  0  0  0  0  0
   -4.6369    3.1693    3.6708 H   0  0  0  0  0  0  0  0  0  0  0  0
   -3.3731    2.2391    1.5790 N   0  0  0  0  0  0  0  0  0  0  0  0
   -2.7599    1.4751    0.5247 C   0  0  2  0  0  0  0  0  0  0  0  0
   -1.5143    0.8067    1.0915 C   0  0  0  0  0  0  0  0  0  0  0  0
   -0.9247    1.2213    2.0872 O   0  0  0  0  0  0  0  0  0  0  0  0
   -2.4106    2.3553   -0.6653 C   0  0  0  0  0  0  0  0  0  0  0  0
   -2.8254    2.4352    2.4150 H   0  0  0  0  0  0  0  0  0  0  0  0
   -3.4836    0.7082    0.2278 H   0  0  0  0  0  0  0  0  0  0  0  0
   -1.6866    3.1298   -0.3871 H   0  0  0  0  0  0  0  0  0  0  0  0
   -1.9704    1.7677   -1.4777 H   0  0  0  0  0  0  0  0  0  0  0  0
   -3.3030    2.8584   -1.0531 H   0  0  0  0  0  0  0  0  0  0  0  0
   -1.1107   -0.2839    0.3303 N   0  0  0  0  0  0  0  0  0  0  0  0
    0.0490   -1.0750    0.6539 C   0  0  2  0  0  0  0  0  0  0  0  0
    0.8769   -0.2868    1.6647 C   0  0  0  0  0  0  0  0  0  0  0  0
    1.1047   -0.6892    2.8038 O   0  0  0  0  0  0  0  0  0  0  0  0
    0.8769   -1.4507   -0.5837 C   0  0  2  0  0  0  0  0  0  0  0  0
    1.3604   -0.2807   -1.2417 O   0  0  0  0  0  0  0  0  0  0  0  0
    0.0688   -2.2538   -1.5958 C   0  0  0  0  0  0  0  0  0  0  0  0
   -1.6733   -0.5660   -0.4691 H   0  0  0  0  0  0  0  0  0  0  0  0
   -0.3219   -1.9828    1.1452 H   0  0  0  0  0  0  0  0  0  0  0  0
    1.7512   -2.0434   -0.2905 H   0  0  0  0  0  0  0  0  0  0  0  0
    1.9112   -0.5876   -1.9780 H   0  0  0  0  0  0  0  0  0  0  0  0
   -0.8206   -1.7049   -1.9238 H   0  0  0  0  0  0  0  0  0  0  0  0
   -0.2430   -3.2172   -1.1813 H   0  0  0  0  0  0  0  0  0  0  0  0
    0.6666   -2.4400   -2.4949 H   0  0  0  0  0  0  0  0  0  0  0  0
    1.2888    0.9391    1.1614 N   0  0  0  0  0  0  0  0  0  0  0  0
    2.0584    1.8802    1.9407 C   0  0  2  0  0  0  0  0  0  0  0  0
    3.5074    1.4114    1.9474 C   0  0  0  0  0  0  0  0  0  0  0  0
    3.8363    0.2460    1.7359 O   0  0  0  0  0  0  0  0  0  0  0  0
    1.5185    1.9976    3.3575 C   0  0  0  0  0  0  0  0  0  0  0  0
    1.0391    1.1839    0.2077 H   0  0  0  0  0  0  0  0  0  0  0  0
    1.9889    2.8462    1.4287 H   0  0  0  0  0  0  0  0  0  0  0  0
    1.5799    1.0394    3.8862 H   0  0  0  0  0  0  0  0  0  0  0  0
    2.0853    2.7326    3.9385 H   0  0  0  0  0  0  0  0  0  0  0  0
    0.4675    2.3061    3.3498 H   0  0  0  0  0  0  0  0  0  0  0  0
    4.3868    2.4385    2.2599 N   0  0  0  0  0  0  0  0  0  0  0  0
    5.8156    2.2437    2.3419 C   0  0  0  0  0  0  0  0  0  0  0  0
    4.0277    3.3780    2.4016 H   0  0  0  0  0  0  0  0  0  0  0  0
    6.0951    2.0088    3.3796 H   0  0  0  0  0  0  0  0  0  0  0  0
    6.1103    1.4116    1.6856 H   0  0  0  0  0  0  0  0  0  0  0  0
    6.3297    3.1623    2.0228 H   0  0  0  0  0  0  0  0  0  0  0  0
  1  3  1  0  0  0  0
  1  7  1  0  0  0  0
  1  2  2  0  0  0  0
 32 33  1  0  0  0  0
 33 41  1  0  0  0  0
 33 34  2  0  0  0  0
  8  9  1  0  0  0  0
  9 17  1  0  0  0  0
  9 10  2  0  0  0  0
 18 19  1  0  0  0  0
 19 31  1  0  0  0  0
 19 20  2  0  0  0  0
 32 35  1  0  0  0  0
  8 11  1  0  0  0  0
 21 23  1  0  0  0  0
 41 42  1  0  0  0  0
 31 32  1  0  0  0  0
  7  8  1  0  0  0  0
 18 21  1  0  0  0  0
 17 18  1  0  0  0  0
 21 22  1  0  0  0  0
  3  4  1  0  0  0  0
  3  5  1  0  0  0  0
  3  6  1  0  0  0  0
 35 38  1  0  0  0  0
 35 39  1  0  0  0  0
 35 40  1  0  0  0  0
 11 14  1  0  0  0  0
 11 15  1  0  0  0  0
 11 16  1  0  0  0  0
 23 28  1  0  0  0  0
 23 29  1  0  0  0  0
 23 30  1  0  0  0  0
 42 44  1  0  0  0  0
 42 45  1  0  0  0  0
 42 46  1  0  0  0  0
 32 37  1  0  0  0  0
  8 13  1  0  0  0  0
 18 25  1  0  0  0  0
 21 26  1  0  0  0  0
 41 43  1  0  0  0  0
  7 12  1  0  0  0  0
 31 36  1  0  0  0  0
 17 24  1  0  0  0  0
 22 27  1  0  0  0  0
M  END
$$$$

  -OEChem-05262214473D

 46 45  0     1  0  0  0  0  0999 V2000
   -4.6700    2.7214    1.5150 C   0  0  0  0  0  0  0  0  0  0  0  0
   -5.4532    2.5715    0.5845 O   0  0  0  0  0  0  0  0  0  0  0  0
   -5.0996    3.4865    2.7226 C   0  0  0  0  0  0  0  0  0  0  0  0
   -4.8796    4.5629    2.6387 H   0  0  0  0  0  0  0  0  0  0  0  0
   -6.1861    3.4241    2.8954 H   0  0  0  0  0  0  0  0  0  0  0  0
   -4.6369    3.1693    3.6708 H   0  0  0  0  0  0  0  0  0  0  0  0
   -3.3731    2.2391    1.5790 N   0  0  0  0  0  0  0  0  0  0  0  0
   -2.7599    1.4751    0.5247 C   0  0  2  0  0  0  0  0  0  0  0  0
   -1.5143    0.8067    1.0915 C   0  0  0  0  0  0  0  0  0  0  0  0
   -0.9247    1.2213    2.0872 O   0  0  0  0  0  0  0  0  0  0  0  0
   -2.4106    2.3553   -0.6653 C   0  0  0  0  0  0  0  0  0  0  0  0
   -2.8254    2.4352    2.4150 H   0  0  0  0  0  0  0  0  0  0  0  0
   -3.4836    0.7082    0.2278 H   0  0  0  0  0  0  0  0  0  0  0  0
   -1.6866    3.1298   -0.3871 H   0  0  0  0  0  0  0  0  0  0  0  0
   -1.9704    1.7677   -1.4777 H   0  0  0  0  0  0  0  0  0  0  0  0
   -3.3030    2.8584   -1.0531 H   0  0  0  0  0  0  0  0  0  0  0  0
   -1.1107   -0.2839    0.3303 N   0  0  0  0  0  0  0  0  0  0  0  0
    0.0490   -1.0750    0.6539 C   0  0  2  0  0  0  0  0  0  0  0  0
    0.8769   -0.2868    1.6647 C   0  0  0  0  0  0  0  0  0  0  0  0
    1.3306   -0.7845    2.6931 O   0  0  0  0  0  0  0  0  0  0  0  0
    0.8769   -1.4507   -0.5837 C   0  0  2  0  0  0  0  0  0  0  0  0
    1.3604   -0.2807   -1.2417 O   0  0  0  0  0  0  0  0  0  0  0  0
    0.0688   -2.2538   -1.5958 C   0  0  0  0  0  0  0  0  0  0  0  0
   -1.6733   -0.5660   -0.4691 H   0  0  0  0  0  0  0  0  0  0  0  0
   -0.3219   -1.9828    1.1452 H   0  0  0  0  0  0  0  0  0  0  0  0
    1.7512   -2.0434   -0.2905 H   0  0  0  0  0  0  0  0  0  0  0  0
    1.9112   -0.5876   -1.9780 H   0  0  0  0  0  0  0  0  0  0  0  0
   -0.8206   -1.7049   -1.9238 H   0  0  0  0  0  0  0  0  0  0  0  0
   -0.2430   -3.2172   -1.1813 H   0  0  0  0  0  0  0  0  0  0  0  0
    0.6666   -2.4400   -2.4949 H   0  0  0  0  0  0  0  0  0  0  0  0
    1.0069    1.0478    1.3074 N   0  0  0  0  0  0  0  0  0  0  0  0
    1.7194    2.0044    2.1215 C   0  0  2  0  0  0  0  0  0  0  0  0
    3.2105    1.8086    1.8808 C   0  0  0  0  0  0  0  0  0  0  0  0
    3.6893    0.7591    1.4561 O   0  0  0  0  0  0  0  0  0  0  0  0
    1.3803    1.8387    3.5946 C   0  0  0  0  0  0  0  0  0  0  0  0
    0.5845    1.3642    0.4395 H   0  0  0  0  0  0  0  0  0  0  0  0
    1.4205    2.9996    1.7747 H   0  0  0  0  0  0  0  0  0  0  0  0
    1.6725    0.8474    3.9601 H   0  0  0  0  0  0  0  0  0  0  0  0
    1.8993    2.5831    4.2075 H   0  0  0  0  0  0  0  0  0  0  0  0
    0.3035    1.9503    3.7616 H   0  0  0  0  0  0  0  0  0  0  0  0
    3.9481    2.9291    2.2367 N   0  0  0  0  0  0  0  0  0  0  0  0
    5.3860    2.9871    2.1140 C   0  0  0  0  0  0  0  0  0  0  0  0
    3.4662    3.7619    2.5622 H   0  0  0  0  0  0  0  0  0  0  0  0
    5.8483    2.6751    3.0622 H   0  0  0  0  0  0  0  0  0  0  0  0
    5.7126    2.3137    1.3079 H   0  0  0  0  0  0  0  0  0  0  0  0
    5.6924    4.0169    1.8782 H   0  0  0  0  0  0  0  0  0  0  0  0
  1  3  1  0  0  0  0
  1  7  1  0  0  0  0
  1  2  2  0  0  0  0
 32 33  1  0  0  0  0
 33 41  1  0  0  0  0
 33 34  2  0  0  0  0
  8  9  1  0  0  0  0
  9 17  1  0  0  0  0
  9 10  2  0  0  0  0
 18 19  1  0  0  0  0
 19 31  1  0  0  0  0
 19 20  2  0  0  0  0
 32 35  1  0  0  0  0
  8 11  1  0  0  0  0
 21 23  1  0  0  0  0
 41 42  1  0  0  0  0
 31 32  1  0  0  0  0
  7  8  1  0  0  0  0
 18 21  1  0  0  0  0
 17 18  1  0  0  0  0
 21 22  1  0  0  0  0
  3  4  1  0  0  0  0
  3  5  1  0  0  0  0
  3  6  1  0  0  0  0
 35 38  1  0  0  0  0
 35 39  1  0  0  0  0
 35 40  1  0  0  0  0
 11 14  1  0  0  0  0
 11 15  1  0  0  0  0
 11 16  1  0  0  0  0
 23 28  1  0  0  0  0
 23 29  1  0  0  0  0
 23 30  1  0  0  0  0
 42 44  1  0  0  0  0
 42 45  1  0  0  0  0
 42 46  1  0  0  0  0
 32 37  1  0  0  0  0
  8 13  1  0  0  0  0
 18 25  1  0  0  0  0
 21 26  1  0  0  0  0
 41 43  1  0  0  0  0
  7 12  1  0  0  0  0
 31 36  1  0  0  0  0
 17 24  1  0  0  0  0
 22 27  1  0  0  0  0
M  END
$$$$

  -OEChem-05262214473D

 46 45  0     1  0  0  0  0  0999 V2000
   -4.6700    2.7214    1.5150 C   0  0  0  0  0  0  0  0  0  0  0  0
   -5.4532    2.5715    0.5845 O   0  0  0  0  0  0  0  0  0  0  0  0
   -5.0996    3.4865    2.7226 C   0  0  0  0  0  0  0  0  0  0  0  0
   -4.8796    4.5629    2.6387 H   0  0  0  0  0  0  0  0  0  0  0  0
   -6.1861    3.4241    2.8954 H   0  0  0  0  0  0  0  0  0  0  0  0
   -4.6369    3.1693    3.6708 H   0  0  0  0  0  0  0  0  0  0  0  0
   -3.3731    2.2391    1.5790 N   0  0  0  0  0  0  0  0  0  0  0  0
   -2.7599    1.4751    0.5247 C   0  0  2  0  0  0  0  0  0  0  0  0
   -1.5143    0.8067    1.0915 C   0  0  0  0  0  0  0  0  0  0  0  0
   -0.9247    1.2213    2.0872 O   0  0  0  0  0  0  0  0  0  0  0  0
   -2.4106    2.3553   -0.6653 C   0  0  0  0  0  0  0  0  0  0  0  0
   -2.8254    2.4352    2.4150 H   0  0  0  0  0  0  0  0  0  0  0  0
   -3.4836    0.7082    0.2278 H   0  0  0  0  0  0  0  0  0  0  0  0
   -1.6866    3.1298   -0.3871 H   0  0  0  0  0  0  0  0  0  0  0  0
   -1.9704    1.7677   -1.4777 H   0  0  0  0  0  0  0  0  0  0  0  0
   -3.3030    2.8584   -1.0531 H   0  0  0  0  0  0  0  0  0  0  0  0
   -1.1107   -0.2839    0.3303 N   0  0  0  0  0  0  0  0  0  0  0  0
    0.0490   -1.0750    0.6539 C   0  0  2  0  0  0  0  0  0  0  0  0
    0.8769   -0.2868    1.6647 C   0  0  0  0  0  0  0  0  0  0  0  0
    1.5504   -0.8224    2.5427 O   0  0  0  0  0  0  0  0  0  0  0  0
    0.8769   -1.4507   -0.5837 C   0  0  2  0  0  0  0  0  0  0  0  0
    1.3604   -0.2807   -1.2417 O   0  0  0  0  0  0  0  0  0  0  0  0
    0.0688   -2.2538   -1.5958 C   0  0  0  0  0  0  0  0  0  0  0  0
   -1.6733   -0.5660   -0.4691 H   0  0  0  0  0  0  0  0  0  0  0  0
   -0.3219   -1.9828    1.1452 H   0  0  0  0  0  0  0  0  0  0  0  0
    1.7512   -2.0434   -0.2905 H   0  0  0  0  0  0  0  0  0  0  0  0
    1.9112   -0.5876   -1.9780 H   0  0  0  0  0  0  0  0  0  0  0  0
   -0.8206   -1.7049   -1.9238 H   0  0  0  0  0  0  0  0  0  0  0  0
   -0.2430   -3.2172   -1.1813 H   0  0  0  0  0  0  0  0  0  0  0  0
    0.6666   -2.4400   -2.4949 H   0  0  0  0  0  0  0  0  0  0  0  0
    0.7356    1.0840    1.5014 N   0  0  0  0  0  0  0  0  0  0  0  0
    1.3949    2.0408    2.3589 C   0  0  2  0  0  0  0  0  0  0  0  0
    2.8466    2.1508    1.9119 C   0  0  0  0  0  0  0  0  0  0  0  0
    3.4219    1.2689    1.2776 O   0  0  0  0  0  0  0  0  0  0  0  0
    1.3057    1.6282    3.8199 C   0  0  0  0  0  0  0  0  0  0  0  0
    0.1454    1.4278    0.7495 H   0  0  0  0  0  0  0  0  0  0  0  0
    0.8914    3.0017    2.2064 H   0  0  0  0  0  0  0  0  0  0  0  0
    1.8048    0.6675    3.9921 H   0  0  0  0  0  0  0  0  0  0  0  0
    1.7812    2.3690    4.4711 H   0  0  0  0  0  0  0  0  0  0  0  0
    0.2611    1.5206    4.1314 H   0  0  0  0  0  0  0  0  0  0  0  0
    3.4371    3.3309    2.3419 N   0  0  0  0  0  0  0  0  0  0  0  0
    4.8131    3.6636    2.0557 C   0  0  0  0  0  0  0  0  0  0  0  0
    2.8794    4.0138    2.8463 H   0  0  0  0  0  0  0  0  0  0  0  0
    5.4532    3.3210    2.8821 H   0  0  0  0  0  0  0  0  0  0  0  0
    5.1232    3.1699    1.1230 H   0  0  0  0  0  0  0  0  0  0  0  0
    4.9111    4.7535    1.9439 H   0  0  0  0  0  0  0  0  0  0  0  0
  1  3  1  0  0  0  0
  1  7  1  0  0  0  0
  1  2  2  0  0  0  0
 32 33  1  0  0  0  0
 33 41  1  0  0  0  0
 33 34  2  0  0  0  0
  8  9  1  0  0  0  0
  9 17  1  0  0  0  0
  9 10  2  0  0  0  0
 18 19  1  0  0  0  0
 19 31  1  0  0  0  0
 19 20  2  0  0  0  0
 32 35  1  0  0  0  0
  8 11  1  0  0  0  0
 21 23  1  0  0  0  0
 41 42  1  0  0  0  0
 31 32  1  0  0  0  0
  7  8  1  0  0  0  0
 18 21  1  0  0  0  0
 17 18  1  0  0  0  0
 21 22  1  0  0  0  0
  3  4  1  0  0  0  0
  3  5  1  0  0  0  0
  3  6  1  0  0  0  0
 35 38  1  0  0  0  0
 35 39  1  0  0  0  0
 35 40  1  0  0  0  0
 11 14  1  0  0  0  0
 11 15  1  0  0  0  0
 11 16  1  0  0  0  0
 23 28  1  0  0  0  0
 23 29  1  0  0  0  0
 23 30  1  0  0  0  0
 42 44  1  0  0  0  0
 42 45  1  0  0  0  0
 42 46  1  0  0  0  0
 32 37  1  0  0  0  0
  8 13  1  0  0  0  0
 18 25  1  0  0  0  0
 21 26  1  0  0  0  0
 41 43  1  0  0  0  0
  7 12  1  0  0  0  0
 31 36  1  0  0  0  0
 17 24  1  0  0  0  0
 22 27  1  0  0  0  0
M  END
$$$$

  -OEChem-05262214473D

 46 45  0     1  0  0  0  0  0999 V2000
   -4.6700    2.7214    1.5150 C   0  0  0  0  0  0  0  0  0  0  0  0
   -5.4532    2.5715    0.5845 O   0  0  0  0  0  0  0  0  0  0  0  0
   -5.0996    3.4865    2.7226 C   0  0  0  0  0  0  0  0  0  0  0  0
   -4.8796    4.5629    2.6387 H   0  0  0  0  0  0  0  0  0  0  0  0
   -6.1861    3.4241    2.8954 H   0  0  0  0  0  0  0  0  0  0  0  0
   -4.6369    3.1693    3.6708 H   0  0  0  0  0  0  0  0  0  0  0  0
   -3.3731    2.2391    1.5790 N   0  0  0  0  0  0  0  0  0  0  0  0
   -2.7599    1.4751    0.5247 C   0  0  2  0  0  0  0  0  0  0  0  0
   -1.5143    0.8067    1.0915 C   0  0  0  0  0  0  0  0  0  0  0  0
   -0.9247    1.2213    2.0872 O   0  0  0  0  0  0  0  0  0  0  0  0
   -2.4106    2.3553   -0.6653 C   0  0  0  0  0  0  0  0  0  0  0  0
   -2.8254    2.4352    2.4150 H   0  0  0  0  0  0  0  0  0  0  0  0
   -3.4836    0.7082    0.2278 H   0  0  0  0  0  0  0  0  0  0  0  0
   -1.6866    3.1298   -0.3871 H   0  0  0  0  0  0  0  0  0  0  0  0
   -1.9704    1.7677   -1.4777 H   0  0  0  0  0  0  0  0  0  0  0  0
   -3.3030    2.8584   -1.0531 H   0  0  0  0  0  0  0  0  0  0  0  0
   -1.1107   -0.2839    0.3303 N   0  0  0  0  0  0  0  0  0  0  0  0
    0.0490   -1.0750    0.6539 C   0  0  2  0  0  0  0  0  0  0  0  0
    0.8769   -0.2868    1.6647 C   0  0  0  0  0  0  0  0  0  0  0  0
    1.7491   -0.8002    2.3626 O   0  0  0  0  0  0  0  0  0  0  0  0
    0.8769   -1.4507   -0.5837 C   0  0  2  0  0  0  0  0  0  0  0  0
    1.3604   -0.2807   -1.2417 O   0  0  0  0  0  0  0  0  0  0  0  0
    0.0688   -2.2538   -1.5958 C   0  0  0  0  0  0  0  0  0  0  0  0
   -1.6733   -0.5660   -0.4691 H   0  0  0  0  0  0  0  0  0  0  0  0
   -0.3219   -1.9828    1.1452 H   0  0  0  0  0  0  0  0  0  0  0  0
    1.7512   -2.0434   -0.2905 H   0  0  0  0  0  0  0  0  0  0  0  0
    1.9112   -0.5876   -1.9780 H   0  0  0  0  0  0  0  0  0  0  0  0
   -0.8206   -1.7049   -1.9238 H   0  0  0  0  0  0  0  0  0  0  0  0
   -0.2430   -3.2172   -1.1813 H   0  0  0  0  0  0  0  0  0  0  0  0
    0.6666   -2.4400   -2.4949 H   0  0  0  0  0  0  0  0  0  0  0  0
    0.4933    1.0452    1.7302 N   0  0  0  0  0  0  0  0  0  0  0  0
    1.1069    1.9870    2.6367 C   0  0  2  0  0  0  0  0  0  0  0  0
    2.4407    2.4146    2.0387 C   0  0  0  0  0  0  0  0  0  0  0  0
    3.0524    1.7405    1.2125 O   0  0  0  0  0  0  0  0  0  0  0  0
    1.2999    1.3804    4.0178 C   0  0  0  0  0  0  0  0  0  0  0  0
   -0.2481    1.3704    1.1166 H   0  0  0  0  0  0  0  0  0  0  0  0
    0.4377    2.8524    2.6944 H   0  0  0  0  0  0  0  0  0  0  0  0
    1.9676    0.5119    3.9800 H   0  0  0  0  0  0  0  0  0  0  0  0
    1.7390    2.1049    4.7115 H   0  0  0  0  0  0  0  0  0  0  0  0
    0.3433    1.0463    4.4339 H   0  0  0  0  0  0  0  0  0  0  0  0
    2.8887    3.6167    2.5682 N   0  0  0  0  0  0  0  0  0  0  0  0
    4.1360    4.2270    2.1710 C   0  0  0  0  0  0  0  0  0  0  0  0
    2.3075    4.1167    3.2346 H   0  0  0  0  0  0  0  0  0  0  0  0
    4.9368    3.9024    2.8517 H   0  0  0  0  0  0  0  0  0  0  0  0
    4.3824    3.9219    1.1433 H   0  0  0  0  0  0  0  0  0  0  0  0
    4.0388    5.3218    2.2151 H   0  0  0  0  0  0  0  0  0  0  0  0
  1  3  1  0  0  0  0
  1  7  1  0  0  0  0
  1  2  2  0  0  0  0
 32 33  1  0  0  0  0
 33 41  1  0  0  0  0
 33 34  2  0  0  0  0
  8  9  1  0  0  0  0
  9 17  1  0  0  0  0
  9 10  2  0  0  0  0
 18 19  1  0  0  0  0
 19 31  1  0  0  0  0
 19 20  2  0  0  0  0
 32 35  1  0  0  0  0
  8 11  1  0  0  0  0
 21 23  1  0  0  0  0
 41 42  1  0  0  0  0
 31 32  1  0  0  0  0
  7  8  1  0  0  0  0
 18 21  1  0  0  0  0
 17 18  1  0  0  0  0
 21 22  1  0  0  0  0
  3  4  1  0  0  0  0
  3  5  1  0  0  0  0
  3  6  1  0  0  0  0
 35 38  1  0  0  0  0
 35 39  1  0  0  0  0
 35 40  1  0  0  0  0
 11 14  1  0  0  0  0
 11 15  1  0  0  0  0
 11 16  1  0  0  0  0
 23 28  1  0  0  0  0
 23 29  1  0  0  0  0
 23 30  1  0  0  0  0
 42 44  1  0  0  0  0
 42 45  1  0  0  0  0
 42 46  1  0  0  0  0
 32 37  1  0  0  0  0
  8 13  1  0  0  0  0
 18 25  1  0  0  0  0
 21 26  1  0  0  0  0
 41 43  1  0  0  0  0
  7 12  1  0  0  0  0
 31 36  1  0  0  0  0
 17 24  1  0  0  0  0
 22 27  1  0  0  0  0
M  END
$$$$

  -OEChem-05262214473D

 46 45  0     1  0  0  0  0  0999 V2000
   -4.6700    2.7214    1.5150 C   0  0  0  0  0  0  0  0  0  0  0  0
   -5.4532    2.5715    0.5845 O   0  0  0  0  0  0  0  0  0  0  0  0
   -5.0996    3.4865    2.7226 C   0  0  0  0  0  0  0  0  0  0  0  0
   -4.8796    4.5629    2.6387 H   0  0  0  0  0  0  0  0  0  0  0  0
   -6.1861    3.4241    2.8954 H   0  0  0  0  0  0  0  0  0  0  0  0
   -4.6369    3.1693    3.6708 H   0  0  0  0  0  0  0  0  0  0  0  0
   -3.3731    2.2391    1.5790 N   0  0  0  0  0  0  0  0  0  0  0  0
   -2.7599    1.4751    0.5247 C   0  0  2  0  0  0  0  0  0  0  0  0
   -1.5143    0.8067    1.0915 C   0  0  0  0  0  0  0  0  0  0  0  0
   -0.9247    1.2213    2.0872 O   0  0  0  0  0  0  0  0  0  0  0  0
   -2.4106    2.3553   -0.6653 C   0  0  0  0  0  0  0  0  0  0  0  0
   -2.8254    2.4352    2.4150 H   0  0  0  0  0  0  0  0  0  0  0  0
   -3.4836    0.7082    0.2278 H   0  0  0  0  0  0  0  0  0  0  0  0
   -1.6866    3.1298   -0.3871 H   0  0  0  0  0  0  0  0  0  0  0  0
   -1.9704    1.7677   -1.4777 H   0  0  0  0  0  0  0  0  0  0  0  0
   -3.3030    2.8584   -1.0531 H   0  0  0  0  0  0  0  0  0  0  0  0
   -1.1107   -0.2839    0.3303 N   0  0  0  0  0  0  0  0  0  0  0  0
    0.0490   -1.0750    0.6539 C   0  0  2  0  0  0  0  0  0  0  0  0
    0.8769   -0.2868    1.6647 C   0  0  0  0  0  0  0  0  0  0  0  0
    1.9131   -0.7194    2.1653 O   0  0  0  0  0  0  0  0  0  0  0  0
    0.8769   -1.4507   -0.5837 C   0  0  2  0  0  0  0  0  0  0  0  0
    1.3604   -0.2807   -1.2417 O   0  0  0  0  0  0  0  0  0  0  0  0
    0.0688   -2.2538   -1.5958 C   0  0  0  0  0  0  0  0  0  0  0  0
   -1.6733   -0.5660   -0.4691 H   0  0  0  0  0  0  0  0  0  0  0  0
   -0.3219   -1.9828    1.1452 H   0  0  0  0  0  0  0  0  0  0  0  0
    1.7512   -2.0434   -0.2905 H   0  0  0  0  0  0  0  0  0  0  0  0
    1.9112   -0.5876   -1.9780 H   0  0  0  0  0  0  0  0  0  0  0  0
   -0.8206   -1.7049   -1.9238 H   0  0  0  0  0  0  0  0  0  0  0  0
   -0.2430   -3.2172   -1.1813 H   0  0  0  0  0  0  0  0  0  0  0  0
    0.6666   -2.4400   -2.4949 H   0  0  0  0  0  0  0  0  0  0  0  0
    0.2964    0.9341    1.9781 N   0  0  0  0  0  0  0  0  0  0  0  0
    0.8751    1.8467    2.9360 C   0  0  2  0  0  0  0  0  0  0  0  0
    2.0204    2.5820    2.2525 C   0  0  0  0  0  0  0  0  0  0  0  0
    2.6059    2.1418    1.2653 O   0  0  0  0  0  0  0  0  0  0  0  0
    1.3633    1.1123    4.1750 C   0  0  0  0  0  0  0  0  0  0  0  0
   -0.5693    1.1959    1.5158 H   0  0  0  0  0  0  0  0  0  0  0  0
    0.0903    2.5619    3.2055 H   0  0  0  0  0  0  0  0  0  0  0  0
    2.1500    0.3913    3.9247 H   0  0  0  0  0  0  0  0  0  0  0  0
    1.7758    1.8089    4.9123 H   0  0  0  0  0  0  0  0  0  0  0  0
    0.5445    0.5599    4.6485 H   0  0  0  0  0  0  0  0  0  0  0  0
    2.3402    3.7670    2.9003 N   0  0  0  0  0  0  0  0  0  0  0  0
    3.4008    4.6389    2.4520 C   0  0  0  0  0  0  0  0  0  0  0  0
    1.7893    4.0634    3.7005 H   0  0  0  0  0  0  0  0  0  0  0  0
    4.3342    4.3797    2.9731 H   0  0  0  0  0  0  0  0  0  0  0  0
    3.5407    4.5184    1.3676 H   0  0  0  0  0  0  0  0  0  0  0  0
    3.1351    5.6831    2.6736 H   0  0  0  0  0  0  0  0  0  0  0  0
  1  3  1  0  0  0  0
  1  7  1  0  0  0  0
  1  2  2  0  0  0  0
 32 33  1  0  0  0  0
 33 41  1  0  0  0  0
 33 34  2  0  0  0  0
  8  9  1  0  0  0  0
  9 17  1  0  0  0  0
  9 10  2  0  0  0  0
 18 19  1  0  0  0  0
 19 31  1  0  0  0  0
 19 20  2  0  0  0  0
 32 35  1  0  0  0  0
  8 11  1  0  0  0  0
 21 23  1  0  0  0  0
 41 42  1  0  0  0  0
 31 32  1  0  0  0  0
  7  8  1  0  0  0  0
 18 21  1  0  0  0  0
 17 18  1  0  0  0  0
 21 22  1  0  0  0  0
  3  4  1  0  0  0  0
  3  5  1  0  0  0  0
  3  6  1  0  0  0  0
 35 38  1  0  0  0  0
 35 39  1  0  0  0  0
 35 40  1  0  0  0  0
 11 14  1  0  0  0  0
 11 15  1  0  0  0  0
 11 16  1  0  0  0  0
 23 28  1  0  0  0  0
 23 29  1  0  0  0  0
 23 30  1  0  0  0  0
 42 44  1  0  0  0  0
 42 45  1  0  0  0  0
 42 46  1  0  0  0  0
 32 37  1  0  0  0  0
  8 13  1  0  0  0  0
 18 25  1  0  0  0  0
 21 26  1  0  0  0  0
 41 43  1  0  0  0  0
  7 12  1  0  0  0  0
 31 36  1  0  0  0  0
 17 24  1  0  0  0  0
 22 27  1  0  0  0  0
M  END
$$$$

  -OEChem-05262214473D

 46 45  0     1  0  0  0  0  0999 V2000
   -4.6700    2.7214    1.5150 C   0  0  0  0  0  0  0  0  0  0  0  0
   -5.4532    2.5715    0.5845 O   0  0  0  0  0  0  0  0  0  0  0  0
   -5.0996    3.4865    2.7226 C   0  0  0  0  0  0  0  0  0  0  0  0
   -4.8796    4.5629    2.6387 H   0  0  0  0  0  0  0  0  0  0  0  0
   -6.1861    3.4241    2.8954 H   0  0  0  0  0  0  0  0  0  0  0  0
   -4.6369    3.1693    3.6708 H   0  0  0  0  0  0  0  0  0  0  0  0
   -3.3731    2.2391    1.5790 N   0  0  0  0  0  0  0  0  0  0  0  0
   -2.7599    1.4751    0.5247 C   0  0  2  0  0  0  0  0  0  0  0  0
   -1.5143    0.8067    1.0915 C   0  0  0  0  0  0  0  0  0  0  0  0
   -0.9247    1.2213    2.0872 O   0  0  0  0  0  0  0  0  0  0  0  0
   -2.4106    2.3553   -0.6653 C   0  0  0  0  0  0  0  0  0  0  0  0
   -2.8254    2.4352    2.4150 H   0  0  0  0  0  0  0  0  0  0  0  0
   -3.4836    0.7082    0.2278 H   0  0  0  0  0  0  0  0  0  0  0  0
   -1.6866    3.1298   -0.3871 H   0  0  0  0  0  0  0  0  0  0  0  0
   -1.9704    1.7677   -1.4777 H   0  0  0  0  0  0  0  0  0  0  0  0
   -3.3030    2.8584   -1.0531 H   0  0  0  0  0  0  0  0  0  0  0  0
   -1.1107   -0.2839    0.3303 N   0  0  0  0  0  0  0  0  0  0  0  0
    0.0490   -1.0750    0.6539 C   0  0  2  0  0  0  0  0  0  0  0  0
    0.8769   -0.2868    1.6647 C   0  0  0  0  0  0  0  0  0  0  0  0
    2.0312   -0.5855    1.9641 O   0  0  0  0  0  0  0  0  0  0  0  0
    0.8769   -1.4507   -0.5837 C   0  0  2  0  0  0  0  0  0  0  0  0
    1.3604   -0.2807   -1.2417 O   0  0  0  0  0  0  0  0  0  0  0  0
    0.0688   -2.2538   -1.5958 C   0  0  0  0  0  0  0  0  0  0  0  0
   -1.6733   -0.5660   -0.4691 H   0  0  0  0  0  0  0  0  0  0  0  0
   -0.3219   -1.9828    1.1452 H   0  0  0  0  0  0  0  0  0  0  0  0
    1.7512   -2.0434   -0.2905 H   0  0  0  0  0  0  0  0  0  0  0  0
    1.9112   -0.5876   -1.9780 H   0  0  0  0  0  0  0  0  0  0  0  0
   -0.8206   -1.7049   -1.9238 H   0  0  0  0  0  0  0  0  0  0  0  0
   -0.2430   -3.2172   -1.1813 H   0  0  0  0  0  0  0  0  0  0  0  0
    0.6666   -2.4400   -2.4949 H   0  0  0  0  0  0  0  0  0  0  0  0
    0.1585    0.7581    2.2283 N   0  0  0  0  0  0  0  0  0  0  0  0
    0.7153    1.6294    3.2364 C   0  0  2  0  0  0  0  0  0  0  0  0
    1.6142    2.6416    2.5386 C   0  0  0  0  0  0  0  0  0  0  0  0
    2.1128    2.4455    1.4323 O   0  0  0  0  0  0  0  0  0  0  0  0
    1.4914    0.8422    4.2807 C   0  0  0  0  0  0  0  0  0  0  0  0
   -0.7963    0.9163    1.9198 H   0  0  0  0  0  0  0  0  0  0  0  0
   -0.1271    2.1500    3.7048 H   0  0  0  0  0  0  0  0  0  0  0  0
    2.3394    0.3137    3.8300 H   0  0  0  0  0  0  0  0  0  0  0  0
    1.8888    1.5010    5.0598 H   0  0  0  0  0  0  0  0  0  0  0  0
    0.8509    0.0944    4.7606 H   0  0  0  0  0  0  0  0  0  0  0  0
    1.8291    3.7715    3.3154 N   0  0  0  0  0  0  0  0  0  0  0  0
    2.6575    4.8713    2.8795 C   0  0  0  0  0  0  0  0  0  0  0  0
    1.3602    3.8577    4.2124 H   0  0  0  0  0  0  0  0  0  0  0  0
    3.6865    4.7204    3.2379 H   0  0  0  0  0  0  0  0  0  0  0  0
    2.6554    4.9187    1.7806 H   0  0  0  0  0  0  0  0  0  0  0  0
    2.2616    5.8128    3.2879 H   0  0  0  0  0  0  0  0  0  0  0  0
  1  3  1  0  0  0  0
  1  7  1  0  0  0  0
  1  2  2  0  0  0  0
 32 33  1  0  0  0  0
 33 41  1  0  0  0  0
 33 34  2  0  0  0  0
  8  9  1  0  0  0  0
  9 17  1  0  0  0  0
  9 10  2  0  0  0  0
 18 19  1  0  0  0  0
 19 31  1  0  0  0  0
 19 20  2  0  0  0  0
 32 35  1  0  0  0  0
  8 11  1  0  0  0  0
 21 23  1  0  0  0  0
 41 42  1  0  0  0  0
 31 32  1  0  0  0  0
  7  8  1  0  0  0  0
 18 21  1  0  0  0  0
 17 18  1  0  0  0  0
 21 22  1  0  0  0  0
  3  4  1  0  0  0  0
  3  5  1  0  0  0  0
  3  6  1  0  0  0  0
 35 38  1  0  0  0  0
 35 39  1  0  0  0  0
 35 40  1  0  0  0  0
 11 14  1  0  0  0  0
 11 15  1  0  0  0  0
 11 16  1  0  0  0  0
 23 28  1  0  0  0  0
 23 29  1  0  0  0  0
 23 30  1  0  0  0  0
 42 44  1  0  0  0  0
 42 45  1  0  0  0  0
 42 46  1  0  0  0  0
 32 37  1  0  0  0  0
  8 13  1  0  0  0  0
 18 25  1  0  0  0  0
 21 26  1  0  0  0  0
 41 43  1  0  0  0  0
  7 12  1  0  0  0  0
 31 36  1  0  0  0  0
 17 24  1  0  0  0  0
 22 27  1  0  0  0  0
M  END
$$$$

  -OEChem-05262214473D

 46 45  0     1  0  0  0  0  0999 V2000
   -4.6700    2.7214    1.5150 C   0  0  0  0  0  0  0  0  0  0  0  0
   -5.4532    2.5715    0.5845 O   0  0  0  0  0  0  0  0  0  0  0  0
   -5.0996    3.4865    2.7226 C   0  0  0  0  0  0  0  0  0  0  0  0
   -4.8796    4.5629    2.6387 H   0  0  0  0  0  0  0  0  0  0  0  0
   -6.1861    3.4241    2.8954 H   0  0  0  0  0  0  0  0  0  0  0  0
   -4.6369    3.1693    3.6708 H   0  0  0  0  0  0  0  0  0  0  0  0
   -3.3731    2.2391    1.5790 N   0  0  0  0  0  0  0  0  0  0  0  0
   -2.7599    1.4751    0.5247 C   0  0  2  0  0  0  0  0  0  0  0  0
   -1.5143    0.8067    1.0915 C   0  0  0  0  0  0  0  0  0  0  0  0
   -0.9247    1.2213    2.0872 O   0  0  0  0  0  0  0  0  0  0  0  0
   -2.4106    2.3553   -0.6653 C   0  0  0  0  0  0  0  0  0  0  0  0
   -2.8254    2.4352    2.4150 H   0  0  0  0  0  0  0  0  0  0  0  0
   -3.4836    0.7082    0.2278 H   0  0  0  0  0  0  0  0  0  0  0  0
   -1.6866    3.1298   -0.3871 H   0  0  0  0  0  0  0  0  0  0  0  0
   -1.9704    1.7677   -1.4777 H   0  0  0  0  0  0  0  0  0  0  0  0
   -3.3030    2.8584   -1.0531 H   0  0  0  0  0  0  0  0  0  0  0  0
   -1.1107   -0.2839    0.3303 N   0  0  0  0  0  0  0  0  0  0  0  0
    0.0490   -1.0750    0.6539 C   0  0  2  0  0  0  0  0  0  0  0  0
    0.8769   -0.2868    1.6647 C   0  0  0  0  0  0  0  0  0  0  0  0
    2.0955   -0.4076    1.7727 O   0  0  0  0  0  0  0  0  0  0  0  0
    0.8769   -1.4507   -0.5837 C   0  0  2  0  0  0  0  0  0  0  0  0
    1.3604   -0.2807   -1.2417 O   0  0  0  0  0  0  0  0  0  0  0  0
    0.0688   -2.2538   -1.5958 C   0  0  0  0  0  0  0  0  0  0  0  0
   -1.6733   -0.5660   -0.4691 H   0  0  0  0  0  0  0  0  0  0  0  0
   -0.3219   -1.9828    1.1452 H   0  0  0  0  0  0  0  0  0  0  0  0
    1.7512   -2.0434   -0.2905 H   0  0  0  0  0  0  0  0  0  0  0  0
    1.9112   -0.5876   -1.9780 H   0  0  0  0  0  0  0  0  0  0  0  0
   -0.8206   -1.7049   -1.9238 H   0  0  0  0  0  0  0  0  0  0  0  0
   -0.2430   -3.2172   -1.1813 H   0  0  0  0  0  0  0  0  0  0  0  0
    0.6666   -2.4400   -2.4949 H   0  0  0  0  0  0  0  0  0  0  0  0
    0.0888    0.5294    2.4637 N   0  0  0  0  0  0  0  0  0  0  0  0
    0.6383    1.3499    3.5174 C   0  0  2  0  0  0  0  0  0  0  0  0
    1.2499    2.5894    2.8778 C   0  0  0  0  0  0  0  0  0  0  0  0
    1.6068    2.6308    1.7022 O   0  0  0  0  0  0  0  0  0  0  0  0
    1.6757    0.5883    4.3277 C   0  0  0  0  0  0  0  0  0  0  0  0
   -0.9137    0.5505    2.3011 H   0  0  0  0  0  0  0  0  0  0  0  0
   -0.1997    1.6447    4.1583 H   0  0  0  0  0  0  0  0  0  0  0  0
    2.5231    0.2846    3.7023 H   0  0  0  0  0  0  0  0  0  0  0  0
    2.0706    1.2023    5.1439 H   0  0  0  0  0  0  0  0  0  0  0  0
    1.2416   -0.3185    4.7625 H   0  0  0  0  0  0  0  0  0  0  0  0
    1.3901    3.6299    3.7854 N   0  0  0  0  0  0  0  0  0  0  0  0
    1.9570    4.9083    3.4245 C   0  0  0  0  0  0  0  0  0  0  0  0
    1.0495    3.5136    4.7353 H   0  0  0  0  0  0  0  0  0  0  0  0
    3.0379    4.9012    3.6281 H   0  0  0  0  0  0  0  0  0  0  0  0
    1.7868    5.0956    2.3540 H   0  0  0  0  0  0  0  0  0  0  0  0
    1.4777    5.7020    4.0164 H   0  0  0  0  0  0  0  0  0  0  0  0
  1  3  1  0  0  0  0
  1  7  1  0  0  0  0
  1  2  2  0  0  0  0
 32 33  1  0  0  0  0
 33 41  1  0  0  0  0
 33 34  2  0  0  0  0
  8  9  1  0  0  0  0
  9 17  1  0  0  0  0
  9 10  2  0  0  0  0
 18 19  1  0  0  0  0
 19 31  1  0  0  0  0
 19 20  2  0  0  0  0
 32 35  1  0  0  0  0
  8 11  1  0  0  0  0
 21 23  1  0  0  0  0
 41 42  1  0  0  0  0
 31 32  1  0  0  0  0
  7  8  1  0  0  0  0
 18 21  1  0  0  0  0
 17 18  1  0  0  0  0
 21 22  1  0  0  0  0
  3  4  1  0  0  0  0
  3  5  1  0  0  0  0
  3  6  1  0  0  0  0
 35 38  1  0  0  0  0
 35 39  1  0  0  0  0
 35 40  1  0  0  0  0
 11 14  1  0  0  0  0
 11 15  1  0  0  0  0
 11 16  1  0  0  0  0
 23 28  1  0  0  0  0
 23 29  1  0  0  0  0
 23 30  1  0  0  0  0
 42 44  1  0  0  0  0
 42 45  1  0  0  0  0
 42 46  1  0  0  0  0
 32 37  1  0  0  0  0
  8 13  1  0  0  0  0
 18 25  1  0  0  0  0
 21 26  1  0  0  0  0
 41 43  1  0  0  0  0
  7 12  1  0  0  0  0
 31 36  1  0  0  0  0
 17 24  1  0  0  0  0
 22 27  1  0  0  0  0
M  END
$$$$

  -OEChem-05262214473D

 46 45  0     1  0  0  0  0  0999 V2000
   -4.6700    2.7214    1.5150 C   0  0  0  0  0  0  0  0  0  0  0  0
   -5.4532    2.5715    0.5845 O   0  0  0  0  0  0  0  0  0  0  0  0
   -5.0996    3.4865    2.7226 C   0  0  0  0  0  0  0  0  0  0  0  0
   -4.8796    4.5629    2.6387 H   0  0  0  0  0  0  0  0  0  0  0  0
   -6.1861    3.4241    2.8954 H   0  0  0  0  0  0  0  0  0  0  0  0
   -4.6369    3.1693    3.6708 H   0  0  0  0  0  0  0  0  0  0  0  0
   -3.3731    2.2391    1.5790 N   0  0  0  0  0  0  0  0  0  0  0  0
   -2.7599    1.4751    0.5247 C   0  0  2  0  0  0  0  0  0  0  0  0
   -1.5143    0.8067    1.0915 C   0  0  0  0  0  0  0  0  0  0  0  0
   -0.9247    1.2213    2.0872 O   0  0  0  0  0  0  0  0  0  0  0  0
   -2.4106    2.3553   -0.6653 C   0  0  0  0  0  0  0  0  0  0  0  0
   -2.8254    2.4352    2.4150 H   0  0  0  0  0  0  0  0  0  0  0  0
   -3.4836    0.7082    0.2278 H   0  0  0  0  0  0  0  0  0  0  0  0
   -1.6866    3.1298   -0.3871 H   0  0  0  0  0  0  0  0  0  0  0  0
   -1.9704    1.7677   -1.4777 H   0  0  0  0  0  0  0  0  0  0  0  0
   -3.3030    2.8584   -1.0531 H   0  0  0  0  0  0  0  0  0  0  0  0
   -1.1107   -0.2839    0.3303 N   0  0  0  0  0  0  0  0  0  0  0  0
    0.0490   -1.0750    0.6539 C   0  0  2  0  0  0  0  0  0  0  0  0
    0.8769   -0.2868    1.6647 C   0  0  0  0  0  0  0  0  0  0  0  0
    2.1016   -0.1980    1.6043 O   0  0  0  0  0  0  0  0  0  0  0  0
    0.8769   -1.4507   -0.5837 C   0  0  2  0  0  0  0  0  0  0  0  0
    1.3604   -0.2807   -1.2417 O   0  0  0  0  0  0  0  0  0  0  0  0
    0.0688   -2.2538   -1.5958 C   0  0  0  0  0  0  0  0  0  0  0  0
   -1.6733   -0.5660   -0.4691 H   0  0  0  0  0  0  0  0  0  0  0  0
   -0.3219   -1.9828    1.1452 H   0  0  0  0  0  0  0  0  0  0  0  0
    1.7512   -2.0434   -0.2905 H   0  0  0  0  0  0  0  0  0  0  0  0
    1.9112   -0.5876   -1.9780 H   0  0  0  0  0  0  0  0  0  0  0  0
   -0.8206   -1.7049   -1.9238 H   0  0  0  0  0  0  0  0  0  0  0  0
   -0.2430   -3.2172   -1.1813 H   0  0  0  0  0  0  0  0  0  0  0  0
    0.6666   -2.4400   -2.4949 H   0  0  0  0  0  0  0  0  0  0  0  0
    0.0922    0.2635    2.6683 N   0  0  0  0  0  0  0  0  0  0  0  0
    0.6495    1.0273    3.7598 C   0  0  2  0  0  0  0  0  0  0  0  0
    0.9524    2.4288    3.2467 C   0  0  0  0  0  0  0  0  0  0  0  0
    1.1224    2.6852    2.0565 O   0  0  0  0  0  0  0  0  0  0  0  0
    1.9034    0.3681    4.3129 C   0  0  0  0  0  0  0  0  0  0  0  0
   -0.9133    0.1236    2.6337 H   0  0  0  0  0  0  0  0  0  0  0  0
   -0.1226    1.0805    4.5351 H   0  0  0  0  0  0  0  0  0  0  0  0
    2.6883    0.3059    3.5503 H   0  0  0  0  0  0  0  0  0  0  0  0
    2.3085    0.9332    5.1588 H   0  0  0  0  0  0  0  0  0  0  0  0
    1.6901   -0.6506    4.6541 H   0  0  0  0  0  0  0  0  0  0  0  0
    1.0532    3.3518    4.2782 N   0  0  0  0  0  0  0  0  0  0  0  0
    1.3468    4.7474    4.0498 C   0  0  0  0  0  0  0  0  0  0  0  0
    0.8782    3.0545    5.2336 H   0  0  0  0  0  0  0  0  0  0  0  0
    2.4326    4.9100    4.1171 H   0  0  0  0  0  0  0  0  0  0  0  0
    0.9941    5.0371    3.0489 H   0  0  0  0  0  0  0  0  0  0  0  0
    0.8369    5.3583    4.8093 H   0  0  0  0  0  0  0  0  0  0  0  0
  1  3  1  0  0  0  0
  1  7  1  0  0  0  0
  1  2  2  0  0  0  0
 32 33  1  0  0  0  0
 33 41  1  0  0  0  0
 33 34  2  0  0  0  0
  8  9  1  0  0  0  0
  9 17  1  0  0  0  0
  9 10  2  0  0  0  0
 18 19  1  0  0  0  0
 19 31  1  0  0  0  0
 19 20  2  0  0  0  0
 32 35  1  0  0  0  0
  8 11  1  0  0  0  0
 21 23  1  0  0  0  0
 41 42  1  0  0  0  0
 31 32  1  0  0  0  0
  7  8  1  0  0  0  0
 18 21  1  0  0  0  0
 17 18  1  0  0  0  0
 21 22  1  0  0  0  0
  3  4  1  0  0  0  0
  3  5  1  0  0  0  0
  3  6  1  0  0  0  0
 35 38  1  0  0  0  0
 35 39  1  0  0  0  0
 35 40  1  0  0  0  0
 11 14  1  0  0  0  0
 11 15  1  0  0  0  0
 11 16  1  0  0  0  0
 23 28  1  0  0  0  0
 23 29  1  0  0  0  0
 23 30  1  0  0  0  0
 42 44  1  0  0  0  0
 42 45  1  0  0  0  0
 42 46  1  0  0  0  0
 32 37  1  0  0  0  0
  8 13  1  0  0  0  0
 18 25  1  0  0  0  0
 21 26  1  0  0  0  0
 41 43  1  0  0  0  0
  7 12  1  0  0  0  0
 31 36  1  0  0  0  0
 17 24  1  0  0  0  0
 22 27  1  0  0  0  0
M  END
$$$$

  -OEChem-05262214473D

 46 45  0     1  0  0  0  0  0999 V2000
   -4.6700    2.7214    1.5150 C   0  0  0  0  0  0  0  0  0  0  0  0
   -5.4532    2.5715    0.5845 O   0  0  0  0  0  0  0  0  0  0  0  0
   -5.0996    3.4865    2.7226 C   0  0  0  0  0  0  0  0  0  0  0  0
   -4.8796    4.5629    2.6387 H   0  0  0  0  0  0  0  0  0  0  0  0
   -6.1861    3.4241    2.8954 H   0  0  0  0  0  0  0  0  0  0  0  0
   -4.6369    3.1693    3.6708 H   0  0  0  0  0  0  0  0  0  0  0  0
   -3.3731    2.2391    1.5790 N   0  0  0  0  0  0  0  0  0  0  0  0
   -2.7599    1.4751    0.5247 C   0  0  2  0  0  0  0  0  0  0  0  0
   -1.5143    0.8067    1.0915 C   0  0  0  0  0  0  0  0  0  0  0  0
   -0.9247    1.2213    2.0872 O   0  0  0  0  0  0  0  0  0  0  0  0
   -2.4106    2.3553   -0.6653 C   0  0  0  0  0  0  0  0  0  0  0  0
   -2.8254    2.4352    2.4150 H   0  0  0  0  0  0  0  0  0  0  0  0
   -3.4836    0.7082    0.2278 H   0  0  0  0  0  0  0  0  0  0  0  0
   -1.6866    3.1298   -0.3871 H   0  0  0  0  0  0  0  0  0  0  0  0
   -1.9704    1.7677   -1.4777 H   0  0  0  0  0  0  0  0  0  0  0  0
   -3.3030    2.8584   -1.0531 H   0  0  0  0  0  0  0  0  0  0  0  0
   -1.1107   -0.2839    0.3303 N   0  0  0  0  0  0  0  0  0  0  0  0
    0.0490   -1.0750    0.6539 C   0  0  2  0  0  0  0  0  0  0  0  0
    0.8769   -0.2868    1.6647 C   0  0  0  0  0  0  0  0  0  0  0  0
    2.0489    0.0292    1.4702 O   0  0  0  0  0  0  0  0  0  0  0  0
    0.8769   -1.4507   -0.5837 C   0  0  2  0  0  0  0  0  0  0  0  0
    1.3604   -0.2807   -1.2417 O   0  0  0  0  0  0  0  0  0  0  0  0
    0.0688   -2.2538   -1.5958 C   0  0  0  0  0  0  0  0  0  0  0  0
   -1.6733   -0.5660   -0.4691 H   0  0  0  0  0  0  0  0  0  0  0  0
   -0.3219   -1.9828    1.1452 H   0  0  0  0  0  0  0  0  0  0  0  0
    1.7512   -2.0434   -0.2905 H   0  0  0  0  0  0  0  0  0  0  0  0
    1.9112   -0.5876   -1.9780 H   0  0  0  0  0  0  0  0  0  0  0  0
   -0.8206   -1.7049   -1.9238 H   0  0  0  0  0  0  0  0  0  0  0  0
   -0.2430   -3.2172   -1.1813 H   0  0  0  0  0  0  0  0  0  0  0  0
    0.6666   -2.4400   -2.4949 H   0  0  0  0  0  0  0  0  0  0  0  0
    0.1685   -0.0215    2.8281 N   0  0  0  0  0  0  0  0  0  0  0  0
    0.7480    0.6835    3.9472 C   0  0  2  0  0  0  0  0  0  0  0  0
    0.7418    2.1709    3.6203 C   0  0  0  0  0  0  0  0  0  0  0  0
    0.6925    2.6050    2.4712 O   0  0  0  0  0  0  0  0  0  0  0  0
    2.1592    0.1966    4.2372 C   0  0  0  0  0  0  0  0  0  0  0  0
   -0.7953   -0.3355    2.8950 H   0  0  0  0  0  0  0  0  0  0  0  0
    0.0990    0.4958    4.8096 H   0  0  0  0  0  0  0  0  0  0  0  0
    2.8240    0.3761    3.3844 H   0  0  0  0  0  0  0  0  0  0  0  0
    2.5865    0.7119    5.1037 H   0  0  0  0  0  0  0  0  0  0  0  0
    2.1657   -0.8793    4.4429 H   0  0  0  0  0  0  0  0  0  0  0  0
    0.8413    2.9563    4.7602 N   0  0  0  0  0  0  0  0  0  0  0  0
    0.8686    4.3995    4.7127 C   0  0  0  0  0  0  0  0  0  0  0  0
    0.8581    2.5117    5.6734 H   0  0  0  0  0  0  0  0  0  0  0  0
    1.9118    4.7459    4.6716 H   0  0  0  0  0  0  0  0  0  0  0  0
    0.3314    4.7470    3.8179 H   0  0  0  0  0  0  0  0  0  0  0  0
    0.3829    4.8051    5.6125 H   0  0  0  0  0  0  0  0  0  0  0  0
  1  3  1  0  0  0  0
  1  7  1  0  0  0  0
  1  2  2  0  0  0  0
 32 33  1  0  0  0  0
 33 41  1  0  0  0  0
 33 34  2  0  0  0  0
  8  9  1  0  0  0  0
  9 17  1  0  0  0  0
  9 10  2  0  0  0  0
 18 19  1  0  0  0  0
 19 31  1  0  0  0  0
 19 20  2  0  0  0  0
 32 35  1  0  0  0  0
  8 11  1  0  0  0  0
 21 23  1  0  0  0  0
 41 42  1  0  0  0  0
 31 32  1  0  0  0  0
  7  8  1  0  0  0  0
 18 21  1  0  0  0  0
 17 18  1  0  0  0  0
 21 22  1  0  0  0  0
  3  4  1  0  0  0  0
  3  5  1  0  0  0  0
  3  6  1  0  0  0  0
 35 38  1  0  0  0  0
 35 39  1  0  0  0  0
 35 40  1  0  0  0  0
 11 14  1  0  0  0  0
 11 15  1  0  0  0  0
 11 16  1  0  0  0  0
 23 28  1  0  0  0  0
 23 29  1  0  0  0  0
 23 30  1  0  0  0  0
 42 44  1  0  0  0  0
 42 45  1  0  0  0  0
 42 46  1  0  0  0  0
 32 37  1  0  0  0  0
  8 13  1  0  0  0  0
 18 25  1  0  0  0  0
 21 26  1  0  0  0  0
 41 43  1  0  0  0  0
  7 12  1  0  0  0  0
 31 36  1  0  0  0  0
 17 24  1  0  0  0  0
 22 27  1  0  0  0  0
M  END
$$$$

  -OEChem-05262214473D

 46 45  0     1  0  0  0  0  0999 V2000
   -4.6700    2.7214    1.5150 C   0  0  0  0  0  0  0  0  0  0  0  0
   -5.4532    2.5715    0.5845 O   0  0  0  0  0  0  0  0  0  0  0  0
   -5.0996    3.4865    2.7226 C   0  0  0  0  0  0  0  0  0  0  0  0
   -4.8796    4.5629    2.6387 H   0  0  0  0  0  0  0  0  0  0  0  0
   -6.1861    3.4241    2.8954 H   0  0  0  0  0  0  0  0  0  0  0  0
   -4.6369    3.1693    3.6708 H   0  0  0  0  0  0  0  0  0  0  0  0
   -3.3731    2.2391    1.5790 N   0  0  0  0  0  0  0  0  0  0  0  0
   -2.7599    1.4751    0.5247 C   0  0  2  0  0  0  0  0  0  0  0  0
   -1.5143    0.8067    1.0915 C   0  0  0  0  0  0  0  0  0  0  0  0
   -0.9247    1.2213    2.0872 O   0  0  0  0  0  0  0  0  0  0  0  0
   -2.4106    2.3553   -0.6653 C   0  0  0  0  0  0  0  0  0  0  0  0
   -2.8254    2.4352    2.4150 H   0  0  0  0  0  0  0  0  0  0  0  0
   -3.4836    0.7082    0.2278 H   0  0  0  0  0  0  0  0  0  0  0  0
   -1.6866    3.1298   -0.3871 H   0  0  0  0  0  0  0  0  0  0  0  0
   -1.9704    1.7677   -1.4777 H   0  0  0  0  0  0  0  0  0  0  0  0
   -3.3030    2.8584   -1.0531 H   0  0  0  0  0  0  0  0  0  0  0  0
   -1.1107   -0.2839    0.3303 N   0  0  0  0  0  0  0  0  0  0  0  0
    0.0490   -1.0750    0.6539 C   0  0  2  0  0  0  0  0  0  0  0  0
    0.8769   -0.2868    1.6647 C   0  0  0  0  0  0  0  0  0  0  0  0
    1.9412    0.2585    1.3796 O   0  0  0  0  0  0  0  0  0  0  0  0
    0.8769   -1.4507   -0.5837 C   0  0  2  0  0  0  0  0  0  0  0  0
    1.3604   -0.2807   -1.2417 O   0  0  0  0  0  0  0  0  0  0  0  0
    0.0688   -2.2538   -1.5958 C   0  0  0  0  0  0  0  0  0  0  0  0
   -1.6733   -0.5660   -0.4691 H   0  0  0  0  0  0  0  0  0  0  0  0
   -0.3219   -1.9828    1.1452 H   0  0  0  0  0  0  0  0  0  0  0  0
    1.7512   -2.0434   -0.2905 H   0  0  0  0  0  0  0  0  0  0  0  0
    1.9112   -0.5876   -1.9780 H   0  0  0  0  0  0  0  0  0  0  0  0
   -0.8206   -1.7049   -1.9238 H   0  0  0  0  0  0  0  0  0  0  0  0
   -0.2430   -3.2172   -1.1813 H   0  0  0  0  0  0  0  0  0  0  0  0
    0.6666   -2.4400   -2.4949 H   0  0  0  0  0  0  0  0  0  0  0  0
    0.3123   -0.3062    2.9322 N   0  0  0  0  0  0  0  0  0  0  0  0
    0.9271    0.3420    4.0668 C   0  0  2  0  0  0  0  0  0  0  0  0
    0.6326    1.8333    3.9731 C   0  0  0  0  0  0  0  0  0  0  0  0
    0.3465    2.3955    2.9180 O   0  0  0  0  0  0  0  0  0  0  0  0
    2.4256    0.0853    4.1058 C   0  0  0  0  0  0  0  0  0  0  0  0
   -0.5676   -0.7953    3.0672 H   0  0  0  0  0  0  0  0  0  0  0  0
    0.4500   -0.0695    4.9629 H   0  0  0  0  0  0  0  0  0  0  0  0
    2.9209    0.4906    3.2159 H   0  0  0  0  0  0  0  0  0  0  0  0
    2.8857    0.5536    4.9822 H   0  0  0  0  0  0  0  0  0  0  0  0
    2.6361   -0.9890    4.1431 H   0  0  0  0  0  0  0  0  0  0  0  0
    0.7689    2.4702    5.1986 N   0  0  0  0  0  0  0  0  0  0  0  0
    0.5549    3.8885    5.3682 C   0  0  0  0  0  0  0  0  0  0  0  0
    0.9905    1.9222    6.0246 H   0  0  0  0  0  0  0  0  0  0  0  0
    1.5110    4.4203    5.2538 H   0  0  0  0  0  0  0  0  0  0  0  0
   -0.1562    4.2453    4.6086 H   0  0  0  0  0  0  0  0  0  0  0  0
    0.1466    4.0801    6.3714 H   0  0  0  0  0  0  0  0  0  0  0  0
  1  3  1  0  0  0  0
  1  7  1  0  0  0  0
  1  2  2  0  0  0  0
 32 33  1  0  0  0  0
 33 41  1  0  0  0  0
 33 34  2  0  0  0  0
  8  9  1  0  0  0  0
  9 17  1  0  0  0  0
  9 10  2  0  0  0  0
 18 19  1  0  0  0  0
 19 31  1  0  0  0  0
 19 20  2  0  0  0  0
 32 35  1  0  0  0  0
  8 11  1  0  0  0  0
 21 23  1  0  0  0  0
 41 42  1  0  0  0  0
 31 32  1  0  0  0  0
  7  8  1  0  0  0  0
 18 21  1  0  0  0  0
 17 18  1  0  0  0  0
 21 22  1  0  0  0  0
  3  4  1  0  0  0  0
  3  5  1  0  0  0  0
  3  6  1  0  0  0  0
 35 38  1  0  0  0  0
 35 39  1  0  0  0  0
 35 40  1  0  0  0  0
 11 14  1  0  0  0  0
 11 15  1  0  0  0  0
 11 16  1  0  0  0  0
 23 28  1  0  0  0  0
 23 29  1  0  0  0  0
 23 30  1  0  0  0  0
 42 44  1  0  0  0  0
 42 45  1  0  0  0  0
 42 46  1  0  0  0  0
 32 37  1  0  0  0  0
  8 13  1  0  0  0  0
 18 25  1  0  0  0  0
 21 26  1  0  0  0  0
 41 43  1  0  0  0  0
  7 12  1  0  0  0  0
 31 36  1  0  0  0  0
 17 24  1  0  0  0  0
 22 27  1  0  0  0  0
M  END
$$$$

  -OEChem-05262214473D

 46 45  0     1  0  0  0  0  0999 V2000
   -4.6700    2.7214    1.5150 C   0  0  0  0  0  0  0  0  0  0  0  0
   -5.4532    2.5715    0.5845 O   0  0  0  0  0  0  0  0  0  0  0  0
   -5.0996    3.4865    2.7226 C   0  0  0  0  0  0  0  0  0  0  0  0
   -4.8796    4.5629    2.6387 H   0  0  0  0  0  0  0  0  0  0  0  0
   -6.1861    3.4241    2.8954 H   0  0  0  0  0  0  0  0  0  0  0  0
   -4.6369    3.1693    3.6708 H   0  0  0  0  0  0  0  0  0  0  0  0
   -3.3731    2.2391    1.5790 N   0  0  0  0  0  0  0  0  0  0  0  0
   -2.7599    1.4751    0.5247 C   0  0  2  0  0  0  0  0  0  0  0  0
   -1.5143    0.8067    1.0915 C   0  0  0  0  0  0  0  0  0  0  0  0
   -0.9247    1.2213    2.0872 O   0  0  0  0  0  0  0  0  0  0  0  0
   -2.4106    2.3553   -0.6653 C   0  0  0  0  0  0  0  0  0  0  0  0
   -2.8254    2.4352    2.4150 H   0  0  0  0  0  0  0  0  0  0  0  0
   -3.4836    0.7082    0.2278 H   0  0  0  0  0  0  0  0  0  0  0  0
   -1.6866    3.1298   -0.3871 H   0  0  0  0  0  0  0  0  0  0  0  0
   -1.9704    1.7677   -1.4777 H   0  0  0  0  0  0  0  0  0  0  0  0
   -3.3030    2.8584   -1.0531 H   0  0  0  0  0  0  0  0  0  0  0  0
   -1.1107   -0.2839    0.3303 N   0  0  0  0  0  0  0  0  0  0  0  0
    0.0490   -1.0750    0.6539 C   0  0  2  0  0  0  0  0  0  0  0  0
    0.8769   -0.2868    1.6647 C   0  0  0  0  0  0  0  0  0  0  0  0
    1.7857    0.4742    1.3388 O   0  0  0  0  0  0  0  0  0  0  0  0
    0.8769   -1.4507   -0.5837 C   0  0  2  0  0  0  0  0  0  0  0  0
    1.3604   -0.2807   -1.2417 O   0  0  0  0  0  0  0  0  0  0  0  0
    0.0688   -2.2538   -1.5958 C   0  0  0  0  0  0  0  0  0  0  0  0
   -1.6733   -0.5660   -0.4691 H   0  0  0  0  0  0  0  0  0  0  0  0
   -0.3219   -1.9828    1.1452 H   0  0  0  0  0  0  0  0  0  0  0  0
    1.7512   -2.0434   -0.2905 H   0  0  0  0  0  0  0  0  0  0  0  0
    1.9112   -0.5876   -1.9780 H   0  0  0  0  0  0  0  0  0  0  0  0
   -0.8206   -1.7049   -1.9238 H   0  0  0  0  0  0  0  0  0  0  0  0
   -0.2430   -3.2172   -1.1813 H   0  0  0  0  0  0  0  0  0  0  0  0
    0.6666   -2.4400   -2.4949 H   0  0  0  0  0  0  0  0  0  0  0  0
    0.5140   -0.5711    2.9736 N   0  0  0  0  0  0  0  0  0  0  0  0
    1.1747    0.0261    4.1104 C   0  0  2  0  0  0  0  0  0  0  0  0
    0.6321    1.4388    4.2810 C   0  0  0  0  0  0  0  0  0  0  0  0
    0.1079    2.0711    3.3664 O   0  0  0  0  0  0  0  0  0  0  0  0
    2.6843    0.0420    3.9276 C   0  0  0  0  0  0  0  0  0  0  0  0
   -0.2459   -1.2247    3.1385 H   0  0  0  0  0  0  0  0  0  0  0  0
    0.9064   -0.5769    4.9848 H   0  0  0  0  0  0  0  0  0  0  0  0
    2.9723    0.6413    3.0562 H   0  0  0  0  0  0  0  0  0  0  0  0
    3.1855    0.4690    4.8026 H   0  0  0  0  0  0  0  0  0  0  0  0
    3.0692   -0.9722    3.7753 H   0  0  0  0  0  0  0  0  0  0  0  0
    0.8409    1.9267    5.5634 N   0  0  0  0  0  0  0  0  0  0  0  0
    0.4272    3.2490    5.9715 C   0  0  0  0  0  0  0  0  0  0  0  0
    1.2664    1.3262    6.2634 H   0  0  0  0  0  0  0  0  0  0  0  0
    1.2575    3.9553    5.8241 H   0  0  0  0  0  0  0  0  0  0  0  0
   -0.4354    3.5660    5.3670 H   0  0  0  0  0  0  0  0  0  0  0  0
    0.1440    3.2328    7.0343 H   0  0  0  0  0  0  0  0  0  0  0  0
  1  3  1  0  0  0  0
  1  7  1  0  0  0  0
  1  2  2  0  0  0  0
 32 33  1  0  0  0  0
 33 41  1  0  0  0  0
 33 34  2  0  0  0  0
  8  9  1  0  0  0  0
  9 17  1  0  0  0  0
  9 10  2  0  0  0  0
 18 19  1  0  0  0  0
 19 31  1  0  0  0  0
 19 20  2  0  0  0  0
 32 35  1  0  0  0  0
  8 11  1  0  0  0  0
 21 23  1  0  0  0  0
 41 42  1  0  0  0  0
 31 32  1  0  0  0  0
  7  8  1  0  0  0  0
 18 21  1  0  0  0  0
 17 18  1  0  0  0  0
 21 22  1  0  0  0  0
  3  4  1  0  0  0  0
  3  5  1  0  0  0  0
  3  6  1  0  0  0  0
 35 38  1  0  0  0  0
 35 39  1  0  0  0  0
 35 40  1  0  0  0  0
 11 14  1  0  0  0  0
 11 15  1  0  0  0  0
 11 16  1  0  0  0  0
 23 28  1  0  0  0  0
 23 29  1  0  0  0  0
 23 30  1  0  0  0  0
 42 44  1  0  0  0  0
 42 45  1  0  0  0  0
 42 46  1  0  0  0  0
 32 37  1  0  0  0  0
  8 13  1  0  0  0  0
 18 25  1  0  0  0  0
 21 26  1  0  0  0  0
 41 43  1  0  0  0  0
  7 12  1  0  0  0  0
 31 36  1  0  0  0  0
 17 24  1  0  0  0  0
 22 27  1  0  0  0  0
M  END
$$$$

  -OEChem-05262214473D

 46 45  0     1  0  0  0  0  0999 V2000
   -4.6700    2.7214    1.5150 C   0  0  0  0  0  0  0  0  0  0  0  0
   -5.4532    2.5715    0.5845 O   0  0  0  0  0  0  0  0  0  0  0  0
   -5.0996    3.4865    2.7226 C   0  0  0  0  0  0  0  0  0  0  0  0
   -4.8796    4.5629    2.6387 H   0  0  0  0  0  0  0  0  0  0  0  0
   -6.1861    3.4241    2.8954 H   0  0  0  0  0  0  0  0  0  0  0  0
   -4.6369    3.1693    3.6708 H   0  0  0  0  0  0  0  0  0  0  0  0
   -3.3731    2.2391    1.5790 N   0  0  0  0  0  0  0  0  0  0  0  0
   -2.7599    1.4751    0.5247 C   0  0  2  0  0  0  0  0  0  0  0  0
   -1.5143    0.8067    1.0915 C   0  0  0  0  0  0  0  0  0  0  0  0
   -0.9247    1.2213    2.0872 O   0  0  0  0  0  0  0  0  0  0  0  0
   -2.4106    2.3553   -0.6653 C   0  0  0  0  0  0  0  0  0  0  0  0
   -2.8254    2.4352    2.4150 H   0  0  0  0  0  0  0  0  0  0  0  0
   -3.4836    0.7082    0.2278 H   0  0  0  0  0  0  0  0  0  0  0  0
   -1.6866    3.1298   -0.3871 H   0  0  0  0  0  0  0  0  0  0  0  0
   -1.9704    1.7677   -1.4777 H   0  0  0  0  0  0  0  0  0  0  0  0
   -3.3030    2.8584   -1.0531 H   0  0  0  0  0  0  0  0  0  0  0  0
   -1.1107   -0.2839    0.3303 N   0  0  0  0  0  0  0  0  0  0  0  0
    0.0490   -1.0750    0.6539 C   0  0  2  0  0  0  0  0  0  0  0  0
    0.8769   -0.2868    1.6647 C   0  0  0  0  0  0  0  0  0  0  0  0
    1.5931    0.6617    1.3504 O   0  0  0  0  0  0  0  0  0  0  0  0
    0.8769   -1.4507   -0.5837 C   0  0  2  0  0  0  0  0  0  0  0  0
    1.3604   -0.2807   -1.2417 O   0  0  0  0  0  0  0  0  0  0  0  0
    0.0688   -2.2538   -1.5958 C   0  0  0  0  0  0  0  0  0  0  0  0
   -1.6733   -0.5660   -0.4691 H   0  0  0  0  0  0  0  0  0  0  0  0
   -0.3219   -1.9828    1.1452 H   0  0  0  0  0  0  0  0  0  0  0  0
    1.7512   -2.0434   -0.2905 H   0  0  0  0  0  0  0  0  0  0  0  0
    1.9112   -0.5876   -1.9780 H   0  0  0  0  0  0  0  0  0  0  0  0
   -0.8206   -1.7049   -1.9238 H   0  0  0  0  0  0  0  0  0  0  0  0
   -0.2430   -3.2172   -1.1813 H   0  0  0  0  0  0  0  0  0  0  0  0
    0.6666   -2.4400   -2.4949 H   0  0  0  0  0  0  0  0  0  0  0  0
    0.7598   -0.7982    2.9494 N   0  0  0  0  0  0  0  0  0  0  0  0
    1.4738   -0.2428    4.0750 C   0  0  2  0  0  0  0  0  0  0  0  0
    0.7404    1.0145    4.5232 C   0  0  0  0  0  0  0  0  0  0  0  0
   -0.0070    1.6539    3.7858 O   0  0  0  0  0  0  0  0  0  0  0  0
    2.9179    0.0695    3.7148 C   0  0  0  0  0  0  0  0  0  0  0  0
    0.1480   -1.5942    3.1040 H   0  0  0  0  0  0  0  0  0  0  0  0
    1.4372   -0.9918    4.8736 H   0  0  0  0  0  0  0  0  0  0  0  0
    2.9747    0.8182    2.9163 H   0  0  0  0  0  0  0  0  0  0  0  0
    3.4656    0.4639    4.5771 H   0  0  0  0  0  0  0  0  0  0  0  0
    3.4355   -0.8300    3.3644 H   0  0  0  0  0  0  0  0  0  0  0  0
    1.0524    1.3629    5.8299 N   0  0  0  0  0  0  0  0  0  0  0  0
    0.4941    2.5247    6.4815 C   0  0  0  0  0  0  0  0  0  0  0  0
    1.6671    0.7642    6.3735 H   0  0  0  0  0  0  0  0  0  0  0  0
    1.1686    3.3826    6.3435 H   0  0  0  0  0  0  0  0  0  0  0  0
   -0.4873    2.7555    6.0415 H   0  0  0  0  0  0  0  0  0  0  0  0
    0.3755    2.3208    7.5559 H   0  0  0  0  0  0  0  0  0  0  0  0
  1  3  1  0  0  0  0
  1  7  1  0  0  0  0
  1  2  2  0  0  0  0
 32 33  1  0  0  0  0
 33 41  1  0  0  0  0
 33 34  2  0  0  0  0
  8  9  1  0  0  0  0
  9 17  1  0  0  0  0
  9 10  2  0  0  0  0
 18 19  1  0  0  0  0
 19 31  1  0  0  0  0
 19 20  2  0  0  0  0
 32 35  1  0  0  0  0
  8 11  1  0  0  0  0
 21 23  1  0  0  0  0
 41 42  1  0  0  0  0
 31 32  1  0  0  0  0
  7  8  1  0  0  0  0
 18 21  1  0  0  0  0
 17 18  1  0  0  0  0
 21 22  1  0  0  0  0
  3  4  1  0  0  0  0
  3  5  1  0  0  0  0
  3  6  1  0  0  0  0
 35 38  1  0  0  0  0
 35 39  1  0  0  0  0
 35 40  1  0  0  0  0
 11 14  1  0  0  0  0
 11 15  1  0  0  0  0
 11 16  1  0  0  0  0
 23 28  1  0  0  0  0
 23 29  1  0  0  0  0
 23 30  1  0  0  0  0
 42 44  1  0  0  0  0
 42 45  1  0  0  0  0
 42 46  1  0  0  0  0
 32 37  1  0  0  0  0
  8 13  1  0  0  0  0
 18 25  1  0  0  0  0
 21 26  1  0  0  0  0
 41 43  1  0  0  0  0
  7 12  1  0  0  0  0
 31 36  1  0  0  0  0
 17 24  1  0  0  0  0
 22 27  1  0  0  0  0
M  END
$$$$

  -OEChem-05262214473D

 46 45  0     1  0  0  0  0  0999 V2000
   -4.6700    2.7214    1.5150 C   0  0  0  0  0  0  0  0  0  0  0  0
   -5.4532    2.5715    0.5845 O   0  0  0  0  0  0  0  0  0  0  0  0
   -5.0996    3.4865    2.7226 C   0  0  0  0  0  0  0  0  0  0  0  0
   -4.8796    4.5629    2.6387 H   0  0  0  0  0  0  0  0  0  0  0  0
   -6.1861    3.4241    2.8954 H   0  0  0  0  0  0  0  0  0  0  0  0
   -4.6369    3.1693    3.6708 H   0  0  0  0  0  0  0  0  0  0  0  0
   -3.3731    2.2391    1.5790 N   0  0  0  0  0  0  0  0  0  0  0  0
   -2.7599    1.4751    0.5247 C   0  0  2  0  0  0  0  0  0  0  0  0
   -1.5143    0.8067    1.0915 C   0  0  0  0  0  0  0  0  0  0  0  0
   -0.9247    1.2213    2.0872 O   0  0  0  0  0  0  0  0  0  0  0  0
   -2.4106    2.3553   -0.6653 C   0  0  0  0  0  0  0  0  0  0  0  0
   -2.8254    2.4352    2.4150 H   0  0  0  0  0  0  0  0  0  0  0  0
   -3.4836    0.7082    0.2278 H   0  0  0  0  0  0  0  0  0  0  0  0
   -1.6866    3.1298   -0.3871 H   0  0  0  0  0  0  0  0  0  0  0  0
   -1.9704    1.7677   -1.4777 H   0  0  0  0  0  0  0  0  0  0  0  0
   -3.3030    2.8584   -1.0531 H   0  0  0  0  0  0  0  0  0  0  0  0
   -1.1107   -0.2839    0.3303 N   0  0  0  0  0  0  0  0  0  0  0  0
    0.0490   -1.0750    0.6539 C   0  0  2  0  0  0  0  0  0  0  0  0
    0.8769   -0.2868    1.6647 C   0  0  0  0  0  0  0  0  0  0  0  0
    1.3765    0.8081    1.4136 O   0  0  0  0  0  0  0  0  0  0  0  0
    0.8769   -1.4507   -0.5837 C   0  0  2  0  0  0  0  0  0  0  0  0
    1.3604   -0.2807   -1.2417 O   0  0  0  0  0  0  0  0  0  0  0  0
    0.0688   -2.2538   -1.5958 C   0  0  0  0  0  0  0  0  0  0  0  0
   -1.6733   -0.5660   -0.4691 H   0  0  0  0  0  0  0  0  0  0  0  0
   -0.3219   -1.9828    1.1452 H   0  0  0  0  0  0  0  0  0  0  0  0
    1.7512   -2.0434   -0.2905 H   0  0  0  0  0  0  0  0  0  0  0  0
    1.9112   -0.5876   -1.9780 H   0  0  0  0  0  0  0  0  0  0  0  0
   -0.8206   -1.7049   -1.9238 H   0  0  0  0  0  0  0  0  0  0  0  0
   -0.2430   -3.2172   -1.1813 H   0  0  0  0  0  0  0  0  0  0  0  0
    0.6666   -2.4400   -2.4949 H   0  0  0  0  0  0  0  0  0  0  0  0
    1.0329   -0.9720    2.8613 N   0  0  0  0  0  0  0  0  0  0  0  0
    1.8041   -0.4462    3.9631 C   0  0  2  0  0  0  0  0  0  0  0  0
    0.9502    0.5892    4.6830 C   0  0  0  0  0  0  0  0  0  0  0  0
    0.0097    1.1723    4.1478 O   0  0  0  0  0  0  0  0  0  0  0  0
    3.1103    0.1660    3.4819 C   0  0  0  0  0  0  0  0  0  0  0  0
    0.5873   -1.8788    2.9662 H   0  0  0  0  0  0  0  0  0  0  0  0
    2.0062   -1.2860    4.6369 H   0  0  0  0  0  0  0  0  0  0  0  0
    2.9280    1.0091    2.8056 H   0  0  0  0  0  0  0  0  0  0  0  0
    3.7068    0.5386    4.3212 H   0  0  0  0  0  0  0  0  0  0  0  0
    3.7100   -0.5722    2.9386 H   0  0  0  0  0  0  0  0  0  0  0  0
    1.3889    0.8171    5.9798 N   0  0  0  0  0  0  0  0  0  0  0  0
    0.7511    1.7649    6.8634 C   0  0  0  0  0  0  0  0  0  0  0  0
    2.1651    0.2746    6.3473 H   0  0  0  0  0  0  0  0  0  0  0  0
    1.2503    2.7413    6.7766 H   0  0  0  0  0  0  0  0  0  0  0  0
   -0.3083    1.8690    6.5862 H   0  0  0  0  0  0  0  0  0  0  0  0
    0.8252    1.4063    7.9007 H   0  0  0  0  0  0  0  0  0  0  0  0
  1  3  1  0  0  0  0
  1  7  1  0  0  0  0
  1  2  2  0  0  0  0
 32 33  1  0  0  0  0
 33 41  1  0  0  0  0
 33 34  2  0  0  0  0
  8  9  1  0  0  0  0
  9 17  1  0  0  0  0
  9 10  2  0  0  0  0
 18 19  1  0  0  0  0
 19 31  1  0  0  0  0
 19 20  2  0  0  0  0
 32 35  1  0  0  0  0
  8 11  1  0  0  0  0
 21 23  1  0  0  0  0
 41 42  1  0  0  0  0
 31 32  1  0  0  0  0
  7  8  1  0  0  0  0
 18 21  1  0  0  0  0
 17 18  1  0  0  0  0
 21 22  1  0  0  0  0
  3  4  1  0  0  0  0
  3  5  1  0  0  0  0
  3  6  1  0  0  0  0
 35 38  1  0  0  0  0
 35 39  1  0  0  0  0
 35 40  1  0  0  0  0
 11 14  1  0  0  0  0
 11 15  1  0  0  0  0
 11 16  1  0  0  0  0
 23 28  1  0  0  0  0
 23 29  1  0  0  0  0
 23 30  1  0  0  0  0
 42 44  1  0  0  0  0
 42 45  1  0  0  0  0
 42 46  1  0  0  0  0
 32 37  1  0  0  0  0
  8 13  1  0  0  0  0
 18 25  1  0  0  0  0
 21 26  1  0  0  0  0
 41 43  1  0  0  0  0
  7 12  1  0  0  0  0
 31 36  1  0  0  0  0
 17 24  1  0  0  0  0
 22 27  1  0  0  0  0
M  END
$$$$

  -OEChem-05262214473D

 46 45  0     1  0  0  0  0  0999 V2000
   -4.6700    2.7214    1.5150 C   0  0  0  0  0  0  0  0  0  0  0  0
   -5.4532    2.5715    0.5845 O   0  0  0  0  0  0  0  0  0  0  0  0
   -5.0996    3.4865    2.7226 C   0  0  0  0  0  0  0  0  0  0  0  0
   -4.8796    4.5629    2.6387 H   0  0  0  0  0  0  0  0  0  0  0  0
   -6.1861    3.4241    2.8954 H   0  0  0  0  0  0  0  0  0  0  0  0
   -4.6369    3.1693    3.6708 H   0  0  0  0  0  0  0  0  0  0  0  0
   -3.3731    2.2391    1.5790 N   0  0  0  0  0  0  0  0  0  0  0  0
   -2.7599    1.4751    0.5247 C   0  0  2  0  0  0  0  0  0  0  0  0
   -1.5143    0.8067    1.0915 C   0  0  0  0  0  0  0  0  0  0  0  0
   -0.9247    1.2213    2.0872 O   0  0  0  0  0  0  0  0  0  0  0  0
   -2.4106    2.3553   -0.6653 C   0  0  0  0  0  0  0  0  0  0  0  0
   -2.8254    2.4352    2.4150 H   0  0  0  0  0  0  0  0  0  0  0  0
   -3.4836    0.7082    0.2278 H   0  0  0  0  0  0  0  0  0  0  0  0
   -1.6866    3.1298   -0.3871 H   0  0  0  0  0  0  0  0  0  0  0  0
   -1.9704    1.7677   -1.4777 H   0  0  0  0  0  0  0  0  0  0  0  0
   -3.3030    2.8584   -1.0531 H   0  0  0  0  0  0  0  0  0  0  0  0
   -1.1107   -0.2839    0.3303 N   0  0  0  0  0  0  0  0  0  0  0  0
    0.0490   -1.0750    0.6539 C   0  0  2  0  0  0  0  0  0  0  0  0
    0.8769   -0.2868    1.6647 C   0  0  0  0  0  0  0  0  0  0  0  0
    1.1505    0.9035    1.5243 O   0  0  0  0  0  0  0  0  0  0  0  0
    0.8769   -1.4507   -0.5837 C   0  0  2  0  0  0  0  0  0  0  0  0
    1.3604   -0.2807   -1.2417 O   0  0  0  0  0  0  0  0  0  0  0  0
    0.0688   -2.2538   -1.5958 C   0  0  0  0  0  0  0  0  0  0  0  0
   -1.6733   -0.5660   -0.4691 H   0  0  0  0  0  0  0  0  0  0  0  0
   -0.3219   -1.9828    1.1452 H   0  0  0  0  0  0  0  0  0  0  0  0
    1.7512   -2.0434   -0.2905 H   0  0  0  0  0  0  0  0  0  0  0  0
    1.9112   -0.5876   -1.9780 H   0  0  0  0  0  0  0  0  0  0  0  0
   -0.8206   -1.7049   -1.9238 H   0  0  0  0  0  0  0  0  0  0  0  0
   -0.2430   -3.2172   -1.1813 H   0  0  0  0  0  0  0  0  0  0  0  0
    0.6666   -2.4400   -2.4949 H   0  0  0  0  0  0  0  0  0  0  0  0
    1.3147   -1.0808    2.7152 N   0  0  0  0  0  0  0  0  0  0  0  0
    2.1431   -0.5704    3.7823 C   0  0  2  0  0  0  0  0  0  0  0  0
    1.2471    0.1920    4.7496 C   0  0  0  0  0  0  0  0  0  0  0  0
    0.1567    0.6592    4.4275 O   0  0  0  0  0  0  0  0  0  0  0  0
    3.2485    0.3250    3.2448 C   0  0  0  0  0  0  0  0  0  0  0  0
    1.0419   -2.0591    2.7343 H   0  0  0  0  0  0  0  0  0  0  0  0
    2.5746   -1.4394    4.2910 H   0  0  0  0  0  0  0  0  0  0  0  0
    2.8354    1.2011    2.7318 H   0  0  0  0  0  0  0  0  0  0  0  0
    3.8929    0.6881    4.0523 H   0  0  0  0  0  0  0  0  0  0  0  0
    3.8740   -0.2164    2.5267 H   0  0  0  0  0  0  0  0  0  0  0  0
    1.8277    0.3265    6.0030 N   0  0  0  0  0  0  0  0  0  0  0  0
    1.1807    1.0215    7.0913 C   0  0  0  0  0  0  0  0  0  0  0  0
    2.7267   -0.1092    6.1867 H   0  0  0  0  0  0  0  0  0  0  0  0
    1.4972    2.0750    7.0941 H   0  0  0  0  0  0  0  0  0  0  0  0
    0.0895    0.9669    6.9639 H   0  0  0  0  0  0  0  0  0  0  0  0
    1.4624    0.5517    8.0452 H   0  0  0  0  0  0  0  0  0  0  0  0
  1  3  1  0  0  0  0
  1  7  1  0  0  0  0
  1  2  2  0  0  0  0
 32 33  1  0  0  0  0
 33 41  1  0  0  0  0
 33 34  2  0  0  0  0
  8  9  1  0  0  0  0
  9 17  1  0  0  0  0
  9 10  2  0  0  0  0
 18 19  1  0  0  0  0
 19 31  1  0  0  0  0
 19 20  2  0  0  0  0
 32 35  1  0  0  0  0
  8 11  1  0  0  0  0
 21 23  1  0  0  0  0
 41 42  1  0  0  0  0
 31 32  1  0  0  0  0
  7  8  1  0  0  0  0
 18 21  1  0  0  0  0
 17 18  1  0  0  0  0
 21 22  1  0  0  0  0
  3  4  1  0  0  0  0
  3  5  1  0  0  0  0
  3  6  1  0  0  0  0
 35 38  1  0  0  0  0
 35 39  1  0  0  0  0
 35 40  1  0  0  0  0
 11 14  1  0  0  0  0
 11 15  1  0  0  0  0
 11 16  1  0  0  0  0
 23 28  1  0  0  0  0
 23 29  1  0  0  0  0
 23 30  1  0  0  0  0
 42 44  1  0  0  0  0
 42 45  1  0  0  0  0
 42 46  1  0  0  0  0
 32 37  1  0  0  0  0
  8 13  1  0  0  0  0
 18 25  1  0  0  0  0
 21 26  1  0  0  0  0
 41 43  1  0  0  0  0
  7 12  1  0  0  0  0
 31 36  1  0  0  0  0
 17 24  1  0  0  0  0
 22 27  1  0  0  0  0
M  END
$$$$

  -OEChem-05262214473D

 46 45  0     1  0  0  0  0  0999 V2000
   -4.6700    2.7214    1.5150 C   0  0  0  0  0  0  0  0  0  0  0  0
   -5.4532    2.5715    0.5845 O   0  0  0  0  0  0  0  0  0  0  0  0
   -5.0996    3.4865    2.7226 C   0  0  0  0  0  0  0  0  0  0  0  0
   -4.8796    4.5629    2.6387 H   0  0  0  0  0  0  0  0  0  0  0  0
   -6.1861    3.4241    2.8954 H   0  0  0  0  0  0  0  0  0  0  0  0
   -4.6369    3.1693    3.6708 H   0  0  0  0  0  0  0  0  0  0  0  0
   -3.3731    2.2391    1.5790 N   0  0  0  0  0  0  0  0  0  0  0  0
   -2.7599    1.4751    0.5247 C   0  0  2  0  0  0  0  0  0  0  0  0
   -1.5143    0.8067    1.0915 C   0  0  0  0  0  0  0  0  0  0  0  0
   -0.9247    1.2213    2.0872 O   0  0  0  0  0  0  0  0  0  0  0  0
   -2.4106    2.3553   -0.6653 C   0  0  0  0  0  0  0  0  0  0  0  0
   -2.8254    2.4352    2.4150 H   0  0  0  0  0  0  0  0  0  0  0  0
   -3.4836    0.7082    0.2278 H   0  0  0  0  0  0  0  0  0  0  0  0
   -1.6866    3.1298   -0.3871 H   0  0  0  0  0  0  0  0  0  0  0  0
   -1.9704    1.7677   -1.4777 H   0  0  0  0  0  0  0  0  0  0  0  0
   -3.3030    2.8584   -1.0531 H   0  0  0  0  0  0  0  0  0  0  0  0
   -1.1107   -0.2839    0.3303 N   0  0  0  0  0  0  0  0  0  0  0  0
    0.0490   -1.0750    0.6539 C   0  0  2  0  0  0  0  0  0  0  0  0
    0.8769   -0.2868    1.6647 C   0  0  0  0  0  0  0  0  0  0  0  0
    0.9308    0.9413    1.6748 O   0  0  0  0  0  0  0  0  0  0  0  0
    0.8769   -1.4507   -0.5837 C   0  0  2  0  0  0  0  0  0  0  0  0
    1.3604   -0.2807   -1.2417 O   0  0  0  0  0  0  0  0  0  0  0  0
    0.0688   -2.2538   -1.5958 C   0  0  0  0  0  0  0  0  0  0  0  0
   -1.6733   -0.5660   -0.4691 H   0  0  0  0  0  0  0  0  0  0  0  0
   -0.3219   -1.9828    1.1452 H   0  0  0  0  0  0  0  0  0  0  0  0
    1.7512   -2.0434   -0.2905 H   0  0  0  0  0  0  0  0  0  0  0  0
    1.9112   -0.5876   -1.9780 H   0  0  0  0  0  0  0  0  0  0  0  0
   -0.8206   -1.7049   -1.9238 H   0  0  0  0  0  0  0  0  0  0  0  0
   -0.2430   -3.2172   -1.1813 H   0  0  0  0  0  0  0  0  0  0  0  0
    0.6666   -2.4400   -2.4949 H   0  0  0  0  0  0  0  0  0  0  0  0
    1.5861   -1.1170    2.5212 N   0  0  0  0  0  0  0  0  0  0  0  0
    2.4676   -0.6068    3.5449 C   0  0  2  0  0  0  0  0  0  0  0  0
    1.6109   -0.1502    4.7185 C   0  0  0  0  0  0  0  0  0  0  0  0
    0.4241    0.1494    4.6060 O   0  0  0  0  0  0  0  0  0  0  0  0
    3.3231    0.5355    3.0196 C   0  0  0  0  0  0  0  0  0  0  0  0
    1.4810   -2.1227    2.4243 H   0  0  0  0  0  0  0  0  0  0  0  0
    3.1037   -1.4415    3.8593 H   0  0  0  0  0  0  0  0  0  0  0  0
    2.7032    1.3810    2.6998 H   0  0  0  0  0  0  0  0  0  0  0  0
    4.0110    0.9022    3.7886 H   0  0  0  0  0  0  0  0  0  0  0  0
    3.9163    0.2133    2.1570 H   0  0  0  0  0  0  0  0  0  0  0  0
    2.3387   -0.0753    5.8978 N   0  0  0  0  0  0  0  0  0  0  0  0
    1.7536    0.3450    7.1496 C   0  0  0  0  0  0  0  0  0  0  0  0
    3.3134   -0.3611    5.9026 H   0  0  0  0  0  0  0  0  0  0  0  0
    1.8923    1.4291    7.2741 H   0  0  0  0  0  0  0  0  0  0  0  0
    0.6788    0.1107    7.1489 H   0  0  0  0  0  0  0  0  0  0  0  0
    2.2438   -0.1849    7.9796 H   0  0  0  0  0  0  0  0  0  0  0  0
  1  3  1  0  0  0  0
  1  7  1  0  0  0  0
  1  2  2  0  0  0  0
 32 33  1  0  0  0  0
 33 41  1  0  0  0  0
 33 34  2  0  0  0  0
  8  9  1  0  0  0  0
  9 17  1  0  0  0  0
  9 10  2  0  0  0  0
 18 19  1  0  0  0  0
 19 31  1  0  0  0  0
 19 20  2  0  0  0  0
 32 35  1  0  0  0  0
  8 11  1  0  0  0  0
 21 23  1  0  0  0  0
 41 42  1  0  0  0  0
 31 32  1  0  0  0  0
  7  8  1  0  0  0  0
 18 21  1  0  0  0  0
 17 18  1  0  0  0  0
 21 22  1  0  0  0  0
  3  4  1  0  0  0  0
  3  5  1  0  0  0  0
  3  6  1  0  0  0  0
 35 38  1  0  0  0  0
 35 39  1  0  0  0  0
 35 40  1  0  0  0  0
 11 14  1  0  0  0  0
 11 15  1  0  0  0  0
 11 16  1  0  0  0  0
 23 28  1  0  0  0  0
 23 29  1  0  0  0  0
 23 30  1  0  0  0  0
 42 44  1  0  0  0  0
 42 45  1  0  0  0  0
 42 46  1  0  0  0  0
 32 37  1  0  0  0  0
  8 13  1  0  0  0  0
 18 25  1  0  0  0  0
 21 26  1  0  0  0  0
 41 43  1  0  0  0  0
  7 12  1  0  0  0  0
 31 36  1  0  0  0  0
 17 24  1  0  0  0  0
 22 27  1  0  0  0  0
M  END
$$$$

  -OEChem-05262214473D

 46 45  0     1  0  0  0  0  0999 V2000
   -4.6700    2.7214    1.5150 C   0  0  0  0  0  0  0  0  0  0  0  0
   -5.4532    2.5715    0.5845 O   0  0  0  0  0  0  0  0  0  0  0  0
   -5.0996    3.4865    2.7226 C   0  0  0  0  0  0  0  0  0  0  0  0
   -4.8796    4.5629    2.6387 H   0  0  0  0  0  0  0  0  0  0  0  0
   -6.1861    3.4241    2.8954 H   0  0  0  0  0  0  0  0  0  0  0  0
   -4.6369    3.1693    3.6708 H   0  0  0  0  0  0  0  0  0  0  0  0
   -3.3731    2.2391    1.5790 N   0  0  0  0  0  0  0  0  0  0  0  0
   -2.7599    1.4751    0.5247 C   0  0  2  0  0  0  0  0  0  0  0  0
   -1.5143    0.8067    1.0915 C   0  0  0  0  0  0  0  0  0  0  0  0
   -0.9247    1.2213    2.0872 O   0  0  0  0  0  0  0  0  0  0  0  0
   -2.4106    2.3553   -0.6653 C   0  0  0  0  0  0  0  0  0  0  0  0
   -2.8254    2.4352    2.4150 H   0  0  0  0  0  0  0  0  0  0  0  0
   -3.4836    0.7082    0.2278 H   0  0  0  0  0  0  0  0  0  0  0  0
   -1.6866    3.1298   -0.3871 H   0  0  0  0  0  0  0  0  0  0  0  0
   -1.9704    1.7677   -1.4777 H   0  0  0  0  0  0  0  0  0  0  0  0
   -3.3030    2.8584   -1.0531 H   0  0  0  0  0  0  0  0  0  0  0  0
   -1.1107   -0.2839    0.3303 N   0  0  0  0  0  0  0  0  0  0  0  0
    0.0490   -1.0750    0.6539 C   0  0  2  0  0  0  0  0  0  0  0  0
    0.8769   -0.2868    1.6647 C   0  0  0  0  0  0  0  0  0  0  0  0
    0.7321    0.9191    1.8548 O   0  0  0  0  0  0  0  0  0  0  0  0
    0.8769   -1.4507   -0.5837 C   0  0  2  0  0  0  0  0  0  0  0  0
    1.3604   -0.2807   -1.2417 O   0  0  0  0  0  0  0  0  0  0  0  0
    0.0688   -2.2538   -1.5958 C   0  0  0  0  0  0  0  0  0  0  0  0
   -1.6733   -0.5660   -0.4691 H   0  0  0  0  0  0  0  0  0  0  0  0
   -0.3219   -1.9828    1.1452 H   0  0  0  0  0  0  0  0  0  0  0  0
    1.7512   -2.0434   -0.2905 H   0  0  0  0  0  0  0  0  0  0  0  0
    1.9112   -0.5876   -1.9780 H   0  0  0  0  0  0  0  0  0  0  0  0
   -0.8206   -1.7049   -1.9238 H   0  0  0  0  0  0  0  0  0  0  0  0
   -0.2430   -3.2172   -1.1813 H   0  0  0  0  0  0  0  0  0  0  0  0
    0.6666   -2.4400   -2.4949 H   0  0  0  0  0  0  0  0  0  0  0  0
    1.8284   -1.0782    2.2925 N   0  0  0  0  0  0  0  0  0  0  0  0
    2.7556   -0.5530    3.2671 C   0  0  2  0  0  0  0  0  0  0  0  0
    2.0169   -0.4140    4.5917 C   0  0  0  0  0  0  0  0  0  0  0  0
    0.7936   -0.3222    4.6711 O   0  0  0  0  0  0  0  0  0  0  0  0
    3.3289    0.7832    2.8216 C   0  0  0  0  0  0  0  0  0  0  0  0
    1.8745   -2.0653    2.0572 H   0  0  0  0  0  0  0  0  0  0  0  0
    3.5573   -1.2922    3.3713 H   0  0  0  0  0  0  0  0  0  0  0  0
    2.5403    1.5366    2.7118 H   0  0  0  0  0  0  0  0  0  0  0  0
    4.0531    1.1663    3.5482 H   0  0  0  0  0  0  0  0  0  0  0  0
    3.8341    0.6876    1.8545 H   0  0  0  0  0  0  0  0  0  0  0  0
    2.8871   -0.3611    5.6715 N   0  0  0  0  0  0  0  0  0  0  0  0
    2.4307   -0.2184    7.0344 C   0  0  0  0  0  0  0  0  0  0  0  0
    3.8853   -0.4640    5.5143 H   0  0  0  0  0  0  0  0  0  0  0  0
    2.4087    0.8477    7.3045 H   0  0  0  0  0  0  0  0  0  0  0  0
    1.4196   -0.6412    7.1285 H   0  0  0  0  0  0  0  0  0  0  0  0
    3.1160   -0.7532    7.7083 H   0  0  0  0  0  0  0  0  0  0  0  0
  1  3  1  0  0  0  0
  1  7  1  0  0  0  0
  1  2  2  0  0  0  0
 32 33  1  0  0  0  0
 33 41  1  0  0  0  0
 33 34  2  0  0  0  0
  8  9  1  0  0  0  0
  9 17  1  0  0  0  0
  9 10  2  0  0  0  0
 18 19  1  0  0  0  0
 19 31  1  0  0  0  0
 19 20  2  0  0  0  0
 32 35  1  0  0  0  0
  8 11  1  0  0  0  0
 21 23  1  0  0  0  0
 41 42  1  0  0  0  0
 31 32  1  0  0  0  0
  7  8  1  0  0  0  0
 18 21  1  0  0  0  0
 17 18  1  0  0  0  0
 21 22  1  0  0  0  0
  3  4  1  0  0  0  0
  3  5  1  0  0  0  0
  3  6  1  0  0  0  0
 35 38  1  0  0  0  0
 35 39  1  0  0  0  0
 35 40  1  0  0  0  0
 11 14  1  0  0  0  0
 11 15  1  0  0  0  0
 11 16  1  0  0  0  0
 23 28  1  0  0  0  0
 23 29  1  0  0  0  0
 23 30  1  0  0  0  0
 42 44  1  0  0  0  0
 42 45  1  0  0  0  0
 42 46  1  0  0  0  0
 32 37  1  0  0  0  0
  8 13  1  0  0  0  0
 18 25  1  0  0  0  0
 21 26  1  0  0  0  0
 41 43  1  0  0  0  0
  7 12  1  0  0  0  0
 31 36  1  0  0  0  0
 17 24  1  0  0  0  0
 22 27  1  0  0  0  0
M  END
$$$$

  -OEChem-05262214473D

 46 45  0     1  0  0  0  0  0999 V2000
   -4.6700    2.7214    1.5150 C   0  0  0  0  0  0  0  0  0  0  0  0
   -5.4532    2.5715    0.5845 O   0  0  0  0  0  0  0  0  0  0  0  0
   -5.0996    3.4865    2.7226 C   0  0  0  0  0  0  0  0  0  0  0  0
   -4.8796    4.5629    2.6387 H   0  0  0  0  0  0  0  0  0  0  0  0
   -6.1861    3.4241    2.8954 H   0  0  0  0  0  0  0  0  0  0  0  0
   -4.6369    3.1693    3.6708 H   0  0  0  0  0  0  0  0  0  0  0  0
   -3.3731    2.2391    1.5790 N   0  0  0  0  0  0  0  0  0  0  0  0
   -2.7599    1.4751    0.5247 C   0  0  2  0  0  0  0  0  0  0  0  0
   -1.5143    0.8067    1.0915 C   0  0  0  0  0  0  0  0  0  0  0  0
   -0.9247    1.2213    2.0872 O   0  0  0  0  0  0  0  0  0  0  0  0
   -2.4106    2.3553   -0.6653 C   0  0  0  0  0  0  0  0  0  0  0  0
   -2.8254    2.4352    2.4150 H   0  0  0  0  0  0  0  0  0  0  0  0
   -3.4836    0.7082    0.2278 H   0  0  0  0  0  0  0  0  0  0  0  0
   -1.6866    3.1298   -0.3871 H   0  0  0  0  0  0  0  0  0  0  0  0
   -1.9704    1.7677   -1.4777 H   0  0  0  0  0  0  0  0  0  0  0  0
   -3.3030    2.8584   -1.0531 H   0  0  0  0  0  0  0  0  0  0  0  0
   -1.1107   -0.2839    0.3303 N   0  0  0  0  0  0  0  0  0  0  0  0
    0.0490   -1.0750    0.6539 C   0  0  2  0  0  0  0  0  0  0  0  0
    0.6719   -0.4847    1.9157 C   0  0  0  0  0  0  0  0  0  0  0  0
    0.2318    0.5179    2.4745 O   0  0  0  0  0  0  0  0  0  0  0  0
    1.0627   -1.1431   -0.4976 C   0  0  2  0  0  0  0  0  0  0  0  0
    1.5443    0.1598   -0.8238 O   0  0  0  0  0  0  0  0  0  0  0  0
    0.4608   -1.7467   -1.7607 C   0  0  0  0  0  0  0  0  0  0  0  0
   -1.6733   -0.5660   -0.4691 H   0  0  0  0  0  0  0  0  0  0  0  0
   -0.3178   -2.0816    0.8890 H   0  0  0  0  0  0  0  0  0  0  0  0
    1.9300   -1.7463   -0.2053 H   0  0  0  0  0  0  0  0  0  0  0  0
    2.2110    0.0405   -1.5172 H   0  0  0  0  0  0  0  0  0  0  0  0
   -0.4136   -1.1795   -2.0979 H   0  0  0  0  0  0  0  0  0  0  0  0
    0.1668   -2.7887   -1.6025 H   0  0  0  0  0  0  0  0  0  0  0  0
    1.1872   -1.7116   -2.5801 H   0  0  0  0  0  0  0  0  0  0  0  0
    1.8046   -1.1800    2.3146 N   0  0  0  0  0  0  0  0  0  0  0  0
    2.5890   -0.7937    3.4639 C   0  0  2  0  0  0  0  0  0  0  0  0
    1.8661   -1.2818    4.7123 C   0  0  0  0  0  0  0  0  0  0  0  0
    0.6611   -1.5232    4.7385 O   0  0  0  0  0  0  0  0  0  0  0  0
    2.7980    0.7119    3.5104 C   0  0  0  0  0  0  0  0  0  0  0  0
    2.0932   -1.9924    1.7774 H   0  0  0  0  0  0  0  0  0  0  0  0
    3.5531   -1.3063    3.3755 H   0  0  0  0  0  0  0  0  0  0  0  0
    1.8430    1.2425    3.5989 H   0  0  0  0  0  0  0  0  0  0  0  0
    3.4168    1.0003    4.3665 H   0  0  0  0  0  0  0  0  0  0  0  0
    3.2913    1.0653    2.5986 H   0  0  0  0  0  0  0  0  0  0  0  0
    2.7166   -1.3749    5.8051 N   0  0  0  0  0  0  0  0  0  0  0  0
    2.2667   -1.8031    7.1090 C   0  0  0  0  0  0  0  0  0  0  0  0
    3.7052   -1.1731    5.6875 H   0  0  0  0  0  0  0  0  0  0  0  0
    1.9823   -0.9242    7.7062 H   0  0  0  0  0  0  0  0  0  0  0  0
    1.3969   -2.4671    6.9968 H   0  0  0  0  0  0  0  0  0  0  0  0
    3.0782   -2.3445    7.6172 H   0  0  0  0  0  0  0  0  0  0  0  0
  1  3  1  0  0  0  0
  1  7  1  0  0  0  0
  1  2  2  0  0  0  0
 32 33  1  0  0  0  0
 33 41  1  0  0  0  0
 33 34  2  0  0  0  0
  8  9  1  0  0  0  0
  9 17  1  0  0  0  0
  9 10  2  0  0  0  0
 18 19  1  0  0  0  0
 19 31  1  0  0  0  0
 19 20  2  0  0  0  0
 32 35  1  0  0  0  0
  8 11  1  0  0  0  0
 21 23  1  0  0  0  0
 41 42  1  0  0  0  0
 31 32  1  0  0  0  0
  7  8  1  0  0  0  0
 18 21  1  0  0  0  0
 17 18  1  0  0  0  0
 21 22  1  0  0  0  0
  3  4  1  0  0  0  0
  3  5  1  0  0  0  0
  3  6  1  0  0  0  0
 35 38  1  0  0  0  0
 35 39  1  0  0  0  0
 35 40  1  0  0  0  0
 11 14  1  0  0  0  0
 11 15  1  0  0  0  0
 11 16  1  0  0  0  0
 23 28  1  0  0  0  0
 23 29  1  0  0  0  0
 23 30  1  0  0  0  0
 42 44  1  0  0  0  0
 42 45  1  0  0  0  0
 42 46  1  0  0  0  0
 32 37  1  0  0  0  0
  8 13  1  0  0  0  0
 18 25  1  0  0  0  0
 21 26  1  0  0  0  0
 41 43  1  0  0  0  0
  7 12  1  0  0  0  0
 31 36  1  0  0  0  0
 17 24  1  0  0  0  0
 22 27  1  0  0  0  0
M  END
$$$$

  -OEChem-05262214473D

 46 45  0     1  0  0  0  0  0999 V2000
   -4.6700    2.7214    1.5150 C   0  0  0  0  0  0  0  0  0  0  0  0
   -5.4532    2.5715    0.5845 O   0  0  0  0  0  0  0  0  0  0  0  0
   -5.0996    3.4865    2.7226 C   0  0  0  0  0  0  0  0  0  0  0  0
   -4.8796    4.5629    2.6387 H   0  0  0  0  0  0  0  0  0  0  0  0
   -6.1861    3.4241    2.8954 H   0  0  0  0  0  0  0  0  0  0  0  0
   -4.6369    3.1693    3.6708 H   0  0  0  0  0  0  0  0  0  0  0  0
   -3.3731    2.2391    1.5790 N   0  0  0  0  0  0  0  0  0  0  0  0
   -2.7599    1.4751    0.5247 C   0  0  2  0  0  0  0  0  0  0  0  0
   -1.5143    0.8067    1.0915 C   0  0  0  0  0  0  0  0  0  0  0  0
   -0.9247    1.2213    2.0872 O   0  0  0  0  0  0  0  0  0  0  0  0
   -2.4106    2.3553   -0.6653 C   0  0  0  0  0  0  0  0  0  0  0  0
   -2.8254    2.4352    2.4150 H   0  0  0  0  0  0  0  0  0  0  0  0
   -3.4836    0.7082    0.2278 H   0  0  0  0  0  0  0  0  0  0  0  0
   -1.6866    3.1298   -0.3871 H   0  0  0  0  0  0  0  0  0  0  0  0
   -1.9704    1.7677   -1.4777 H   0  0  0  0  0  0  0  0  0  0  0  0
   -3.3030    2.8584   -1.0531 H   0  0  0  0  0  0  0  0  0  0  0  0
   -1.1107   -0.2839    0.3303 N   0  0  0  0  0  0  0  0  0  0  0  0
    0.0490   -1.0750    0.6539 C   0  0  2  0  0  0  0  0  0  0  0  0
    0.6719   -0.4847    1.9157 C   0  0  0  0  0  0  0  0  0  0  0  0
    0.0974    0.3394    2.6243 O   0  0  0  0  0  0  0  0  0  0  0  0
    1.0627   -1.1431   -0.4976 C   0  0  2  0  0  0  0  0  0  0  0  0
    1.5443    0.1598   -0.8238 O   0  0  0  0  0  0  0  0  0  0  0  0
    0.4608   -1.7467   -1.7607 C   0  0  0  0  0  0  0  0  0  0  0  0
   -1.6733   -0.5660   -0.4691 H   0  0  0  0  0  0  0  0  0  0  0  0
   -0.3178   -2.0816    0.8890 H   0  0  0  0  0  0  0  0  0  0  0  0
    1.9300   -1.7463   -0.2053 H   0  0  0  0  0  0  0  0  0  0  0  0
    2.2110    0.0405   -1.5172 H   0  0  0  0  0  0  0  0  0  0  0  0
   -0.4136   -1.1795   -2.0979 H   0  0  0  0  0  0  0  0  0  0  0  0
    0.1668   -2.7887   -1.6025 H   0  0  0  0  0  0  0  0  0  0  0  0
    1.1872   -1.7116   -2.5801 H   0  0  0  0  0  0  0  0  0  0  0  0
    1.9620   -0.9492    2.1289 N   0  0  0  0  0  0  0  0  0  0  0  0
    2.7719   -0.5109    3.2413 C   0  0  2  0  0  0  0  0  0  0  0  0
    2.3107   -1.2617    4.4835 C   0  0  0  0  0  0  0  0  0  0  0  0
    1.1931   -1.7630    4.5880 O   0  0  0  0  0  0  0  0  0  0  0  0
    2.6660    0.9926    3.4443 C   0  0  0  0  0  0  0  0  0  0  0  0
    2.3519   -1.6238    1.4772 H   0  0  0  0  0  0  0  0  0  0  0  0
    3.8057   -0.7887    3.0087 H   0  0  0  0  0  0  0  0  0  0  0  0
    1.6372    1.2899    3.6783 H   0  0  0  0  0  0  0  0  0  0  0  0
    3.3026    1.3273    4.2699 H   0  0  0  0  0  0  0  0  0  0  0  0
    2.9698    1.5303    2.5397 H   0  0  0  0  0  0  0  0  0  0  0  0
    3.2784   -1.2690    5.4782 N   0  0  0  0  0  0  0  0  0  0  0  0
    3.0761   -1.9070    6.7581 C   0  0  0  0  0  0  0  0  0  0  0  0
    4.1837   -0.8450    5.2978 H   0  0  0  0  0  0  0  0  0  0  0  0
    2.6831   -1.1726    7.4765 H   0  0  0  0  0  0  0  0  0  0  0  0
    2.3571   -2.7320    6.6468 H   0  0  0  0  0  0  0  0  0  0  0  0
    4.0343   -2.3029    7.1258 H   0  0  0  0  0  0  0  0  0  0  0  0
  1  3  1  0  0  0  0
  1  7  1  0  0  0  0
  1  2  2  0  0  0  0
 32 33  1  0  0  0  0
 33 41  1  0  0  0  0
 33 34  2  0  0  0  0
  8  9  1  0  0  0  0
  9 17  1  0  0  0  0
  9 10  2  0  0  0  0
 18 19  1  0  0  0  0
 19 31  1  0  0  0  0
 19 20  2  0  0  0  0
 32 35  1  0  0  0  0
  8 11  1  0  0  0  0
 21 23  1  0  0  0  0
 41 42  1  0  0  0  0
 31 32  1  0  0  0  0
  7  8  1  0  0  0  0
 18 21  1  0  0  0  0
 17 18  1  0  0  0  0
 21 22  1  0  0  0  0
  3  4  1  0  0  0  0
  3  5  1  0  0  0  0
  3  6  1  0  0  0  0
 35 38  1  0  0  0  0
 35 39  1  0  0  0  0
 35 40  1  0  0  0  0
 11 14  1  0  0  0  0
 11 15  1  0  0  0  0
 11 16  1  0  0  0  0
 23 28  1  0  0  0  0
 23 29  1  0  0  0  0
 23 30  1  0  0  0  0
 42 44  1  0  0  0  0
 42 45  1  0  0  0  0
 42 46  1  0  0  0  0
 32 37  1  0  0  0  0
  8 13  1  0  0  0  0
 18 25  1  0  0  0  0
 21 26  1  0  0  0  0
 41 43  1  0  0  0  0
  7 12  1  0  0  0  0
 31 36  1  0  0  0  0
 17 24  1  0  0  0  0
 22 27  1  0  0  0  0
M  END
$$$$

  -OEChem-05262214473D

 46 45  0     1  0  0  0  0  0999 V2000
   -4.6700    2.7214    1.5150 C   0  0  0  0  0  0  0  0  0  0  0  0
   -5.4532    2.5715    0.5845 O   0  0  0  0  0  0  0  0  0  0  0  0
   -5.0996    3.4865    2.7226 C   0  0  0  0  0  0  0  0  0  0  0  0
   -4.8796    4.5629    2.6387 H   0  0  0  0  0  0  0  0  0  0  0  0
   -6.1861    3.4241    2.8954 H   0  0  0  0  0  0  0  0  0  0  0  0
   -4.6369    3.1693    3.6708 H   0  0  0  0  0  0  0  0  0  0  0  0
   -3.3731    2.2391    1.5790 N   0  0  0  0  0  0  0  0  0  0  0  0
   -2.7599    1.4751    0.5247 C   0  0  2  0  0  0  0  0  0  0  0  0
   -1.5143    0.8067    1.0915 C   0  0  0  0  0  0  0  0  0  0  0  0
   -0.9247    1.2213    2.0872 O   0  0  0  0  0  0  0  0  0  0  0  0
   -2.4106    2.3553   -0.6653 C   0  0  0  0  0  0  0  0  0  0  0  0
   -2.8254    2.4352    2.4150 H   0  0  0  0  0  0  0  0  0  0  0  0
   -3.4836    0.7082    0.2278 H   0  0  0  0  0  0  0  0  0  0  0  0
   -1.6866    3.1298   -0.3871 H   0  0  0  0  0  0  0  0  0  0  0  0
   -1.9704    1.7677   -1.4777 H   0  0  0  0  0  0  0  0  0  0  0  0
   -3.3030    2.8584   -1.0531 H   0  0  0  0  0  0  0  0  0  0  0  0
   -1.1107   -0.2839    0.3303 N   0  0  0  0  0  0  0  0  0  0  0  0
    0.0490   -1.0750    0.6539 C   0  0  2  0  0  0  0  0  0  0  0  0
    0.6719   -0.4847    1.9157 C   0  0  0  0  0  0  0  0  0  0  0  0
    0.0209    0.1223    2.7636 O   0  0  0  0  0  0  0  0  0  0  0  0
    1.0627   -1.1431   -0.4976 C   0  0  2  0  0  0  0  0  0  0  0  0
    1.5443    0.1598   -0.8238 O   0  0  0  0  0  0  0  0  0  0  0  0
    0.4608   -1.7467   -1.7607 C   0  0  0  0  0  0  0  0  0  0  0  0
   -1.6733   -0.5660   -0.4691 H   0  0  0  0  0  0  0  0  0  0  0  0
   -0.3178   -2.0816    0.8890 H   0  0  0  0  0  0  0  0  0  0  0  0
    1.9300   -1.7463   -0.2053 H   0  0  0  0  0  0  0  0  0  0  0  0
    2.2110    0.0405   -1.5172 H   0  0  0  0  0  0  0  0  0  0  0  0
   -0.4136   -1.1795   -2.0979 H   0  0  0  0  0  0  0  0  0  0  0  0
    0.1668   -2.7887   -1.6025 H   0  0  0  0  0  0  0  0  0  0  0  0
    1.1872   -1.7116   -2.5801 H   0  0  0  0  0  0  0  0  0  0  0  0
    2.0461   -0.6729    1.9582 N   0  0  0  0  0  0  0  0  0  0  0  0
    2.8657   -0.1750    3.0379 C   0  0  2  0  0  0  0  0  0  0  0  0
    2.7129   -1.1229    4.2200 C   0  0  0  0  0  0  0  0  0  0  0  0
    1.7433   -1.8647    4.3640 O   0  0  0  0  0  0  0  0  0  0  0  0
    2.4718    1.2424    3.4233 C   0  0  0  0  0  0  0  0  0  0  0  0
    2.4929   -1.1806    1.2003 H   0  0  0  0  0  0  0  0  0  0  0  0
    3.9021   -0.1959    2.6838 H   0  0  0  0  0  0  0  0  0  0  0  0
    1.4363    1.2833    3.7806 H   0  0  0  0  0  0  0  0  0  0  0  0
    3.1127    1.6289    4.2226 H   0  0  0  0  0  0  0  0  0  0  0  0
    2.5538    1.9170    2.5642 H   0  0  0  0  0  0  0  0  0  0  0  0
    3.7657   -1.0119    5.1175 N   0  0  0  0  0  0  0  0  0  0  0  0
    3.8451   -1.7971    6.3271 C   0  0  0  0  0  0  0  0  0  0  0  0
    4.5366   -0.3845    4.9082 H   0  0  0  0  0  0  0  0  0  0  0  0
    3.3902   -1.2383    7.1581 H   0  0  0  0  0  0  0  0  0  0  0  0
    3.3062   -2.7454    6.1845 H   0  0  0  0  0  0  0  0  0  0  0  0
    4.8997   -2.0062    6.5598 H   0  0  0  0  0  0  0  0  0  0  0  0
  1  3  1  0  0  0  0
  1  7  1  0  0  0  0
  1  2  2  0  0  0  0
 32 33  1  0  0  0  0
 33 41  1  0  0  0  0
 33 34  2  0  0  0  0
  8  9  1  0  0  0  0
  9 17  1  0  0  0  0
  9 10  2  0  0  0  0
 18 19  1  0  0  0  0
 19 31  1  0  0  0  0
 19 20  2  0  0  0  0
 32 35  1  0  0  0  0
  8 11  1  0  0  0  0
 21 23  1  0  0  0  0
 41 42  1  0  0  0  0
 31 32  1  0  0  0  0
  7  8  1  0  0  0  0
 18 21  1  0  0  0  0
 17 18  1  0  0  0  0
 21 22  1  0  0  0  0
  3  4  1  0  0  0  0
  3  5  1  0  0  0  0
  3  6  1  0  0  0  0
 35 38  1  0  0  0  0
 35 39  1  0  0  0  0
 35 40  1  0  0  0  0
 11 14  1  0  0  0  0
 11 15  1  0  0  0  0
 11 16  1  0  0  0  0
 23 28  1  0  0  0  0
 23 29  1  0  0  0  0
 23 30  1  0  0  0  0
 42 44  1  0  0  0  0
 42 45  1  0  0  0  0
 42 46  1  0  0  0  0
 32 37  1  0  0  0  0
  8 13  1  0  0  0  0
 18 25  1  0  0  0  0
 21 26  1  0  0  0  0
 41 43  1  0  0  0  0
  7 12  1  0  0  0  0
 31 36  1  0  0  0  0
 17 24  1  0  0  0  0
 22 27  1  0  0  0  0
M  END
$$$$

  -OEChem-05262214473D

 46 45  0     1  0  0  0  0  0999 V2000
   -4.6700    2.7214    1.5150 C   0  0  0  0  0  0  0  0  0  0  0  0
   -5.4532    2.5715    0.5845 O   0  0  0  0  0  0  0  0  0  0  0  0
   -5.0996    3.4865    2.7226 C   0  0  0  0  0  0  0  0  0  0  0  0
   -4.8796    4.5629    2.6387 H   0  0  0  0  0  0  0  0  0  0  0  0
   -6.1861    3.4241    2.8954 H   0  0  0  0  0  0  0  0  0  0  0  0
   -4.6369    3.1693    3.6708 H   0  0  0  0  0  0  0  0  0  0  0  0
   -3.3731    2.2391    1.5790 N   0  0  0  0  0  0  0  0  0  0  0  0
   -2.7599    1.4751    0.5247 C   0  0  2  0  0  0  0  0  0  0  0  0
   -1.5143    0.8067    1.0915 C   0  0  0  0  0  0  0  0  0  0  0  0
   -0.9247    1.2213    2.0872 O   0  0  0  0  0  0  0  0  0  0  0  0
   -2.4106    2.3553   -0.6653 C   0  0  0  0  0  0  0  0  0  0  0  0
   -2.8254    2.4352    2.4150 H   0  0  0  0  0  0  0  0  0  0  0  0
   -3.4836    0.7082    0.2278 H   0  0  0  0  0  0  0  0  0  0  0  0
   -1.6866    3.1298   -0.3871 H   0  0  0  0  0  0  0  0  0  0  0  0
   -1.9704    1.7677   -1.4777 H   0  0  0  0  0  0  0  0  0  0  0  0
   -3.3030    2.8584   -1.0531 H   0  0  0  0  0  0  0  0  0  0  0  0
   -1.1107   -0.2839    0.3303 N   0  0  0  0  0  0  0  0  0  0  0  0
    0.0490   -1.0750    0.6539 C   0  0  2  0  0  0  0  0  0  0  0  0
    0.6719   -0.4847    1.9157 C   0  0  0  0  0  0  0  0  0  0  0  0
    0.0074   -0.1184    2.8829 O   0  0  0  0  0  0  0  0  0  0  0  0
    1.0627   -1.1431   -0.4976 C   0  0  2  0  0  0  0  0  0  0  0  0
    1.5443    0.1598   -0.8238 O   0  0  0  0  0  0  0  0  0  0  0  0
    0.4608   -1.7467   -1.7607 C   0  0  0  0  0  0  0  0  0  0  0  0
   -1.6733   -0.5660   -0.4691 H   0  0  0  0  0  0  0  0  0  0  0  0
   -0.3178   -2.0816    0.8890 H   0  0  0  0  0  0  0  0  0  0  0  0
    1.9300   -1.7463   -0.2053 H   0  0  0  0  0  0  0  0  0  0  0  0
    2.2110    0.0405   -1.5172 H   0  0  0  0  0  0  0  0  0  0  0  0
   -0.4136   -1.1795   -2.0979 H   0  0  0  0  0  0  0  0  0  0  0  0
    0.1668   -2.7887   -1.6025 H   0  0  0  0  0  0  0  0  0  0  0  0
    1.1872   -1.7116   -2.5801 H   0  0  0  0  0  0  0  0  0  0  0  0
    2.0511   -0.3699    1.8140 N   0  0  0  0  0  0  0  0  0  0  0  0
    2.8640    0.1910    2.8674 C   0  0  2  0  0  0  0  0  0  0  0  0
    3.0453   -0.8750    3.9399 C   0  0  0  0  0  0  0  0  0  0  0  0
    2.2741   -1.8217    4.0818 O   0  0  0  0  0  0  0  0  0  0  0  0
    2.2286    1.4444    3.4488 C   0  0  0  0  0  0  0  0  0  0  0  0
    2.5065   -0.6931    0.9655 H   0  0  0  0  0  0  0  0  0  0  0  0
    3.8359    0.4316    2.4229 H   0  0  0  0  0  0  0  0  0  0  0  0
    1.2539    1.2231    3.8988 H   0  0  0  0  0  0  0  0  0  0  0  0
    2.8599    1.8846    4.2278 H   0  0  0  0  0  0  0  0  0  0  0  0
    2.0716    2.1988    2.6703 H   0  0  0  0  0  0  0  0  0  0  0  0
    4.1452   -0.6212    4.7473 N   0  0  0  0  0  0  0  0  0  0  0  0
    4.5212   -1.4809    5.8453 C   0  0  0  0  0  0  0  0  0  0  0  0
    4.7400    0.1769    4.5451 H   0  0  0  0  0  0  0  0  0  0  0  0
    4.0554   -1.1168    6.7729 H   0  0  0  0  0  0  0  0  0  0  0  0
    4.1795   -2.5064    5.6416 H   0  0  0  0  0  0  0  0  0  0  0  0
    5.6155   -1.4745    5.9577 H   0  0  0  0  0  0  0  0  0  0  0  0
  1  3  1  0  0  0  0
  1  7  1  0  0  0  0
  1  2  2  0  0  0  0
 32 33  1  0  0  0  0
 33 41  1  0  0  0  0
 33 34  2  0  0  0  0
  8  9  1  0  0  0  0
  9 17  1  0  0  0  0
  9 10  2  0  0  0  0
 18 19  1  0  0  0  0
 19 31  1  0  0  0  0
 19 20  2  0  0  0  0
 32 35  1  0  0  0  0
  8 11  1  0  0  0  0
 21 23  1  0  0  0  0
 41 42  1  0  0  0  0
 31 32  1  0  0  0  0
  7  8  1  0  0  0  0
 18 21  1  0  0  0  0
 17 18  1  0  0  0  0
 21 22  1  0  0  0  0
  3  4  1  0  0  0  0
  3  5  1  0  0  0  0
  3  6  1  0  0  0  0
 35 38  1  0  0  0  0
 35 39  1  0  0  0  0
 35 40  1  0  0  0  0
 11 14  1  0  0  0  0
 11 15  1  0  0  0  0
 11 16  1  0  0  0  0
 23 28  1  0  0  0  0
 23 29  1  0  0  0  0
 23 30  1  0  0  0  0
 42 44  1  0  0  0  0
 42 45  1  0  0  0  0
 42 46  1  0  0  0  0
 32 37  1  0  0  0  0
  8 13  1  0  0  0  0
 18 25  1  0  0  0  0
 21 26  1  0  0  0  0
 41 43  1  0  0  0  0
  7 12  1  0  0  0  0
 31 36  1  0  0  0  0
 17 24  1  0  0  0  0
 22 27  1  0  0  0  0
M  END
$$$$

  -OEChem-05262214473D

 46 45  0     1  0  0  0  0  0999 V2000
   -4.6700    2.7214    1.5150 C   0  0  0  0  0  0  0  0  0  0  0  0
   -5.4532    2.5715    0.5845 O   0  0  0  0  0  0  0  0  0  0  0  0
   -5.0996    3.4865    2.7226 C   0  0  0  0  0  0  0  0  0  0  0  0
   -4.8796    4.5629    2.6387 H   0  0  0  0  0  0  0  0  0  0  0  0
   -6.1861    3.4241    2.8954 H   0  0  0  0  0  0  0  0  0  0  0  0
   -4.6369    3.1693    3.6708 H   0  0  0  0  0  0  0  0  0  0  0  0
   -3.3731    2.2391    1.5790 N   0  0  0  0  0  0  0  0  0  0  0  0
   -2.7599    1.4751    0.5247 C   0  0  2  0  0  0  0  0  0  0  0  0
   -1.5143    0.8067    1.0915 C   0  0  0  0  0  0  0  0  0  0  0  0
   -0.9247    1.2213    2.0872 O   0  0  0  0  0  0  0  0  0  0  0  0
   -2.4106    2.3553   -0.6653 C   0  0  0  0  0  0  0  0  0  0  0  0
   -2.8254    2.4352    2.4150 H   0  0  0  0  0  0  0  0  0  0  0  0
   -3.4836    0.7082    0.2278 H   0  0  0  0  0  0  0  0  0  0  0  0
   -1.6866    3.1298   -0.3871 H   0  0  0  0  0  0  0  0  0  0  0  0
   -1.9704    1.7677   -1.4777 H   0  0  0  0  0  0  0  0  0  0  0  0
   -3.3030    2.8584   -1.0531 H   0  0  0  0  0  0  0  0  0  0  0  0
   -1.1107   -0.2839    0.3303 N   0  0  0  0  0  0  0  0  0  0  0  0
    0.0490   -1.0750    0.6539 C   0  0  2  0  0  0  0  0  0  0  0  0
    0.6719   -0.4847    1.9157 C   0  0  0  0  0  0  0  0  0  0  0  0
    0.0578   -0.3665    2.9741 O   0  0  0  0  0  0  0  0  0  0  0  0
    1.0627   -1.1431   -0.4976 C   0  0  2  0  0  0  0  0  0  0  0  0
    1.5443    0.1598   -0.8238 O   0  0  0  0  0  0  0  0  0  0  0  0
    0.4608   -1.7467   -1.7607 C   0  0  0  0  0  0  0  0  0  0  0  0
   -1.6733   -0.5660   -0.4691 H   0  0  0  0  0  0  0  0  0  0  0  0
   -0.3178   -2.0816    0.8890 H   0  0  0  0  0  0  0  0  0  0  0  0
    1.9300   -1.7463   -0.2053 H   0  0  0  0  0  0  0  0  0  0  0  0
    2.2110    0.0405   -1.5172 H   0  0  0  0  0  0  0  0  0  0  0  0
   -0.4136   -1.1795   -2.0979 H   0  0  0  0  0  0  0  0  0  0  0  0
    0.1668   -2.7887   -1.6025 H   0  0  0  0  0  0  0  0  0  0  0  0
    1.1872   -1.7116   -2.5801 H   0  0  0  0  0  0  0  0  0  0  0  0
    1.9766   -0.0611    1.7062 N   0  0  0  0  0  0  0  0  0  0  0  0
    2.7670    0.5622    2.7417 C   0  0  2  0  0  0  0  0  0  0  0  0
    3.2852   -0.5348    3.6623 C   0  0  0  0  0  0  0  0  0  0  0  0
    2.7493   -1.6366    3.7607 O   0  0  0  0  0  0  0  0  0  0  0  0
    1.9530    1.5848    3.5192 C   0  0  0  0  0  0  0  0  0  0  0  0
    2.3919   -0.1945    0.7889 H   0  0  0  0  0  0  0  0  0  0  0  0
    3.6114    1.0512    2.2438 H   0  0  0  0  0  0  0  0  0  0  0  0
    1.1024    1.1134    4.0249 H   0  0  0  0  0  0  0  0  0  0  0  0
    2.5615    2.0769    4.2851 H   0  0  0  0  0  0  0  0  0  0  0  0
    1.5562    2.3567    2.8509 H   0  0  0  0  0  0  0  0  0  0  0  0
    4.3911   -0.1235    4.3931 N   0  0  0  0  0  0  0  0  0  0  0  0
    5.0584   -0.9798    5.3458 C   0  0  0  0  0  0  0  0  0  0  0  0
    4.7799    0.8012    4.2334 H   0  0  0  0  0  0  0  0  0  0  0  0
    4.6333   -0.8163    6.3471 H   0  0  0  0  0  0  0  0  0  0  0  0
    4.9176   -2.0313    5.0550 H   0  0  0  0  0  0  0  0  0  0  0  0
    6.1328   -0.7442    5.3607 H   0  0  0  0  0  0  0  0  0  0  0  0
  1  3  1  0  0  0  0
  1  7  1  0  0  0  0
  1  2  2  0  0  0  0
 32 33  1  0  0  0  0
 33 41  1  0  0  0  0
 33 34  2  0  0  0  0
  8  9  1  0  0  0  0
  9 17  1  0  0  0  0
  9 10  2  0  0  0  0
 18 19  1  0  0  0  0
 19 31  1  0  0  0  0
 19 20  2  0  0  0  0
 32 35  1  0  0  0  0
  8 11  1  0  0  0  0
 21 23  1  0  0  0  0
 41 42  1  0  0  0  0
 31 32  1  0  0  0  0
  7  8  1  0  0  0  0
 18 21  1  0  0  0  0
 17 18  1  0  0  0  0
 21 22  1  0  0  0  0
  3  4  1  0  0  0  0
  3  5  1  0  0  0  0
  3  6  1  0  0  0  0
 35 38  1  0  0  0  0
 35 39  1  0  0  0  0
 35 40  1  0  0  0  0
 11 14  1  0  0  0  0
 11 15  1  0  0  0  0
 11 16  1  0  0  0  0
 23 28  1  0  0  0  0
 23 29  1  0  0  0  0
 23 30  1  0  0  0  0
 42 44  1  0  0  0  0
 42 45  1  0  0  0  0
 42 46  1  0  0  0  0
 32 37  1  0  0  0  0
  8 13  1  0  0  0  0
 18 25  1  0  0  0  0
 21 26  1  0  0  0  0
 41 43  1  0  0  0  0
  7 12  1  0  0  0  0
 31 36  1  0  0  0  0
 17 24  1  0  0  0  0
 22 27  1  0  0  0  0
M  END
$$$$

  -OEChem-05262214473D

 46 45  0     1  0  0  0  0  0999 V2000
   -4.6700    2.7214    1.5150 C   0  0  0  0  0  0  0  0  0  0  0  0
   -5.4532    2.5715    0.5845 O   0  0  0  0  0  0  0  0  0  0  0  0
   -5.0996    3.4865    2.7226 C   0  0  0  0  0  0  0  0  0  0  0  0
   -4.8796    4.5629    2.6387 H   0  0  0  0  0  0  0  0  0  0  0  0
   -6.1861    3.4241    2.8954 H   0  0  0  0  0  0  0  0  0  0  0  0
   -4.6369    3.1693    3.6708 H   0  0  0  0  0  0  0  0  0  0  0  0
   -3.3731    2.2391    1.5790 N   0  0  0  0  0  0  0  0  0  0  0  0
   -2.7599    1.4751    0.5247 C   0  0  2  0  0  0  0  0  0  0  0  0
   -1.5143    0.8067    1.0915 C   0  0  0  0  0  0  0  0  0  0  0  0
   -0.9247    1.2213    2.0872 O   0  0  0  0  0  0  0  0  0  0  0  0
   -2.4106    2.3553   -0.6653 C   0  0  0  0  0  0  0  0  0  0  0  0
   -2.8254    2.4352    2.4150 H   0  0  0  0  0  0  0  0  0  0  0  0
   -3.4836    0.7082    0.2278 H   0  0  0  0  0  0  0  0  0  0  0  0
   -1.6866    3.1298   -0.3871 H   0  0  0  0  0  0  0  0  0  0  0  0
   -1.9704    1.7677   -1.4777 H   0  0  0  0  0  0  0  0  0  0  0  0
   -3.3030    2.8584   -1.0531 H   0  0  0  0  0  0  0  0  0  0  0  0
   -1.1107   -0.2839    0.3303 N   0  0  0  0  0  0  0  0  0  0  0  0
    0.0490   -1.0750    0.6539 C   0  0  2  0  0  0  0  0  0  0  0  0
    0.6719   -0.4847    1.9157 C   0  0  0  0  0  0  0  0  0  0  0  0
    0.1687   -0.6049    3.0309 O   0  0  0  0  0  0  0  0  0  0  0  0
    1.0627   -1.1431   -0.4976 C   0  0  2  0  0  0  0  0  0  0  0  0
    1.5443    0.1598   -0.8238 O   0  0  0  0  0  0  0  0  0  0  0  0
    0.4608   -1.7467   -1.7607 C   0  0  0  0  0  0  0  0  0  0  0  0
   -1.6733   -0.5660   -0.4691 H   0  0  0  0  0  0  0  0  0  0  0  0
   -0.3178   -2.0816    0.8890 H   0  0  0  0  0  0  0  0  0  0  0  0
    1.9300   -1.7463   -0.2053 H   0  0  0  0  0  0  0  0  0  0  0  0
    2.2110    0.0405   -1.5172 H   0  0  0  0  0  0  0  0  0  0  0  0
   -0.4136   -1.1795   -2.0979 H   0  0  0  0  0  0  0  0  0  0  0  0
    0.1668   -2.7887   -1.6025 H   0  0  0  0  0  0  0  0  0  0  0  0
    1.1872   -1.7116   -2.5801 H   0  0  0  0  0  0  0  0  0  0  0  0
    1.8278    0.2328    1.6423 N   0  0  0  0  0  0  0  0  0  0  0  0
    2.5813    0.9133    2.6691 C   0  0  2  0  0  0  0  0  0  0  0  0
    3.4164   -0.1254    3.4060 C   0  0  0  0  0  0  0  0  0  0  0  0
    3.1366   -1.3223    3.4225 O   0  0  0  0  0  0  0  0  0  0  0  0
    1.6638    1.6540    3.6296 C   0  0  0  0  0  0  0  0  0  0  0  0
    2.1567    0.2812    0.6824 H   0  0  0  0  0  0  0  0  0  0  0  0
    3.2441    1.6205    2.1588 H   0  0  0  0  0  0  0  0  0  0  0  0
    0.9922    0.9617    4.1502 H   0  0  0  0  0  0  0  0  0  0  0  0
    2.2379    2.1928    4.3906 H   0  0  0  0  0  0  0  0  0  0  0  0
    1.0427    2.3798    3.0936 H   0  0  0  0  0  0  0  0  0  0  0  0
    4.4867    0.4472    4.0789 N   0  0  0  0  0  0  0  0  0  0  0  0
    5.4200   -0.3281    4.8624 C   0  0  0  0  0  0  0  0  0  0  0  0
    4.6537    1.4456    3.9942 H   0  0  0  0  0  0  0  0  0  0  0  0
    5.0847   -0.3575    5.9096 H   0  0  0  0  0  0  0  0  0  0  0  0
    5.4701   -1.3524    4.4647 H   0  0  0  0  0  0  0  0  0  0  0  0
    6.4164    0.1350    4.8094 H   0  0  0  0  0  0  0  0  0  0  0  0
  1  3  1  0  0  0  0
  1  7  1  0  0  0  0
  1  2  2  0  0  0  0
 32 33  1  0  0  0  0
 33 41  1  0  0  0  0
 33 34  2  0  0  0  0
  8  9  1  0  0  0  0
  9 17  1  0  0  0  0
  9 10  2  0  0  0  0
 18 19  1  0  0  0  0
 19 31  1  0  0  0  0
 19 20  2  0  0  0  0
 32 35  1  0  0  0  0
  8 11  1  0  0  0  0
 21 23  1  0  0  0  0
 41 42  1  0  0  0  0
 31 32  1  0  0  0  0
  7  8  1  0  0  0  0
 18 21  1  0  0  0  0
 17 18  1  0  0  0  0
 21 22  1  0  0  0  0
  3  4  1  0  0  0  0
  3  5  1  0  0  0  0
  3  6  1  0  0  0  0
 35 38  1  0  0  0  0
 35 39  1  0  0  0  0
 35 40  1  0  0  0  0
 11 14  1  0  0  0  0
 11 15  1  0  0  0  0
 11 16  1  0  0  0  0
 23 28  1  0  0  0  0
 23 29  1  0  0  0  0
 23 30  1  0  0  0  0
 42 44  1  0  0  0  0
 42 45  1  0  0  0  0
 42 46  1  0  0  0  0
 32 37  1  0  0  0  0
  8 13  1  0  0  0  0
 18 25  1  0  0  0  0
 21 26  1  0  0  0  0
 41 43  1  0  0  0  0
  7 12  1  0  0  0  0
 31 36  1  0  0  0  0
 17 24  1  0  0  0  0
 22 27  1  0  0  0  0
M  END
$$$$

  -OEChem-05262214473D

 46 45  0     1  0  0  0  0  0999 V2000
   -4.6700    2.7214    1.5150 C   0  0  0  0  0  0  0  0  0  0  0  0
   -5.4532    2.5715    0.5845 O   0  0  0  0  0  0  0  0  0  0  0  0
   -5.0996    3.4865    2.7226 C   0  0  0  0  0  0  0  0  0  0  0  0
   -4.8796    4.5629    2.6387 H   0  0  0  0  0  0  0  0  0  0  0  0
   -6.1861    3.4241    2.8954 H   0  0  0  0  0  0  0  0  0  0  0  0
   -4.6369    3.1693    3.6708 H   0  0  0  0  0  0  0  0  0  0  0  0
   -3.3731    2.2391    1.5790 N   0  0  0  0  0  0  0  0  0  0  0  0
   -2.7599    1.4751    0.5247 C   0  0  2  0  0  0  0  0  0  0  0  0
   -1.5143    0.8067    1.0915 C   0  0  0  0  0  0  0  0  0  0  0  0
   -0.9247    1.2213    2.0872 O   0  0  0  0  0  0  0  0  0  0  0  0
   -2.4106    2.3553   -0.6653 C   0  0  0  0  0  0  0  0  0  0  0  0
   -2.8254    2.4352    2.4150 H   0  0  0  0  0  0  0  0  0  0  0  0
   -3.4836    0.7082    0.2278 H   0  0  0  0  0  0  0  0  0  0  0  0
   -1.6866    3.1298   -0.3871 H   0  0  0  0  0  0  0  0  0  0  0  0
   -1.9704    1.7677   -1.4777 H   0  0  0  0  0  0  0  0  0  0  0  0
   -3.3030    2.8584   -1.0531 H   0  0  0  0  0  0  0  0  0  0  0  0
   -1.1107   -0.2839    0.3303 N   0  0  0  0  0  0  0  0  0  0  0  0
    0.0490   -1.0750    0.6539 C   0  0  2  0  0  0  0  0  0  0  0  0
    0.6719   -0.4847    1.9157 C   0  0  0  0  0  0  0  0  0  0  0  0
    0.3326   -0.8175    3.0495 O   0  0  0  0  0  0  0  0  0  0  0  0
    1.0627   -1.1431   -0.4976 C   0  0  2  0  0  0  0  0  0  0  0  0
    1.5443    0.1598   -0.8238 O   0  0  0  0  0  0  0  0  0  0  0  0
    0.4608   -1.7467   -1.7607 C   0  0  0  0  0  0  0  0  0  0  0  0
   -1.6733   -0.5660   -0.4691 H   0  0  0  0  0  0  0  0  0  0  0  0
   -0.3178   -2.0816    0.8890 H   0  0  0  0  0  0  0  0  0  0  0  0
    1.9300   -1.7463   -0.2053 H   0  0  0  0  0  0  0  0  0  0  0  0
    2.2110    0.0405   -1.5172 H   0  0  0  0  0  0  0  0  0  0  0  0
   -0.4136   -1.1795   -2.0979 H   0  0  0  0  0  0  0  0  0  0  0  0
    0.1668   -2.7887   -1.6025 H   0  0  0  0  0  0  0  0  0  0  0  0
    1.1872   -1.7116   -2.5801 H   0  0  0  0  0  0  0  0  0  0  0  0
    1.6147    0.4915    1.6264 N   0  0  0  0  0  0  0  0  0  0  0  0
    2.3195    1.2203    2.6547 C   0  0  2  0  0  0  0  0  0  0  0  0
    3.4299    0.3251    3.1886 C   0  0  0  0  0  0  0  0  0  0  0  0
    3.4095   -0.9001    3.0902 O   0  0  0  0  0  0  0  0  0  0  0  0
    1.3808    1.6473    3.7724 C   0  0  0  0  0  0  0  0  0  0  0  0
    1.8171    0.7016    0.6534 H   0  0  0  0  0  0  0  0  0  0  0  0
    2.7590    2.1008    2.1736 H   0  0  0  0  0  0  0  0  0  0  0  0
    0.9307    0.7784    4.2664 H   0  0  0  0  0  0  0  0  0  0  0  0
    1.9111    2.2243    4.5372 H   0  0  0  0  0  0  0  0  0  0  0  0
    0.5660    2.2665    3.3819 H   0  0  0  0  0  0  0  0  0  0  0  0
    4.4254    1.0522    3.8261 N   0  0  0  0  0  0  0  0  0  0  0  0
    5.5814    0.4299    4.4281 C   0  0  0  0  0  0  0  0  0  0  0  0
    4.3699    2.0663    3.8439 H   0  0  0  0  0  0  0  0  0  0  0  0
    5.3786    0.2286    5.4903 H   0  0  0  0  0  0  0  0  0  0  0  0
    5.7994   -0.5161    3.9109 H   0  0  0  0  0  0  0  0  0  0  0  0
    6.4469    1.1032    4.3414 H   0  0  0  0  0  0  0  0  0  0  0  0
  1  3  1  0  0  0  0
  1  7  1  0  0  0  0
  1  2  2  0  0  0  0
 32 33  1  0  0  0  0
 33 41  1  0  0  0  0
 33 34  2  0  0  0  0
  8  9  1  0  0  0  0
  9 17  1  0  0  0  0
  9 10  2  0  0  0  0
 18 19  1  0  0  0  0
 19 31  1  0  0  0  0
 19 20  2  0  0  0  0
 32 35  1  0  0  0  0
  8 11  1  0  0  0  0
 21 23  1  0  0  0  0
 41 42  1  0  0  0  0
 31 32  1  0  0  0  0
  7  8  1  0  0  0  0
 18 21  1  0  0  0  0
 17 18  1  0  0  0  0
 21 22  1  0  0  0  0
  3  4  1  0  0  0  0
  3  5  1  0  0  0  0
  3  6  1  0  0  0  0
 35 38  1  0  0  0  0
 35 39  1  0  0  0  0
 35 40  1  0  0  0  0
 11 14  1  0  0  0  0
 11 15  1  0  0  0  0
 11 16  1  0  0  0  0
 23 28  1  0  0  0  0
 23 29  1  0  0  0  0
 23 30  1  0  0  0  0
 42 44  1  0  0  0  0
 42 45  1  0  0  0  0
 42 46  1  0  0  0  0
 32 37  1  0  0  0  0
  8 13  1  0  0  0  0
 18 25  1  0  0  0  0
 21 26  1  0  0  0  0
 41 43  1  0  0  0  0
  7 12  1  0  0  0  0
 31 36  1  0  0  0  0
 17 24  1  0  0  0  0
 22 27  1  0  0  0  0
M  END
$$$$

  -OEChem-05262214473D

 46 45  0     1  0  0  0  0  0999 V2000
   -4.6700    2.7214    1.5150 C   0  0  0  0  0  0  0  0  0  0  0  0
   -5.4532    2.5715    0.5845 O   0  0  0  0  0  0  0  0  0  0  0  0
   -5.0996    3.4865    2.7226 C   0  0  0  0  0  0  0  0  0  0  0  0
   -4.8796    4.5629    2.6387 H   0  0  0  0  0  0  0  0  0  0  0  0
   -6.1861    3.4241    2.8954 H   0  0  0  0  0  0  0  0  0  0  0  0
   -4.6369    3.1693    3.6708 H   0  0  0  0  0  0  0  0  0  0  0  0
   -3.3731    2.2391    1.5790 N   0  0  0  0  0  0  0  0  0  0  0  0
   -2.7599    1.4751    0.5247 C   0  0  2  0  0  0  0  0  0  0  0  0
   -1.5143    0.8067    1.0915 C   0  0  0  0  0  0  0  0  0  0  0  0
   -0.9247    1.2213    2.0872 O   0  0  0  0  0  0  0  0  0  0  0  0
   -2.4106    2.3553   -0.6653 C   0  0  0  0  0  0  0  0  0  0  0  0
   -2.8254    2.4352    2.4150 H   0  0  0  0  0  0  0  0  0  0  0  0
   -3.4836    0.7082    0.2278 H   0  0  0  0  0  0  0  0  0  0  0  0
   -1.6866    3.1298   -0.3871 H   0  0  0  0  0  0  0  0  0  0  0  0
   -1.9704    1.7677   -1.4777 H   0  0  0  0  0  0  0  0  0  0  0  0
   -3.3030    2.8584   -1.0531 H   0  0  0  0  0  0  0  0  0  0  0  0
   -1.1107   -0.2839    0.3303 N   0  0  0  0  0  0  0  0  0  0  0  0
    0.0490   -1.0750    0.6539 C   0  0  2  0  0  0  0  0  0  0  0  0
    0.6719   -0.4847    1.9157 C   0  0  0  0  0  0  0  0  0  0  0  0
    0.5382   -0.9897    3.0285 O   0  0  0  0  0  0  0  0  0  0  0  0
    1.0627   -1.1431   -0.4976 C   0  0  2  0  0  0  0  0  0  0  0  0
    1.5443    0.1598   -0.8238 O   0  0  0  0  0  0  0  0  0  0  0  0
    0.4608   -1.7467   -1.7607 C   0  0  0  0  0  0  0  0  0  0  0  0
   -1.6733   -0.5660   -0.4691 H   0  0  0  0  0  0  0  0  0  0  0  0
   -0.3178   -2.0816    0.8890 H   0  0  0  0  0  0  0  0  0  0  0  0
    1.9300   -1.7463   -0.2053 H   0  0  0  0  0  0  0  0  0  0  0  0
    2.2110    0.0405   -1.5172 H   0  0  0  0  0  0  0  0  0  0  0  0
   -0.4136   -1.1795   -2.0979 H   0  0  0  0  0  0  0  0  0  0  0  0
    0.1668   -2.7887   -1.6025 H   0  0  0  0  0  0  0  0  0  0  0  0
    1.1872   -1.7116   -2.5801 H   0  0  0  0  0  0  0  0  0  0  0  0
    1.3520    0.6975    1.6597 N   0  0  0  0  0  0  0  0  0  0  0  0
    1.9995    1.4624    2.6995 C   0  0  2  0  0  0  0  0  0  0  0  0
    3.3247    0.7861    3.0249 C   0  0  0  0  0  0  0  0  0  0  0  0
    3.5495   -0.3987    2.7865 O   0  0  0  0  0  0  0  0  0  0  0  0
    1.1231    1.5651    3.9381 C   0  0  0  0  0  0  0  0  0  0  0  0
    1.3961    1.0381    0.7037 H   0  0  0  0  0  0  0  0  0  0  0  0
    2.1891    2.4594    2.2872 H   0  0  0  0  0  0  0  0  0  0  0  0
    0.9223    0.5759    4.3653 H   0  0  0  0  0  0  0  0  0  0  0  0
    1.6033    2.1693    4.7149 H   0  0  0  0  0  0  0  0  0  0  0  0
    0.1587    2.0247    3.6961 H   0  0  0  0  0  0  0  0  0  0  0  0
    4.2114    1.6502    3.6520 N   0  0  0  0  0  0  0  0  0  0  0  0
    5.5316    1.2425    4.0725 C   0  0  0  0  0  0  0  0  0  0  0  0
    3.9479    2.6210    3.7927 H   0  0  0  0  0  0  0  0  0  0  0  0
    5.4952    0.9019    5.1178 H   0  0  0  0  0  0  0  0  0  0  0  0
    5.8830    0.4207    3.4313 H   0  0  0  0  0  0  0  0  0  0  0  0
    6.2224    2.0944    3.9885 H   0  0  0  0  0  0  0  0  0  0  0  0
  1  3  1  0  0  0  0
  1  7  1  0  0  0  0
  1  2  2  0  0  0  0
 32 33  1  0  0  0  0
 33 41  1  0  0  0  0
 33 34  2  0  0  0  0
  8  9  1  0  0  0  0
  9 17  1  0  0  0  0
  9 10  2  0  0  0  0
 18 19  1  0  0  0  0
 19 31  1  0  0  0  0
 19 20  2  0  0  0  0
 32 35  1  0  0  0  0
  8 11  1  0  0  0  0
 21 23  1  0  0  0  0
 41 42  1  0  0  0  0
 31 32  1  0  0  0  0
  7  8  1  0  0  0  0
 18 21  1  0  0  0  0
 17 18  1  0  0  0  0
 21 22  1  0  0  0  0
  3  4  1  0  0  0  0
  3  5  1  0  0  0  0
  3  6  1  0  0  0  0
 35 38  1  0  0  0  0
 35 39  1  0  0  0  0
 35 40  1  0  0  0  0
 11 14  1  0  0  0  0
 11 15  1  0  0  0  0
 11 16  1  0  0  0  0
 23 28  1  0  0  0  0
 23 29  1  0  0  0  0
 23 30  1  0  0  0  0
 42 44  1  0  0  0  0
 42 45  1  0  0  0  0
 42 46  1  0  0  0  0
 32 37  1  0  0  0  0
  8 13  1  0  0  0  0
 18 25  1  0  0  0  0
 21 26  1  0  0  0  0
 41 43  1  0  0  0  0
  7 12  1  0  0  0  0
 31 36  1  0  0  0  0
 17 24  1  0  0  0  0
 22 27  1  0  0  0  0
M  END
$$$$

  -OEChem-05262214473D

 46 45  0     1  0  0  0  0  0999 V2000
   -4.6700    2.7214    1.5150 C   0  0  0  0  0  0  0  0  0  0  0  0
   -5.4532    2.5715    0.5845 O   0  0  0  0  0  0  0  0  0  0  0  0
   -5.0996    3.4865    2.7226 C   0  0  0  0  0  0  0  0  0  0  0  0
   -4.8796    4.5629    2.6387 H   0  0  0  0  0  0  0  0  0  0  0  0
   -6.1861    3.4241    2.8954 H   0  0  0  0  0  0  0  0  0  0  0  0
   -4.6369    3.1693    3.6708 H   0  0  0  0  0  0  0  0  0  0  0  0
   -3.3731    2.2391    1.5790 N   0  0  0  0  0  0  0  0  0  0  0  0
   -2.7599    1.4751    0.5247 C   0  0  2  0  0  0  0  0  0  0  0  0
   -1.5143    0.8067    1.0915 C   0  0  0  0  0  0  0  0  0  0  0  0
   -0.9247    1.2213    2.0872 O   0  0  0  0  0  0  0  0  0  0  0  0
   -2.4106    2.3553   -0.6653 C   0  0  0  0  0  0  0  0  0  0  0  0
   -2.8254    2.4352    2.4150 H   0  0  0  0  0  0  0  0  0  0  0  0
   -3.4836    0.7082    0.2278 H   0  0  0  0  0  0  0  0  0  0  0  0
   -1.6866    3.1298   -0.3871 H   0  0  0  0  0  0  0  0  0  0  0  0
   -1.9704    1.7677   -1.4777 H   0  0  0  0  0  0  0  0  0  0  0  0
   -3.3030    2.8584   -1.0531 H   0  0  0  0  0  0  0  0  0  0  0  0
   -1.1107   -0.2839    0.3303 N   0  0  0  0  0  0  0  0  0  0  0  0
    0.0490   -1.0750    0.6539 C   0  0  2  0  0  0  0  0  0  0  0  0
    0.6719   -0.4847    1.9157 C   0  0  0  0  0  0  0  0  0  0  0  0
    0.7715   -1.1098    2.9695 O   0  0  0  0  0  0  0  0  0  0  0  0
    1.0627   -1.1431   -0.4976 C   0  0  2  0  0  0  0  0  0  0  0  0
    1.5443    0.1598   -0.8238 O   0  0  0  0  0  0  0  0  0  0  0  0
    0.4608   -1.7467   -1.7607 C   0  0  0  0  0  0  0  0  0  0  0  0
   -1.6733   -0.5660   -0.4691 H   0  0  0  0  0  0  0  0  0  0  0  0
   -0.3178   -2.0816    0.8890 H   0  0  0  0  0  0  0  0  0  0  0  0
    1.9300   -1.7463   -0.2053 H   0  0  0  0  0  0  0  0  0  0  0  0
    2.2110    0.0405   -1.5172 H   0  0  0  0  0  0  0  0  0  0  0  0
   -0.4136   -1.1795   -2.0979 H   0  0  0  0  0  0  0  0  0  0  0  0
    0.1668   -2.7887   -1.6025 H   0  0  0  0  0  0  0  0  0  0  0  0
    1.1872   -1.7116   -2.5801 H   0  0  0  0  0  0  0  0  0  0  0  0
    1.0575    0.8367    1.7400 N   0  0  0  0  0  0  0  0  0  0  0  0
    1.6430    1.6229    2.8003 C   0  0  2  0  0  0  0  0  0  0  0  0
    3.1080    1.2262    2.9259 C   0  0  0  0  0  0  0  0  0  0  0  0
    3.5471    0.1477    2.5321 O   0  0  0  0  0  0  0  0  0  0  0  0
    0.9084    1.4131    4.1152 C   0  0  0  0  0  0  0  0  0  0  0  0
    0.9226    1.2677    0.8301 H   0  0  0  0  0  0  0  0  0  0  0  0
    1.5732    2.6718    2.4918 H   0  0  0  0  0  0  0  0  0  0  0  0
    0.9673    0.3680    4.4403 H   0  0  0  0  0  0  0  0  0  0  0  0
    1.3356    2.0315    4.9115 H   0  0  0  0  0  0  0  0  0  0  0  0
   -0.1515    1.6707    4.0149 H   0  0  0  0  0  0  0  0  0  0  0  0
    3.8593    2.2004    3.5685 N   0  0  0  0  0  0  0  0  0  0  0  0
    5.2740    2.0543    3.8199 C   0  0  0  0  0  0  0  0  0  0  0  0
    3.4164    3.0719    3.8441 H   0  0  0  0  0  0  0  0  0  0  0  0
    5.4263    1.6165    4.8175 H   0  0  0  0  0  0  0  0  0  0  0  0
    5.7153    1.3942    3.0587 H   0  0  0  0  0  0  0  0  0  0  0  0
    5.7581    3.0410    3.7748 H   0  0  0  0  0  0  0  0  0  0  0  0
  1  3  1  0  0  0  0
  1  7  1  0  0  0  0
  1  2  2  0  0  0  0
 32 33  1  0  0  0  0
 33 41  1  0  0  0  0
 33 34  2  0  0  0  0
  8  9  1  0  0  0  0
  9 17  1  0  0  0  0
  9 10  2  0  0  0  0
 18 19  1  0  0  0  0
 19 31  1  0  0  0  0
 19 20  2  0  0  0  0
 32 35  1  0  0  0  0
  8 11  1  0  0  0  0
 21 23  1  0  0  0  0
 41 42  1  0  0  0  0
 31 32  1  0  0  0  0
  7  8  1  0  0  0  0
 18 21  1  0  0  0  0
 17 18  1  0  0  0  0
 21 22  1  0  0  0  0
  3  4  1  0  0  0  0
  3  5  1  0  0  0  0
  3  6  1  0  0  0  0
 35 38  1  0  0  0  0
 35 39  1  0  0  0  0
 35 40  1  0  0  0  0
 11 14  1  0  0  0  0
 11 15  1  0  0  0  0
 11 16  1  0  0  0  0
 23 28  1  0  0  0  0
 23 29  1  0  0  0  0
 23 30  1  0  0  0  0
 42 44  1  0  0  0  0
 42 45  1  0  0  0  0
 42 46  1  0  0  0  0
 32 37  1  0  0  0  0
  8 13  1  0  0  0  0
 18 25  1  0  0  0  0
 21 26  1  0  0  0  0
 41 43  1  0  0  0  0
  7 12  1  0  0  0  0
 31 36  1  0  0  0  0
 17 24  1  0  0  0  0
 22 27  1  0  0  0  0
M  END
$$$$

  -OEChem-05262214473D

 46 45  0     1  0  0  0  0  0999 V2000
   -4.6700    2.7214    1.5150 C   0  0  0  0  0  0  0  0  0  0  0  0
   -5.4532    2.5715    0.5845 O   0  0  0  0  0  0  0  0  0  0  0  0
   -5.0996    3.4865    2.7226 C   0  0  0  0  0  0  0  0  0  0  0  0
   -4.8796    4.5629    2.6387 H   0  0  0  0  0  0  0  0  0  0  0  0
   -6.1861    3.4241    2.8954 H   0  0  0  0  0  0  0  0  0  0  0  0
   -4.6369    3.1693    3.6708 H   0  0  0  0  0  0  0  0  0  0  0  0
   -3.3731    2.2391    1.5790 N   0  0  0  0  0  0  0  0  0  0  0  0
   -2.7599    1.4751    0.5247 C   0  0  2  0  0  0  0  0  0  0  0  0
   -1.5143    0.8067    1.0915 C   0  0  0  0  0  0  0  0  0  0  0  0
   -0.9247    1.2213    2.0872 O   0  0  0  0  0  0  0  0  0  0  0  0
   -2.4106    2.3553   -0.6653 C   0  0  0  0  0  0  0  0  0  0  0  0
   -2.8254    2.4352    2.4150 H   0  0  0  0  0  0  0  0  0  0  0  0
   -3.4836    0.7082    0.2278 H   0  0  0  0  0  0  0  0  0  0  0  0
   -1.6866    3.1298   -0.3871 H   0  0  0  0  0  0  0  0  0  0  0  0
   -1.9704    1.7677   -1.4777 H   0  0  0  0  0  0  0  0  0  0  0  0
   -3.3030    2.8584   -1.0531 H   0  0  0  0  0  0  0  0  0  0  0  0
   -1.1107   -0.2839    0.3303 N   0  0  0  0  0  0  0  0  0  0  0  0
    0.0490   -1.0750    0.6539 C   0  0  2  0  0  0  0  0  0  0  0  0
    0.6719   -0.4847    1.9157 C   0  0  0  0  0  0  0  0  0  0  0  0
    1.0168   -1.1697    2.8765 O   0  0  0  0  0  0  0  0  0  0  0  0
    1.0627   -1.1431   -0.4976 C   0  0  2  0  0  0  0  0  0  0  0  0
    1.5443    0.1598   -0.8238 O   0  0  0  0  0  0  0  0  0  0  0  0
    0.4608   -1.7467   -1.7607 C   0  0  0  0  0  0  0  0  0  0  0  0
   -1.6733   -0.5660   -0.4691 H   0  0  0  0  0  0  0  0  0  0  0  0
   -0.3178   -2.0816    0.8890 H   0  0  0  0  0  0  0  0  0  0  0  0
    1.9300   -1.7463   -0.2053 H   0  0  0  0  0  0  0  0  0  0  0  0
    2.2110    0.0405   -1.5172 H   0  0  0  0  0  0  0  0  0  0  0  0
   -0.4136   -1.1795   -2.0979 H   0  0  0  0  0  0  0  0  0  0  0  0
    0.1668   -2.7887   -1.6025 H   0  0  0  0  0  0  0  0  0  0  0  0
    1.1872   -1.7116   -2.5801 H   0  0  0  0  0  0  0  0  0  0  0  0
    0.7512    0.8996    1.8617 N   0  0  0  0  0  0  0  0  0  0  0  0
    1.2744    1.6911    2.9503 C   0  0  2  0  0  0  0  0  0  0  0  0
    2.7947    1.6154    2.8986 C   0  0  0  0  0  0  0  0  0  0  0  0
    3.4023    0.7017    2.3444 O   0  0  0  0  0  0  0  0  0  0  0  0
    0.7512    1.2016    4.2917 C   0  0  0  0  0  0  0  0  0  0  0  0
    0.4287    1.3748    1.0238 H   0  0  0  0  0  0  0  0  0  0  0  0
    0.9534    2.7235    2.7736 H   0  0  0  0  0  0  0  0  0  0  0  0
    1.0628    0.1689    4.4863 H   0  0  0  0  0  0  0  0  0  0  0  0
    1.1262    1.8204    5.1136 H   0  0  0  0  0  0  0  0  0  0  0  0
   -0.3435    1.2287    4.3164 H   0  0  0  0  0  0  0  0  0  0  0  0
    3.3930    2.6653    3.5811 N   0  0  0  0  0  0  0  0  0  0  0  0
    4.8261    2.8100    3.6875 C   0  0  0  0  0  0  0  0  0  0  0  0
    2.8117    3.3883    3.9946 H   0  0  0  0  0  0  0  0  0  0  0  0
    5.1768    2.3238    4.6098 H   0  0  0  0  0  0  0  0  0  0  0  0
    5.3077    2.3380    2.8184 H   0  0  0  0  0  0  0  0  0  0  0  0
    5.0856    3.8786    3.7150 H   0  0  0  0  0  0  0  0  0  0  0  0
  1  3  1  0  0  0  0
  1  7  1  0  0  0  0
  1  2  2  0  0  0  0
 32 33  1  0  0  0  0
 33 41  1  0  0  0  0
 33 34  2  0  0  0  0
  8  9  1  0  0  0  0
  9 17  1  0  0  0  0
  9 10  2  0  0  0  0
 18 19  1  0  0  0  0
 19 31  1  0  0  0  0
 19 20  2  0  0  0  0
 32 35  1  0  0  0  0
  8 11  1  0  0  0  0
 21 23  1  0  0  0  0
 41 42  1  0  0  0  0
 31 32  1  0  0  0  0
  7  8  1  0  0  0  0
 18 21  1  0  0  0  0
 17 18  1  0  0  0  0
 21 22  1  0  0  0  0
  3  4  1  0  0  0  0
  3  5  1  0  0  0  0
  3  6  1  0  0  0  0
 35 38  1  0  0  0  0
 35 39  1  0  0  0  0
 35 40  1  0  0  0  0
 11 14  1  0  0  0  0
 11 15  1  0  0  0  0
 11 16  1  0  0  0  0
 23 28  1  0  0  0  0
 23 29  1  0  0  0  0
 23 30  1  0  0  0  0
 42 44  1  0  0  0  0
 42 45  1  0  0  0  0
 42 46  1  0  0  0  0
 32 37  1  0  0  0  0
  8 13  1  0  0  0  0
 18 25  1  0  0  0  0
 21 26  1  0  0  0  0
 41 43  1  0  0  0  0
  7 12  1  0  0  0  0
 31 36  1  0  0  0  0
 17 24  1  0  0  0  0
 22 27  1  0  0  0  0
M  END
$$$$

  -OEChem-05262214473D

 46 45  0     1  0  0  0  0  0999 V2000
   -4.6700    2.7214    1.5150 C   0  0  0  0  0  0  0  0  0  0  0  0
   -5.4532    2.5715    0.5845 O   0  0  0  0  0  0  0  0  0  0  0  0
   -5.0996    3.4865    2.7226 C   0  0  0  0  0  0  0  0  0  0  0  0
   -4.8796    4.5629    2.6387 H   0  0  0  0  0  0  0  0  0  0  0  0
   -6.1861    3.4241    2.8954 H   0  0  0  0  0  0  0  0  0  0  0  0
   -4.6369    3.1693    3.6708 H   0  0  0  0  0  0  0  0  0  0  0  0
   -3.3731    2.2391    1.5790 N   0  0  0  0  0  0  0  0  0  0  0  0
   -2.7599    1.4751    0.5247 C   0  0  2  0  0  0  0  0  0  0  0  0
   -1.5143    0.8067    1.0915 C   0  0  0  0  0  0  0  0  0  0  0  0
   -0.9247    1.2213    2.0872 O   0  0  0  0  0  0  0  0  0  0  0  0
   -2.4106    2.3553   -0.6653 C   0  0  0  0  0  0  0  0  0  0  0  0
   -2.8254    2.4352    2.4150 H   0  0  0  0  0  0  0  0  0  0  0  0
   -3.4836    0.7082    0.2278 H   0  0  0  0  0  0  0  0  0  0  0  0
   -1.6866    3.1298   -0.3871 H   0  0  0  0  0  0  0  0  0  0  0  0
   -1.9704    1.7677   -1.4777 H   0  0  0  0  0  0  0  0  0  0  0  0
   -3.3030    2.8584   -1.0531 H   0  0  0  0  0  0  0  0  0  0  0  0
   -1.1107   -0.2839    0.3303 N   0  0  0  0  0  0  0  0  0  0  0  0
    0.0490   -1.0750    0.6539 C   0  0  2  0  0  0  0  0  0  0  0  0
    0.6719   -0.4847    1.9157 C   0  0  0  0  0  0  0  0  0  0  0  0
    1.2571   -1.1652    2.7557 O   0  0  0  0  0  0  0  0  0  0  0  0
    1.0627   -1.1431   -0.4976 C   0  0  2  0  0  0  0  0  0  0  0  0
    1.5443    0.1598   -0.8238 O   0  0  0  0  0  0  0  0  0  0  0  0
    0.4608   -1.7467   -1.7607 C   0  0  0  0  0  0  0  0  0  0  0  0
   -1.6733   -0.5660   -0.4691 H   0  0  0  0  0  0  0  0  0  0  0  0
   -0.3178   -2.0816    0.8890 H   0  0  0  0  0  0  0  0  0  0  0  0
    1.9300   -1.7463   -0.2053 H   0  0  0  0  0  0  0  0  0  0  0  0
    2.2110    0.0405   -1.5172 H   0  0  0  0  0  0  0  0  0  0  0  0
   -0.4136   -1.1795   -2.0979 H   0  0  0  0  0  0  0  0  0  0  0  0
    0.1668   -2.7887   -1.6025 H   0  0  0  0  0  0  0  0  0  0  0  0
    1.1872   -1.7116   -2.5801 H   0  0  0  0  0  0  0  0  0  0  0  0
    0.4541    0.8821    2.0166 N   0  0  0  0  0  0  0  0  0  0  0  0
    0.9189    1.6622    3.1394 C   0  0  2  0  0  0  0  0  0  0  0  0
    2.4059    1.9272    2.9446 C   0  0  0  0  0  0  0  0  0  0  0  0
    3.1251    1.2258    2.2361 O   0  0  0  0  0  0  0  0  0  0  0  0
    0.6623    0.9450    4.4556 C   0  0  0  0  0  0  0  0  0  0  0  0
   -0.0519    1.3520    1.2717 H   0  0  0  0  0  0  0  0  0  0  0  0
    0.3718    2.6110    3.1133 H   0  0  0  0  0  0  0  0  0  0  0  0
    1.2023   -0.0079    4.5001 H   0  0  0  0  0  0  0  0  0  0  0  0
    0.9893    1.5503    5.3076 H   0  0  0  0  0  0  0  0  0  0  0  0
   -0.4042    0.7288    4.5802 H   0  0  0  0  0  0  0  0  0  0  0  0
    2.8445    3.0132    3.6891 N   0  0  0  0  0  0  0  0  0  0  0  0
    4.2185    3.4581    3.6842 C   0  0  0  0  0  0  0  0  0  0  0  0
    2.1749    3.5486    4.2340 H   0  0  0  0  0  0  0  0  0  0  0  0
    4.7637    2.9755    4.5088 H   0  0  0  0  0  0  0  0  0  0  0  0
    4.6879    3.1877    2.7268 H   0  0  0  0  0  0  0  0  0  0  0  0
    4.2508    4.5500    3.8130 H   0  0  0  0  0  0  0  0  0  0  0  0
  1  3  1  0  0  0  0
  1  7  1  0  0  0  0
  1  2  2  0  0  0  0
 32 33  1  0  0  0  0
 33 41  1  0  0  0  0
 33 34  2  0  0  0  0
  8  9  1  0  0  0  0
  9 17  1  0  0  0  0
  9 10  2  0  0  0  0
 18 19  1  0  0  0  0
 19 31  1  0  0  0  0
 19 20  2  0  0  0  0
 32 35  1  0  0  0  0
  8 11  1  0  0  0  0
 21 23  1  0  0  0  0
 41 42  1  0  0  0  0
 31 32  1  0  0  0  0
  7  8  1  0  0  0  0
 18 21  1  0  0  0  0
 17 18  1  0  0  0  0
 21 22  1  0  0  0  0
  3  4  1  0  0  0  0
  3  5  1  0  0  0  0
  3  6  1  0  0  0  0
 35 38  1  0  0  0  0
 35 39  1  0  0  0  0
 35 40  1  0  0  0  0
 11 14  1  0  0  0  0
 11 15  1  0  0  0  0
 11 16  1  0  0  0  0
 23 28  1  0  0  0  0
 23 29  1  0  0  0  0
 23 30  1  0  0  0  0
 42 44  1  0  0  0  0
 42 45  1  0  0  0  0
 42 46  1  0  0  0  0
 32 37  1  0  0  0  0
  8 13  1  0  0  0  0
 18 25  1  0  0  0  0
 21 26  1  0  0  0  0
 41 43  1  0  0  0  0
  7 12  1  0  0  0  0
 31 36  1  0  0  0  0
 17 24  1  0  0  0  0
 22 27  1  0  0  0  0
M  END
$$$$

  -OEChem-05262214473D

 46 45  0     1  0  0  0  0  0999 V2000
   -4.6700    2.7214    1.5150 C   0  0  0  0  0  0  0  0  0  0  0  0
   -5.4532    2.5715    0.5845 O   0  0  0  0  0  0  0  0  0  0  0  0
   -5.0996    3.4865    2.7226 C   0  0  0  0  0  0  0  0  0  0  0  0
   -4.8796    4.5629    2.6387 H   0  0  0  0  0  0  0  0  0  0  0  0
   -6.1861    3.4241    2.8954 H   0  0  0  0  0  0  0  0  0  0  0  0
   -4.6369    3.1693    3.6708 H   0  0  0  0  0  0  0  0  0  0  0  0
   -3.3731    2.2391    1.5790 N   0  0  0  0  0  0  0  0  0  0  0  0
   -2.7599    1.4751    0.5247 C   0  0  2  0  0  0  0  0  0  0  0  0
   -1.5143    0.8067    1.0915 C   0  0  0  0  0  0  0  0  0  0  0  0
   -0.9247    1.2213    2.0872 O   0  0  0  0  0  0  0  0  0  0  0  0
   -2.4106    2.3553   -0.6653 C   0  0  0  0  0  0  0  0  0  0  0  0
   -2.8254    2.4352    2.4150 H   0  0  0  0  0  0  0  0  0  0  0  0
   -3.4836    0.7082    0.2278 H   0  0  0  0  0  0  0  0  0  0  0  0
   -1.6866    3.1298   -0.3871 H   0  0  0  0  0  0  0  0  0  0  0  0
   -1.9704    1.7677   -1.4777 H   0  0  0  0  0  0  0  0  0  0  0  0
   -3.3030    2.8584   -1.0531 H   0  0  0  0  0  0  0  0  0  0  0  0
   -1.1107   -0.2839    0.3303 N   0  0  0  0  0  0  0  0  0  0  0  0
    0.0490   -1.0750    0.6539 C   0  0  2  0  0  0  0  0  0  0  0  0
    0.6719   -0.4847    1.9157 C   0  0  0  0  0  0  0  0  0  0  0  0
    1.4762   -1.0967    2.6155 O   0  0  0  0  0  0  0  0  0  0  0  0
    1.0627   -1.1431   -0.4976 C   0  0  2  0  0  0  0  0  0  0  0  0
    1.5443    0.1598   -0.8238 O   0  0  0  0  0  0  0  0  0  0  0  0
    0.4608   -1.7467   -1.7607 C   0  0  0  0  0  0  0  0  0  0  0  0
   -1.6733   -0.5660   -0.4691 H   0  0  0  0  0  0  0  0  0  0  0  0
   -0.3178   -2.0816    0.8890 H   0  0  0  0  0  0  0  0  0  0  0  0
    1.9300   -1.7463   -0.2053 H   0  0  0  0  0  0  0  0  0  0  0  0
    2.2110    0.0405   -1.5172 H   0  0  0  0  0  0  0  0  0  0  0  0
   -0.4136   -1.1795   -2.0979 H   0  0  0  0  0  0  0  0  0  0  0  0
    0.1668   -2.7887   -1.6025 H   0  0  0  0  0  0  0  0  0  0  0  0
    1.1872   -1.7116   -2.5801 H   0  0  0  0  0  0  0  0  0  0  0  0
    0.1864    0.7851    2.1941 N   0  0  0  0  0  0  0  0  0  0  0  0
    0.6005    1.5383    3.3545 C   0  0  2  0  0  0  0  0  0  0  0  0
    1.9684    2.1402    3.0609 C   0  0  0  0  0  0  0  0  0  0  0  0
    2.7343    1.6841    2.2146 O   0  0  0  0  0  0  0  0  0  0  0  0
    0.6478    0.6609    4.5957 C   0  0  0  0  0  0  0  0  0  0  0  0
   -0.4865    1.2010    1.5568 H   0  0  0  0  0  0  0  0  0  0  0  0
   -0.1318    2.3420    3.4878 H   0  0  0  0  0  0  0  0  0  0  0  0
    1.3762   -0.1502    4.4808 H   0  0  0  0  0  0  0  0  0  0  0  0
    0.9343    1.2396    5.4800 H   0  0  0  0  0  0  0  0  0  0  0  0
   -0.3294    0.2051    4.7883 H   0  0  0  0  0  0  0  0  0  0  0  0
    2.2509    3.2205    3.8852 N   0  0  0  0  0  0  0  0  0  0  0  0
    3.4926    3.9544    3.8104 C   0  0  0  0  0  0  0  0  0  0  0  0
    1.5496    3.5418    4.5459 H   0  0  0  0  0  0  0  0  0  0  0  0
    4.2150    3.5273    4.5215 H   0  0  0  0  0  0  0  0  0  0  0  0
    3.8982    3.8856    2.7902 H   0  0  0  0  0  0  0  0  0  0  0  0
    3.3105    5.0096    4.0621 H   0  0  0  0  0  0  0  0  0  0  0  0
  1  3  1  0  0  0  0
  1  7  1  0  0  0  0
  1  2  2  0  0  0  0
 32 33  1  0  0  0  0
 33 41  1  0  0  0  0
 33 34  2  0  0  0  0
  8  9  1  0  0  0  0
  9 17  1  0  0  0  0
  9 10  2  0  0  0  0
 18 19  1  0  0  0  0
 19 31  1  0  0  0  0
 19 20  2  0  0  0  0
 32 35  1  0  0  0  0
  8 11  1  0  0  0  0
 21 23  1  0  0  0  0
 41 42  1  0  0  0  0
 31 32  1  0  0  0  0
  7  8  1  0  0  0  0
 18 21  1  0  0  0  0
 17 18  1  0  0  0  0
 21 22  1  0  0  0  0
  3  4  1  0  0  0  0
  3  5  1  0  0  0  0
  3  6  1  0  0  0  0
 35 38  1  0  0  0  0
 35 39  1  0  0  0  0
 35 40  1  0  0  0  0
 11 14  1  0  0  0  0
 11 15  1  0  0  0  0
 11 16  1  0  0  0  0
 23 28  1  0  0  0  0
 23 29  1  0  0  0  0
 23 30  1  0  0  0  0
 42 44  1  0  0  0  0
 42 45  1  0  0  0  0
 42 46  1  0  0  0  0
 32 37  1  0  0  0  0
  8 13  1  0  0  0  0
 18 25  1  0  0  0  0
 21 26  1  0  0  0  0
 41 43  1  0  0  0  0
  7 12  1  0  0  0  0
 31 36  1  0  0  0  0
 17 24  1  0  0  0  0
 22 27  1  0  0  0  0
M  END
$$$$

  -OEChem-05262214473D

 46 45  0     1  0  0  0  0  0999 V2000
   -4.6700    2.7214    1.5150 C   0  0  0  0  0  0  0  0  0  0  0  0
   -5.4532    2.5715    0.5845 O   0  0  0  0  0  0  0  0  0  0  0  0
   -5.0996    3.4865    2.7226 C   0  0  0  0  0  0  0  0  0  0  0  0
   -4.8796    4.5629    2.6387 H   0  0  0  0  0  0  0  0  0  0  0  0
   -6.1861    3.4241    2.8954 H   0  0  0  0  0  0  0  0  0  0  0  0
   -4.6369    3.1693    3.6708 H   0  0  0  0  0  0  0  0  0  0  0  0
   -3.3731    2.2391    1.5790 N   0  0  0  0  0  0  0  0  0  0  0  0
   -2.7599    1.4751    0.5247 C   0  0  2  0  0  0  0  0  0  0  0  0
   -1.5143    0.8067    1.0915 C   0  0  0  0  0  0  0  0  0  0  0  0
   -0.9247    1.2213    2.0872 O   0  0  0  0  0  0  0  0  0  0  0  0
   -2.4106    2.3553   -0.6653 C   0  0  0  0  0  0  0  0  0  0  0  0
   -2.8254    2.4352    2.4150 H   0  0  0  0  0  0  0  0  0  0  0  0
   -3.4836    0.7082    0.2278 H   0  0  0  0  0  0  0  0  0  0  0  0
   -1.6866    3.1298   -0.3871 H   0  0  0  0  0  0  0  0  0  0  0  0
   -1.9704    1.7677   -1.4777 H   0  0  0  0  0  0  0  0  0  0  0  0
   -3.3030    2.8584   -1.0531 H   0  0  0  0  0  0  0  0  0  0  0  0
   -1.1107   -0.2839    0.3303 N   0  0  0  0  0  0  0  0  0  0  0  0
    0.0490   -1.0750    0.6539 C   0  0  2  0  0  0  0  0  0  0  0  0
    0.6719   -0.4847    1.9157 C   0  0  0  0  0  0  0  0  0  0  0  0
    1.6592   -0.9688    2.4654 O   0  0  0  0  0  0  0  0  0  0  0  0
    1.0627   -1.1431   -0.4976 C   0  0  2  0  0  0  0  0  0  0  0  0
    1.5443    0.1598   -0.8238 O   0  0  0  0  0  0  0  0  0  0  0  0
    0.4608   -1.7467   -1.7607 C   0  0  0  0  0  0  0  0  0  0  0  0
   -1.6733   -0.5660   -0.4691 H   0  0  0  0  0  0  0  0  0  0  0  0
   -0.3178   -2.0816    0.8890 H   0  0  0  0  0  0  0  0  0  0  0  0
    1.9300   -1.7463   -0.2053 H   0  0  0  0  0  0  0  0  0  0  0  0
    2.2110    0.0405   -1.5172 H   0  0  0  0  0  0  0  0  0  0  0  0
   -0.4136   -1.1795   -2.0979 H   0  0  0  0  0  0  0  0  0  0  0  0
    0.1668   -2.7887   -1.6025 H   0  0  0  0  0  0  0  0  0  0  0  0
    1.1872   -1.7116   -2.5801 H   0  0  0  0  0  0  0  0  0  0  0  0
   -0.0337    0.6154    2.3821 N   0  0  0  0  0  0  0  0  0  0  0  0
    0.3411    1.3277    3.5811 C   0  0  2  0  0  0  0  0  0  0  0  0
    1.5117    2.2401    3.2396 C   0  0  0  0  0  0  0  0  0  0  0  0
    2.2566    2.0454    2.2814 O   0  0  0  0  0  0  0  0  0  0  0  0
    0.7087    0.3685    4.7025 C   0  0  0  0  0  0  0  0  0  0  0  0
   -0.8453    0.9321    1.8598 H   0  0  0  0  0  0  0  0  0  0  0  0
   -0.5233    1.9348    3.8715 H   0  0  0  0  0  0  0  0  0  0  0  0
    1.5727   -0.2484    4.4298 H   0  0  0  0  0  0  0  0  0  0  0  0
    0.9650    0.9095    5.6193 H   0  0  0  0  0  0  0  0  0  0  0  0
   -0.1242   -0.3067    4.9265 H   0  0  0  0  0  0  0  0  0  0  0  0
    1.6529    3.2730    4.1558 N   0  0  0  0  0  0  0  0  0  0  0  0
    2.6979    4.2651    4.0573 C   0  0  0  0  0  0  0  0  0  0  0  0
    0.9781    3.3685    4.9090 H   0  0  0  0  0  0  0  0  0  0  0  0
    3.5682    3.9415    4.6470 H   0  0  0  0  0  0  0  0  0  0  0  0
    2.9924    4.3839    3.0042 H   0  0  0  0  0  0  0  0  0  0  0  0
    2.3289    5.2259    4.4455 H   0  0  0  0  0  0  0  0  0  0  0  0
  1  3  1  0  0  0  0
  1  7  1  0  0  0  0
  1  2  2  0  0  0  0
 32 33  1  0  0  0  0
 33 41  1  0  0  0  0
 33 34  2  0  0  0  0
  8  9  1  0  0  0  0
  9 17  1  0  0  0  0
  9 10  2  0  0  0  0
 18 19  1  0  0  0  0
 19 31  1  0  0  0  0
 19 20  2  0  0  0  0
 32 35  1  0  0  0  0
  8 11  1  0  0  0  0
 21 23  1  0  0  0  0
 41 42  1  0  0  0  0
 31 32  1  0  0  0  0
  7  8  1  0  0  0  0
 18 21  1  0  0  0  0
 17 18  1  0  0  0  0
 21 22  1  0  0  0  0
  3  4  1  0  0  0  0
  3  5  1  0  0  0  0
  3  6  1  0  0  0  0
 35 38  1  0  0  0  0
 35 39  1  0  0  0  0
 35 40  1  0  0  0  0
 11 14  1  0  0  0  0
 11 15  1  0  0  0  0
 11 16  1  0  0  0  0
 23 28  1  0  0  0  0
 23 29  1  0  0  0  0
 23 30  1  0  0  0  0
 42 44  1  0  0  0  0
 42 45  1  0  0  0  0
 42 46  1  0  0  0  0
 32 37  1  0  0  0  0
  8 13  1  0  0  0  0
 18 25  1  0  0  0  0
 21 26  1  0  0  0  0
 41 43  1  0  0  0  0
  7 12  1  0  0  0  0
 31 36  1  0  0  0  0
 17 24  1  0  0  0  0
 22 27  1  0  0  0  0
M  END
$$$$

  -OEChem-05262214473D

 46 45  0     1  0  0  0  0  0999 V2000
   -4.6700    2.7214    1.5150 C   0  0  0  0  0  0  0  0  0  0  0  0
   -5.4532    2.5715    0.5845 O   0  0  0  0  0  0  0  0  0  0  0  0
   -5.0996    3.4865    2.7226 C   0  0  0  0  0  0  0  0  0  0  0  0
   -4.8796    4.5629    2.6387 H   0  0  0  0  0  0  0  0  0  0  0  0
   -6.1861    3.4241    2.8954 H   0  0  0  0  0  0  0  0  0  0  0  0
   -4.6369    3.1693    3.6708 H   0  0  0  0  0  0  0  0  0  0  0  0
   -3.3731    2.2391    1.5790 N   0  0  0  0  0  0  0  0  0  0  0  0
   -2.7599    1.4751    0.5247 C   0  0  2  0  0  0  0  0  0  0  0  0
   -1.5143    0.8067    1.0915 C   0  0  0  0  0  0  0  0  0  0  0  0
   -0.9247    1.2213    2.0872 O   0  0  0  0  0  0  0  0  0  0  0  0
   -2.4106    2.3553   -0.6653 C   0  0  0  0  0  0  0  0  0  0  0  0
   -2.8254    2.4352    2.4150 H   0  0  0  0  0  0  0  0  0  0  0  0
   -3.4836    0.7082    0.2278 H   0  0  0  0  0  0  0  0  0  0  0  0
   -1.6866    3.1298   -0.3871 H   0  0  0  0  0  0  0  0  0  0  0  0
   -1.9704    1.7677   -1.4777 H   0  0  0  0  0  0  0  0  0  0  0  0
   -3.3030    2.8584   -1.0531 H   0  0  0  0  0  0  0  0  0  0  0  0
   -1.1107   -0.2839    0.3303 N   0  0  0  0  0  0  0  0  0  0  0  0
    0.0490   -1.0750    0.6539 C   0  0  2  0  0  0  0  0  0  0  0  0
    0.6719   -0.4847    1.9157 C   0  0  0  0  0  0  0  0  0  0  0  0
    1.7935   -0.7902    2.3155 O   0  0  0  0  0  0  0  0  0  0  0  0
    1.0627   -1.1431   -0.4976 C   0  0  2  0  0  0  0  0  0  0  0  0
    1.5443    0.1598   -0.8238 O   0  0  0  0  0  0  0  0  0  0  0  0
    0.4608   -1.7467   -1.7607 C   0  0  0  0  0  0  0  0  0  0  0  0
   -1.6733   -0.5660   -0.4691 H   0  0  0  0  0  0  0  0  0  0  0  0
   -0.3178   -2.0816    0.8890 H   0  0  0  0  0  0  0  0  0  0  0  0
    1.9300   -1.7463   -0.2053 H   0  0  0  0  0  0  0  0  0  0  0  0
    2.2110    0.0405   -1.5172 H   0  0  0  0  0  0  0  0  0  0  0  0
   -0.4136   -1.1795   -2.0979 H   0  0  0  0  0  0  0  0  0  0  0  0
    0.1668   -2.7887   -1.6025 H   0  0  0  0  0  0  0  0  0  0  0  0
    1.1872   -1.7116   -2.5801 H   0  0  0  0  0  0  0  0  0  0  0  0
   -0.1911    0.3846    2.5678 N   0  0  0  0  0  0  0  0  0  0  0  0
    0.1582    1.0448    3.8037 C   0  0  2  0  0  0  0  0  0  0  0  0
    1.0672    2.2200    3.4685 C   0  0  0  0  0  0  0  0  0  0  0  0
    1.7246    2.2851    2.4318 O   0  0  0  0  0  0  0  0  0  0  0  0
    0.8407    0.0878    4.7686 C   0  0  0  0  0  0  0  0  0  0  0  0
   -1.1041    0.5634    2.1600 H   0  0  0  0  0  0  0  0  0  0  0  0
   -0.7758    1.4172    4.2383 H   0  0  0  0  0  0  0  0  0  0  0  0
    1.7785   -0.2958    4.3504 H   0  0  0  0  0  0  0  0  0  0  0  0
    1.0792    0.5825    5.7159 H   0  0  0  0  0  0  0  0  0  0  0  0
    0.1973   -0.7718    4.9853 H   0  0  0  0  0  0  0  0  0  0  0  0
    1.0911    3.1671    4.4827 N   0  0  0  0  0  0  0  0  0  0  0  0
    1.8884    4.3691    4.4083 C   0  0  0  0  0  0  0  0  0  0  0  0
    0.4996    3.0405    5.2987 H   0  0  0  0  0  0  0  0  0  0  0  0
    2.8674    4.1899    4.8768 H   0  0  0  0  0  0  0  0  0  0  0  0
    2.0322    4.6488    3.3542 H   0  0  0  0  0  0  0  0  0  0  0  0
    1.3728    5.1843    4.9369 H   0  0  0  0  0  0  0  0  0  0  0  0
  1  3  1  0  0  0  0
  1  7  1  0  0  0  0
  1  2  2  0  0  0  0
 32 33  1  0  0  0  0
 33 41  1  0  0  0  0
 33 34  2  0  0  0  0
  8  9  1  0  0  0  0
  9 17  1  0  0  0  0
  9 10  2  0  0  0  0
 18 19  1  0  0  0  0
 19 31  1  0  0  0  0
 19 20  2  0  0  0  0
 32 35  1  0  0  0  0
  8 11  1  0  0  0  0
 21 23  1  0  0  0  0
 41 42  1  0  0  0  0
 31 32  1  0  0  0  0
  7  8  1  0  0  0  0
 18 21  1  0  0  0  0
 17 18  1  0  0  0  0
 21 22  1  0  0  0  0
  3  4  1  0  0  0  0
  3  5  1  0  0  0  0
  3  6  1  0  0  0  0
 35 38  1  0  0  0  0
 35 39  1  0  0  0  0
 35 40  1  0  0  0  0
 11 14  1  0  0  0  0
 11 15  1  0  0  0  0
 11 16  1  0  0  0  0
 23 28  1  0  0  0  0
 23 29  1  0  0  0  0
 23 30  1  0  0  0  0
 42 44  1  0  0  0  0
 42 45  1  0  0  0  0
 42 46  1  0  0  0  0
 32 37  1  0  0  0  0
  8 13  1  0  0  0  0
 18 25  1  0  0  0  0
 21 26  1  0  0  0  0
 41 43  1  0  0  0  0
  7 12  1  0  0  0  0
 31 36  1  0  0  0  0
 17 24  1  0  0  0  0
 22 27  1  0  0  0  0
M  END
$$$$

  -OEChem-05262214473D

 46 45  0     1  0  0  0  0  0999 V2000
   -4.6700    2.7214    1.5150 C   0  0  0  0  0  0  0  0  0  0  0  0
   -5.4532    2.5715    0.5845 O   0  0  0  0  0  0  0  0  0  0  0  0
   -5.0996    3.4865    2.7226 C   0  0  0  0  0  0  0  0  0  0  0  0
   -4.8796    4.5629    2.6387 H   0  0  0  0  0  0  0  0  0  0  0  0
   -6.1861    3.4241    2.8954 H   0  0  0  0  0  0  0  0  0  0  0  0
   -4.6369    3.1693    3.6708 H   0  0  0  0  0  0  0  0  0  0  0  0
   -3.3731    2.2391    1.5790 N   0  0  0  0  0  0  0  0  0  0  0  0
   -2.7599    1.4751    0.5247 C   0  0  2  0  0  0  0  0  0  0  0  0
   -1.5143    0.8067    1.0915 C   0  0  0  0  0  0  0  0  0  0  0  0
   -0.9247    1.2213    2.0872 O   0  0  0  0  0  0  0  0  0  0  0  0
   -2.4106    2.3553   -0.6653 C   0  0  0  0  0  0  0  0  0  0  0  0
   -2.8254    2.4352    2.4150 H   0  0  0  0  0  0  0  0  0  0  0  0
   -3.4836    0.7082    0.2278 H   0  0  0  0  0  0  0  0  0  0  0  0
   -1.6866    3.1298   -0.3871 H   0  0  0  0  0  0  0  0  0  0  0  0
   -1.9704    1.7677   -1.4777 H   0  0  0  0  0  0  0  0  0  0  0  0
   -3.3030    2.8584   -1.0531 H   0  0  0  0  0  0  0  0  0  0  0  0
   -1.1107   -0.2839    0.3303 N   0  0  0  0  0  0  0  0  0  0  0  0
    0.0490   -1.0750    0.6539 C   0  0  2  0  0  0  0  0  0  0  0  0
    0.6719   -0.4847    1.9157 C   0  0  0  0  0  0  0  0  0  0  0  0
    1.8700   -0.5732    2.1762 O   0  0  0  0  0  0  0  0  0  0  0  0
    1.0627   -1.1431   -0.4976 C   0  0  2  0  0  0  0  0  0  0  0  0
    1.5443    0.1598   -0.8238 O   0  0  0  0  0  0  0  0  0  0  0  0
    0.4608   -1.7467   -1.7607 C   0  0  0  0  0  0  0  0  0  0  0  0
   -1.6733   -0.5660   -0.4691 H   0  0  0  0  0  0  0  0  0  0  0  0
   -0.3178   -2.0816    0.8890 H   0  0  0  0  0  0  0  0  0  0  0  0
    1.9300   -1.7463   -0.2053 H   0  0  0  0  0  0  0  0  0  0  0  0
    2.2110    0.0405   -1.5172 H   0  0  0  0  0  0  0  0  0  0  0  0
   -0.4136   -1.1795   -2.0979 H   0  0  0  0  0  0  0  0  0  0  0  0
    0.1668   -2.7887   -1.6025 H   0  0  0  0  0  0  0  0  0  0  0  0
    1.1872   -1.7116   -2.5801 H   0  0  0  0  0  0  0  0  0  0  0  0
   -0.2752    0.1083    2.7386 N   0  0  0  0  0  0  0  0  0  0  0  0
    0.0645    0.7089    4.0071 C   0  0  2  0  0  0  0  0  0  0  0  0
    0.6650    2.0812    3.7320 C   0  0  0  0  0  0  0  0  0  0  0  0
    1.1744    2.3869    2.6558 O   0  0  0  0  0  0  0  0  0  0  0  0
    1.0349   -0.1621    4.7896 C   0  0  0  0  0  0  0  0  0  0  0  0
   -1.2451    0.1203    2.4369 H   0  0  0  0  0  0  0  0  0  0  0  0
   -0.8723    0.8244    4.5633 H   0  0  0  0  0  0  0  0  0  0  0  0
    1.9794   -0.2891    4.2481 H   0  0  0  0  0  0  0  0  0  0  0  0
    1.2692    0.2809    5.7633 H   0  0  0  0  0  0  0  0  0  0  0  0
    0.6133   -1.1585    4.9608 H   0  0  0  0  0  0  0  0  0  0  0  0
    0.6039    2.9100    4.8435 N   0  0  0  0  0  0  0  0  0  0  0  0
    1.1194    4.2592    4.8393 C   0  0  0  0  0  0  0  0  0  0  0  0
    0.1467    2.5800    5.6883 H   0  0  0  0  0  0  0  0  0  0  0  0
    2.1603    4.2556    5.1951 H   0  0  0  0  0  0  0  0  0  0  0  0
    1.0831    4.6622    3.8164 H   0  0  0  0  0  0  0  0  0  0  0  0
    0.5074    4.8875    5.5030 H   0  0  0  0  0  0  0  0  0  0  0  0
  1  3  1  0  0  0  0
  1  7  1  0  0  0  0
  1  2  2  0  0  0  0
 32 33  1  0  0  0  0
 33 41  1  0  0  0  0
 33 34  2  0  0  0  0
  8  9  1  0  0  0  0
  9 17  1  0  0  0  0
  9 10  2  0  0  0  0
 18 19  1  0  0  0  0
 19 31  1  0  0  0  0
 19 20  2  0  0  0  0
 32 35  1  0  0  0  0
  8 11  1  0  0  0  0
 21 23  1  0  0  0  0
 41 42  1  0  0  0  0
 31 32  1  0  0  0  0
  7  8  1  0  0  0  0
 18 21  1  0  0  0  0
 17 18  1  0  0  0  0
 21 22  1  0  0  0  0
  3  4  1  0  0  0  0
  3  5  1  0  0  0  0
  3  6  1  0  0  0  0
 35 38  1  0  0  0  0
 35 39  1  0  0  0  0
 35 40  1  0  0  0  0
 11 14  1  0  0  0  0
 11 15  1  0  0  0  0
 11 16  1  0  0  0  0
 23 28  1  0  0  0  0
 23 29  1  0  0  0  0
 23 30  1  0  0  0  0
 42 44  1  0  0  0  0
 42 45  1  0  0  0  0
 42 46  1  0  0  0  0
 32 37  1  0  0  0  0
  8 13  1  0  0  0  0
 18 25  1  0  0  0  0
 21 26  1  0  0  0  0
 41 43  1  0  0  0  0
  7 12  1  0  0  0  0
 31 36  1  0  0  0  0
 17 24  1  0  0  0  0
 22 27  1  0  0  0  0
M  END
$$$$

  -OEChem-05262214473D

 46 45  0     1  0  0  0  0  0999 V2000
   -4.6700    2.7214    1.5150 C   0  0  0  0  0  0  0  0  0  0  0  0
   -5.4532    2.5715    0.5845 O   0  0  0  0  0  0  0  0  0  0  0  0
   -5.0996    3.4865    2.7226 C   0  0  0  0  0  0  0  0  0  0  0  0
   -4.8796    4.5629    2.6387 H   0  0  0  0  0  0  0  0  0  0  0  0
   -6.1861    3.4241    2.8954 H   0  0  0  0  0  0  0  0  0  0  0  0
   -4.6369    3.1693    3.6708 H   0  0  0  0  0  0  0  0  0  0  0  0
   -3.3731    2.2391    1.5790 N   0  0  0  0  0  0  0  0  0  0  0  0
   -2.7599    1.4751    0.5247 C   0  0  2  0  0  0  0  0  0  0  0  0
   -1.5143    0.8067    1.0915 C   0  0  0  0  0  0  0  0  0  0  0  0
   -0.9247    1.2213    2.0872 O   0  0  0  0  0  0  0  0  0  0  0  0
   -2.4106    2.3553   -0.6653 C   0  0  0  0  0  0  0  0  0  0  0  0
   -2.8254    2.4352    2.4150 H   0  0  0  0  0  0  0  0  0  0  0  0
   -3.4836    0.7082    0.2278 H   0  0  0  0  0  0  0  0  0  0  0  0
   -1.6866    3.1298   -0.3871 H   0  0  0  0  0  0  0  0  0  0  0  0
   -1.9704    1.7677   -1.4777 H   0  0  0  0  0  0  0  0  0  0  0  0
   -3.3030    2.8584   -1.0531 H   0  0  0  0  0  0  0  0  0  0  0  0
   -1.1107   -0.2839    0.3303 N   0  0  0  0  0  0  0  0  0  0  0  0
    0.0490   -1.0750    0.6539 C   0  0  2  0  0  0  0  0  0  0  0  0
    0.6719   -0.4847    1.9157 C   0  0  0  0  0  0  0  0  0  0  0  0
    1.8835   -0.3324    2.0569 O   0  0  0  0  0  0  0  0  0  0  0  0
    1.0627   -1.1431   -0.4976 C   0  0  2  0  0  0  0  0  0  0  0  0
    1.5443    0.1598   -0.8238 O   0  0  0  0  0  0  0  0  0  0  0  0
    0.4608   -1.7467   -1.7607 C   0  0  0  0  0  0  0  0  0  0  0  0
   -1.6733   -0.5660   -0.4691 H   0  0  0  0  0  0  0  0  0  0  0  0
   -0.3178   -2.0816    0.8890 H   0  0  0  0  0  0  0  0  0  0  0  0
    1.9300   -1.7463   -0.2053 H   0  0  0  0  0  0  0  0  0  0  0  0
    2.2110    0.0405   -1.5172 H   0  0  0  0  0  0  0  0  0  0  0  0
   -0.4136   -1.1795   -2.0979 H   0  0  0  0  0  0  0  0  0  0  0  0
    0.1668   -2.7887   -1.6025 H   0  0  0  0  0  0  0  0  0  0  0  0
    1.1872   -1.7116   -2.5801 H   0  0  0  0  0  0  0  0  0  0  0  0
   -0.2801   -0.1947    2.8828 N   0  0  0  0  0  0  0  0  0  0  0  0
    0.0661    0.3429    4.1775 C   0  0  2  0  0  0  0  0  0  0  0  0
    0.3326    1.8333    4.0120 C   0  0  0  0  0  0  0  0  0  0  0  0
    0.6436    2.3438    2.9380 O   0  0  0  0  0  0  0  0  0  0  0  0
    1.2781   -0.3641    4.7641 C   0  0  0  0  0  0  0  0  0  0  0  0
   -1.2587   -0.3672    2.6717 H   0  0  0  0  0  0  0  0  0  0  0  0
   -0.8060    0.1968    4.8241 H   0  0  0  0  0  0  0  0  0  0  0  0
    2.1618   -0.2289    4.1299 H   0  0  0  0  0  0  0  0  0  0  0  0
    1.5219    0.0252    5.7581 H   0  0  0  0  0  0  0  0  0  0  0  0
    1.0954   -1.4403    4.8547 H   0  0  0  0  0  0  0  0  0  0  0  0
    0.2243    2.5193    5.2136 N   0  0  0  0  0  0  0  0  0  0  0  0
    0.4433    3.9429    5.3210 C   0  0  0  0  0  0  0  0  0  0  0  0
   -0.0567    2.0185    6.0514 H   0  0  0  0  0  0  0  0  0  0  0  0
    1.4951    4.1341    5.5803 H   0  0  0  0  0  0  0  0  0  0  0  0
    0.2098    4.4233    4.3594 H   0  0  0  0  0  0  0  0  0  0  0  0
   -0.2084    4.3559    6.1050 H   0  0  0  0  0  0  0  0  0  0  0  0
  1  3  1  0  0  0  0
  1  7  1  0  0  0  0
  1  2  2  0  0  0  0
 32 33  1  0  0  0  0
 33 41  1  0  0  0  0
 33 34  2  0  0  0  0
  8  9  1  0  0  0  0
  9 17  1  0  0  0  0
  9 10  2  0  0  0  0
 18 19  1  0  0  0  0
 19 31  1  0  0  0  0
 19 20  2  0  0  0  0
 32 35  1  0  0  0  0
  8 11  1  0  0  0  0
 21 23  1  0  0  0  0
 41 42  1  0  0  0  0
 31 32  1  0  0  0  0
  7  8  1  0  0  0  0
 18 21  1  0  0  0  0
 17 18  1  0  0  0  0
 21 22  1  0  0  0  0
  3  4  1  0  0  0  0
  3  5  1  0  0  0  0
  3  6  1  0  0  0  0
 35 38  1  0  0  0  0
 35 39  1  0  0  0  0
 35 40  1  0  0  0  0
 11 14  1  0  0  0  0
 11 15  1  0  0  0  0
 11 16  1  0  0  0  0
 23 28  1  0  0  0  0
 23 29  1  0  0  0  0
 23 30  1  0  0  0  0
 42 44  1  0  0  0  0
 42 45  1  0  0  0  0
 42 46  1  0  0  0  0
 32 37  1  0  0  0  0
  8 13  1  0  0  0  0
 18 25  1  0  0  0  0
 21 26  1  0  0  0  0
 41 43  1  0  0  0  0
  7 12  1  0  0  0  0
 31 36  1  0  0  0  0
 17 24  1  0  0  0  0
 22 27  1  0  0  0  0
M  END
$$$$

  -OEChem-05262214473D

 46 45  0     1  0  0  0  0  0999 V2000
   -4.6700    2.7214    1.5150 C   0  0  0  0  0  0  0  0  0  0  0  0
   -5.4532    2.5715    0.5845 O   0  0  0  0  0  0  0  0  0  0  0  0
   -5.0996    3.4865    2.7226 C   0  0  0  0  0  0  0  0  0  0  0  0
   -4.8796    4.5629    2.6387 H   0  0  0  0  0  0  0  0  0  0  0  0
   -6.1861    3.4241    2.8954 H   0  0  0  0  0  0  0  0  0  0  0  0
   -4.6369    3.1693    3.6708 H   0  0  0  0  0  0  0  0  0  0  0  0
   -3.3731    2.2391    1.5790 N   0  0  0  0  0  0  0  0  0  0  0  0
   -2.7599    1.4751    0.5247 C   0  0  2  0  0  0  0  0  0  0  0  0
   -1.5143    0.8067    1.0915 C   0  0  0  0  0  0  0  0  0  0  0  0
   -0.9247    1.2213    2.0872 O   0  0  0  0  0  0  0  0  0  0  0  0
   -2.4106    2.3553   -0.6653 C   0  0  0  0  0  0  0  0  0  0  0  0
   -2.8254    2.4352    2.4150 H   0  0  0  0  0  0  0  0  0  0  0  0
   -3.4836    0.7082    0.2278 H   0  0  0  0  0  0  0  0  0  0  0  0
   -1.6866    3.1298   -0.3871 H   0  0  0  0  0  0  0  0  0  0  0  0
   -1.9704    1.7677   -1.4777 H   0  0  0  0  0  0  0  0  0  0  0  0
   -3.3030    2.8584   -1.0531 H   0  0  0  0  0  0  0  0  0  0  0  0
   -1.1107   -0.2839    0.3303 N   0  0  0  0  0  0  0  0  0  0  0  0
    0.0490   -1.0750    0.6539 C   0  0  2  0  0  0  0  0  0  0  0  0
    0.6719   -0.4847    1.9157 C   0  0  0  0  0  0  0  0  0  0  0  0
    1.8331   -0.0844    1.9658 O   0  0  0  0  0  0  0  0  0  0  0  0
    1.0627   -1.1431   -0.4976 C   0  0  2  0  0  0  0  0  0  0  0  0
    1.5443    0.1598   -0.8238 O   0  0  0  0  0  0  0  0  0  0  0  0
    0.4608   -1.7467   -1.7607 C   0  0  0  0  0  0  0  0  0  0  0  0
   -1.6733   -0.5660   -0.4691 H   0  0  0  0  0  0  0  0  0  0  0  0
   -0.3178   -2.0816    0.8890 H   0  0  0  0  0  0  0  0  0  0  0  0
    1.9300   -1.7463   -0.2053 H   0  0  0  0  0  0  0  0  0  0  0  0
    2.2110    0.0405   -1.5172 H   0  0  0  0  0  0  0  0  0  0  0  0
   -0.4136   -1.1795   -2.0979 H   0  0  0  0  0  0  0  0  0  0  0  0
    0.1668   -2.7887   -1.6025 H   0  0  0  0  0  0  0  0  0  0  0  0
    1.1872   -1.7116   -2.5801 H   0  0  0  0  0  0  0  0  0  0  0  0
   -0.2057   -0.5036    2.9905 N   0  0  0  0  0  0  0  0  0  0  0  0
    0.1631   -0.0283    4.3033 C   0  0  2  0  0  0  0  0  0  0  0  0
    0.0926    1.4930    4.2897 C   0  0  0  0  0  0  0  0  0  0  0  0
    0.1684    2.1588    3.2591 O   0  0  0  0  0  0  0  0  0  0  0  0
    1.5536   -0.5045    4.6937 C   0  0  0  0  0  0  0  0  0  0  0  0
   -1.1440   -0.8658    2.8483 H   0  0  0  0  0  0  0  0  0  0  0  0
   -0.5816   -0.4227    5.0032 H   0  0  0  0  0  0  0  0  0  0  0  0
    2.3133   -0.1193    4.0038 H   0  0  0  0  0  0  0  0  0  0  0  0
    1.8203   -0.1671    5.7008 H   0  0  0  0  0  0  0  0  0  0  0  0
    1.6108   -1.5981    4.6741 H   0  0  0  0  0  0  0  0  0  0  0  0
   -0.0216    2.0217    5.5678 N   0  0  0  0  0  0  0  0  0  0  0  0
   -0.0938    3.4418    5.8205 C   0  0  0  0  0  0  0  0  0  0  0  0
   -0.0966    1.3943    6.3632 H   0  0  0  0  0  0  0  0  0  0  0  0
    0.9171    3.8336    6.0062 H   0  0  0  0  0  0  0  0  0  0  0  0
   -0.5283    3.9481    4.9460 H   0  0  0  0  0  0  0  0  0  0  0  0
   -0.7257    3.6256    6.7020 H   0  0  0  0  0  0  0  0  0  0  0  0
  1  3  1  0  0  0  0
  1  7  1  0  0  0  0
  1  2  2  0  0  0  0
 32 33  1  0  0  0  0
 33 41  1  0  0  0  0
 33 34  2  0  0  0  0
  8  9  1  0  0  0  0
  9 17  1  0  0  0  0
  9 10  2  0  0  0  0
 18 19  1  0  0  0  0
 19 31  1  0  0  0  0
 19 20  2  0  0  0  0
 32 35  1  0  0  0  0
  8 11  1  0  0  0  0
 21 23  1  0  0  0  0
 41 42  1  0  0  0  0
 31 32  1  0  0  0  0
  7  8  1  0  0  0  0
 18 21  1  0  0  0  0
 17 18  1  0  0  0  0
 21 22  1  0  0  0  0
  3  4  1  0  0  0  0
  3  5  1  0  0  0  0
  3  6  1  0  0  0  0
 35 38  1  0  0  0  0
 35 39  1  0  0  0  0
 35 40  1  0  0  0  0
 11 14  1  0  0  0  0
 11 15  1  0  0  0  0
 11 16  1  0  0  0  0
 23 28  1  0  0  0  0
 23 29  1  0  0  0  0
 23 30  1  0  0  0  0
 42 44  1  0  0  0  0
 42 45  1  0  0  0  0
 42 46  1  0  0  0  0
 32 37  1  0  0  0  0
  8 13  1  0  0  0  0
 18 25  1  0  0  0  0
 21 26  1  0  0  0  0
 41 43  1  0  0  0  0
  7 12  1  0  0  0  0
 31 36  1  0  0  0  0
 17 24  1  0  0  0  0
 22 27  1  0  0  0  0
M  END
$$$$

  -OEChem-05262214473D

 46 45  0     1  0  0  0  0  0999 V2000
   -4.6700    2.7214    1.5150 C   0  0  0  0  0  0  0  0  0  0  0  0
   -5.4532    2.5715    0.5845 O   0  0  0  0  0  0  0  0  0  0  0  0
   -5.0996    3.4865    2.7226 C   0  0  0  0  0  0  0  0  0  0  0  0
   -4.8796    4.5629    2.6387 H   0  0  0  0  0  0  0  0  0  0  0  0
   -6.1861    3.4241    2.8954 H   0  0  0  0  0  0  0  0  0  0  0  0
   -4.6369    3.1693    3.6708 H   0  0  0  0  0  0  0  0  0  0  0  0
   -3.3731    2.2391    1.5790 N   0  0  0  0  0  0  0  0  0  0  0  0
   -2.7599    1.4751    0.5247 C   0  0  2  0  0  0  0  0  0  0  0  0
   -1.5143    0.8067    1.0915 C   0  0  0  0  0  0  0  0  0  0  0  0
   -0.9247    1.2213    2.0872 O   0  0  0  0  0  0  0  0  0  0  0  0
   -2.4106    2.3553   -0.6653 C   0  0  0  0  0  0  0  0  0  0  0  0
   -2.8254    2.4352    2.4150 H   0  0  0  0  0  0  0  0  0  0  0  0
   -3.4836    0.7082    0.2278 H   0  0  0  0  0  0  0  0  0  0  0  0
   -1.6866    3.1298   -0.3871 H   0  0  0  0  0  0  0  0  0  0  0  0
   -1.9704    1.7677   -1.4777 H   0  0  0  0  0  0  0  0  0  0  0  0
   -3.3030    2.8584   -1.0531 H   0  0  0  0  0  0  0  0  0  0  0  0
   -1.1107   -0.2839    0.3303 N   0  0  0  0  0  0  0  0  0  0  0  0
    0.0490   -1.0750    0.6539 C   0  0  2  0  0  0  0  0  0  0  0  0
    0.6719   -0.4847    1.9157 C   0  0  0  0  0  0  0  0  0  0  0  0
    1.7222    0.1540    1.9090 O   0  0  0  0  0  0  0  0  0  0  0  0
    1.0627   -1.1431   -0.4976 C   0  0  2  0  0  0  0  0  0  0  0  0
    1.5443    0.1598   -0.8238 O   0  0  0  0  0  0  0  0  0  0  0  0
    0.4608   -1.7467   -1.7607 C   0  0  0  0  0  0  0  0  0  0  0  0
   -1.6733   -0.5660   -0.4691 H   0  0  0  0  0  0  0  0  0  0  0  0
   -0.3178   -2.0816    0.8890 H   0  0  0  0  0  0  0  0  0  0  0  0
    1.9300   -1.7463   -0.2053 H   0  0  0  0  0  0  0  0  0  0  0  0
    2.2110    0.0405   -1.5172 H   0  0  0  0  0  0  0  0  0  0  0  0
   -0.4136   -1.1795   -2.0979 H   0  0  0  0  0  0  0  0  0  0  0  0
    0.1668   -2.7887   -1.6025 H   0  0  0  0  0  0  0  0  0  0  0  0
    1.1872   -1.7116   -2.5801 H   0  0  0  0  0  0  0  0  0  0  0  0
   -0.0568   -0.7974    3.0545 N   0  0  0  0  0  0  0  0  0  0  0  0
    0.3488   -0.3793    4.3759 C   0  0  2  0  0  0  0  0  0  0  0  0
   -0.0386    1.0837    4.5459 C   0  0  0  0  0  0  0  0  0  0  0  0
   -0.2189    1.8445    3.5974 O   0  0  0  0  0  0  0  0  0  0  0  0
    1.8428   -0.5736    4.5834 C   0  0  0  0  0  0  0  0  0  0  0  0
   -0.9088   -1.3415    2.9548 H   0  0  0  0  0  0  0  0  0  0  0  0
   -0.2143   -0.9920    5.0882 H   0  0  0  0  0  0  0  0  0  0  0  0
    2.4235    0.0324    3.8784 H   0  0  0  0  0  0  0  0  0  0  0  0
    2.1439   -0.2830    5.5952 H   0  0  0  0  0  0  0  0  0  0  0  0
    2.1244   -1.6212    4.4314 H   0  0  0  0  0  0  0  0  0  0  0  0
   -0.1172    1.4509    5.8820 N   0  0  0  0  0  0  0  0  0  0  0  0
   -0.4554    2.7901    6.3039 C   0  0  0  0  0  0  0  0  0  0  0  0
    0.0296    0.7499    6.6023 H   0  0  0  0  0  0  0  0  0  0  0  0
    0.4658    3.3748    6.4436 H   0  0  0  0  0  0  0  0  0  0  0  0
   -1.0808    3.2693    5.5363 H   0  0  0  0  0  0  0  0  0  0  0  0
   -1.0093    2.7464    7.2533 H   0  0  0  0  0  0  0  0  0  0  0  0
  1  3  1  0  0  0  0
  1  7  1  0  0  0  0
  1  2  2  0  0  0  0
 32 33  1  0  0  0  0
 33 41  1  0  0  0  0
 33 34  2  0  0  0  0
  8  9  1  0  0  0  0
  9 17  1  0  0  0  0
  9 10  2  0  0  0  0
 18 19  1  0  0  0  0
 19 31  1  0  0  0  0
 19 20  2  0  0  0  0
 32 35  1  0  0  0  0
  8 11  1  0  0  0  0
 21 23  1  0  0  0  0
 41 42  1  0  0  0  0
 31 32  1  0  0  0  0
  7  8  1  0  0  0  0
 18 21  1  0  0  0  0
 17 18  1  0  0  0  0
 21 22  1  0  0  0  0
  3  4  1  0  0  0  0
  3  5  1  0  0  0  0
  3  6  1  0  0  0  0
 35 38  1  0  0  0  0
 35 39  1  0  0  0  0
 35 40  1  0  0  0  0
 11 14  1  0  0  0  0
 11 15  1  0  0  0  0
 11 16  1  0  0  0  0
 23 28  1  0  0  0  0
 23 29  1  0  0  0  0
 23 30  1  0  0  0  0
 42 44  1  0  0  0  0
 42 45  1  0  0  0  0
 42 46  1  0  0  0  0
 32 37  1  0  0  0  0
  8 13  1  0  0  0  0
 18 25  1  0  0  0  0
 21 26  1  0  0  0  0
 41 43  1  0  0  0  0
  7 12  1  0  0  0  0
 31 36  1  0  0  0  0
 17 24  1  0  0  0  0
 22 27  1  0  0  0  0
M  END
$$$$

  -OEChem-05262214473D

 46 45  0     1  0  0  0  0  0999 V2000
   -4.6700    2.7214    1.5150 C   0  0  0  0  0  0  0  0  0  0  0  0
   -5.4532    2.5715    0.5845 O   0  0  0  0  0  0  0  0  0  0  0  0
   -5.0996    3.4865    2.7226 C   0  0  0  0  0  0  0  0  0  0  0  0
   -4.8796    4.5629    2.6387 H   0  0  0  0  0  0  0  0  0  0  0  0
   -6.1861    3.4241    2.8954 H   0  0  0  0  0  0  0  0  0  0  0  0
   -4.6369    3.1693    3.6708 H   0  0  0  0  0  0  0  0  0  0  0  0
   -3.3731    2.2391    1.5790 N   0  0  0  0  0  0  0  0  0  0  0  0
   -2.7599    1.4751    0.5247 C   0  0  2  0  0  0  0  0  0  0  0  0
   -1.5143    0.8067    1.0915 C   0  0  0  0  0  0  0  0  0  0  0  0
   -0.9247    1.2213    2.0872 O   0  0  0  0  0  0  0  0  0  0  0  0
   -2.4106    2.3553   -0.6653 C   0  0  0  0  0  0  0  0  0  0  0  0
   -2.8254    2.4352    2.4150 H   0  0  0  0  0  0  0  0  0  0  0  0
   -3.4836    0.7082    0.2278 H   0  0  0  0  0  0  0  0  0  0  0  0
   -1.6866    3.1298   -0.3871 H   0  0  0  0  0  0  0  0  0  0  0  0
   -1.9704    1.7677   -1.4777 H   0  0  0  0  0  0  0  0  0  0  0  0
   -3.3030    2.8584   -1.0531 H   0  0  0  0  0  0  0  0  0  0  0  0
   -1.1107   -0.2839    0.3303 N   0  0  0  0  0  0  0  0  0  0  0  0
    0.0490   -1.0750    0.6539 C   0  0  2  0  0  0  0  0  0  0  0  0
    0.6719   -0.4847    1.9157 C   0  0  0  0  0  0  0  0  0  0  0  0
    1.5584    0.3666    1.8904 O   0  0  0  0  0  0  0  0  0  0  0  0
    1.0627   -1.1431   -0.4976 C   0  0  2  0  0  0  0  0  0  0  0  0
    1.5443    0.1598   -0.8238 O   0  0  0  0  0  0  0  0  0  0  0  0
    0.4608   -1.7467   -1.7607 C   0  0  0  0  0  0  0  0  0  0  0  0
   -1.6733   -0.5660   -0.4691 H   0  0  0  0  0  0  0  0  0  0  0  0
   -0.3178   -2.0816    0.8890 H   0  0  0  0  0  0  0  0  0  0  0  0
    1.9300   -1.7463   -0.2053 H   0  0  0  0  0  0  0  0  0  0  0  0
    2.2110    0.0405   -1.5172 H   0  0  0  0  0  0  0  0  0  0  0  0
   -0.4136   -1.1795   -2.0979 H   0  0  0  0  0  0  0  0  0  0  0  0
    0.1668   -2.7887   -1.6025 H   0  0  0  0  0  0  0  0  0  0  0  0
    1.1872   -1.7116   -2.5801 H   0  0  0  0  0  0  0  0  0  0  0  0
    0.1562   -1.0561    3.0704 N   0  0  0  0  0  0  0  0  0  0  0  0
    0.6106   -0.6863    4.3903 C   0  0  2  0  0  0  0  0  0  0  0  0
   -0.0521    0.6332    4.7633 C   0  0  0  0  0  0  0  0  0  0  0  0
   -0.4918    1.4222    3.9296 O   0  0  0  0  0  0  0  0  0  0  0  0
    2.1259   -0.5669    4.4405 C   0  0  0  0  0  0  0  0  0  0  0  0
   -0.5692   -1.7619    2.9838 H   0  0  0  0  0  0  0  0  0  0  0  0
    0.2708   -1.4724    5.0735 H   0  0  0  0  0  0  0  0  0  0  0  0
    2.4850    0.2158    3.7623 H   0  0  0  0  0  0  0  0  0  0  0  0
    2.4708   -0.3145    5.4486 H   0  0  0  0  0  0  0  0  0  0  0  0
    2.6010   -1.5080    4.1431 H   0  0  0  0  0  0  0  0  0  0  0  0
   -0.0559    0.8459    6.1348 N   0  0  0  0  0  0  0  0  0  0  0  0
   -0.6168    2.0321    6.7382 C   0  0  0  0  0  0  0  0  0  0  0  0
    0.3134    0.1291    6.7526 H   0  0  0  0  0  0  0  0  0  0  0  0
    0.1719    2.7887    6.8629 H   0  0  0  0  0  0  0  0  0  0  0  0
   -1.4101    2.4329    6.0901 H   0  0  0  0  0  0  0  0  0  0  0  0
   -1.0399    1.7782    7.7214 H   0  0  0  0  0  0  0  0  0  0  0  0
  1  3  1  0  0  0  0
  1  7  1  0  0  0  0
  1  2  2  0  0  0  0
 32 33  1  0  0  0  0
 33 41  1  0  0  0  0
 33 34  2  0  0  0  0
  8  9  1  0  0  0  0
  9 17  1  0  0  0  0
  9 10  2  0  0  0  0
 18 19  1  0  0  0  0
 19 31  1  0  0  0  0
 19 20  2  0  0  0  0
 32 35  1  0  0  0  0
  8 11  1  0  0  0  0
 21 23  1  0  0  0  0
 41 42  1  0  0  0  0
 31 32  1  0  0  0  0
  7  8  1  0  0  0  0
 18 21  1  0  0  0  0
 17 18  1  0  0  0  0
 21 22  1  0  0  0  0
  3  4  1  0  0  0  0
  3  5  1  0  0  0  0
  3  6  1  0  0  0  0
 35 38  1  0  0  0  0
 35 39  1  0  0  0  0
 35 40  1  0  0  0  0
 11 14  1  0  0  0  0
 11 15  1  0  0  0  0
 11 16  1  0  0  0  0
 23 28  1  0  0  0  0
 23 29  1  0  0  0  0
 23 30  1  0  0  0  0
 42 44  1  0  0  0  0
 42 45  1  0  0  0  0
 42 46  1  0  0  0  0
 32 37  1  0  0  0  0
  8 13  1  0  0  0  0
 18 25  1  0  0  0  0
 21 26  1  0  0  0  0
 41 43  1  0  0  0  0
  7 12  1  0  0  0  0
 31 36  1  0  0  0  0
 17 24  1  0  0  0  0
 22 27  1  0  0  0  0
M  END
$$$$

  -OEChem-05262214473D

 46 45  0     1  0  0  0  0  0999 V2000
   -4.6700    2.7214    1.5150 C   0  0  0  0  0  0  0  0  0  0  0  0
   -5.4532    2.5715    0.5845 O   0  0  0  0  0  0  0  0  0  0  0  0
   -5.0996    3.4865    2.7226 C   0  0  0  0  0  0  0  0  0  0  0  0
   -4.8796    4.5629    2.6387 H   0  0  0  0  0  0  0  0  0  0  0  0
   -6.1861    3.4241    2.8954 H   0  0  0  0  0  0  0  0  0  0  0  0
   -4.6369    3.1693    3.6708 H   0  0  0  0  0  0  0  0  0  0  0  0
   -3.3731    2.2391    1.5790 N   0  0  0  0  0  0  0  0  0  0  0  0
   -2.7599    1.4751    0.5247 C   0  0  2  0  0  0  0  0  0  0  0  0
   -1.5143    0.8067    1.0915 C   0  0  0  0  0  0  0  0  0  0  0  0
   -0.9247    1.2213    2.0872 O   0  0  0  0  0  0  0  0  0  0  0  0
   -2.4106    2.3553   -0.6653 C   0  0  0  0  0  0  0  0  0  0  0  0
   -2.8254    2.4352    2.4150 H   0  0  0  0  0  0  0  0  0  0  0  0
   -3.4836    0.7082    0.2278 H   0  0  0  0  0  0  0  0  0  0  0  0
   -1.6866    3.1298   -0.3871 H   0  0  0  0  0  0  0  0  0  0  0  0
   -1.9704    1.7677   -1.4777 H   0  0  0  0  0  0  0  0  0  0  0  0
   -3.3030    2.8584   -1.0531 H   0  0  0  0  0  0  0  0  0  0  0  0
   -1.1107   -0.2839    0.3303 N   0  0  0  0  0  0  0  0  0  0  0  0
    0.0490   -1.0750    0.6539 C   0  0  2  0  0  0  0  0  0  0  0  0
    0.6719   -0.4847    1.9157 C   0  0  0  0  0  0  0  0  0  0  0  0
    1.3528    0.5388    1.9113 O   0  0  0  0  0  0  0  0  0  0  0  0
    1.0627   -1.1431   -0.4976 C   0  0  2  0  0  0  0  0  0  0  0  0
    1.5443    0.1598   -0.8238 O   0  0  0  0  0  0  0  0  0  0  0  0
    0.4608   -1.7467   -1.7607 C   0  0  0  0  0  0  0  0  0  0  0  0
   -1.6733   -0.5660   -0.4691 H   0  0  0  0  0  0  0  0  0  0  0  0
   -0.3178   -2.0816    0.8890 H   0  0  0  0  0  0  0  0  0  0  0  0
    1.9300   -1.7463   -0.2053 H   0  0  0  0  0  0  0  0  0  0  0  0
    2.2110    0.0405   -1.5172 H   0  0  0  0  0  0  0  0  0  0  0  0
   -0.4136   -1.1795   -2.0979 H   0  0  0  0  0  0  0  0  0  0  0  0
    0.1668   -2.7887   -1.6025 H   0  0  0  0  0  0  0  0  0  0  0  0
    1.1872   -1.7116   -2.5801 H   0  0  0  0  0  0  0  0  0  0  0  0
    0.4189   -1.2621    3.0370 N   0  0  0  0  0  0  0  0  0  0  0  0
    0.9307   -0.9284    4.3455 C   0  0  2  0  0  0  0  0  0  0  0  0
    0.0531    0.1722    4.9271 C   0  0  0  0  0  0  0  0  0  0  0  0
   -0.6318    0.9209    4.2333 O   0  0  0  0  0  0  0  0  0  0  0  0
    2.3836   -0.4848    4.2748 C   0  0  0  0  0  0  0  0  0  0  0  0
   -0.1483   -2.0984    2.9334 H   0  0  0  0  0  0  0  0  0  0  0  0
    0.8408   -1.8309    4.9599 H   0  0  0  0  0  0  0  0  0  0  0  0
    2.4935    0.4183    3.6634 H   0  0  0  0  0  0  0  0  0  0  0  0
    2.7785   -0.2595    5.2710 H   0  0  0  0  0  0  0  0  0  0  0  0
    3.0084   -1.2661    3.8289 H   0  0  0  0  0  0  0  0  0  0  0  0
    0.1581    0.2479    6.3089 N   0  0  0  0  0  0  0  0  0  0  0  0
   -0.5670    1.2195    7.0938 C   0  0  0  0  0  0  0  0  0  0  0  0
    0.7354   -0.4256    6.8038 H   0  0  0  0  0  0  0  0  0  0  0  0
    0.0553    2.1154    7.2354 H   0  0  0  0  0  0  0  0  0  0  0  0
   -1.4937    1.4961    6.5697 H   0  0  0  0  0  0  0  0  0  0  0  0
   -0.8154    0.7870    8.0742 H   0  0  0  0  0  0  0  0  0  0  0  0
  1  3  1  0  0  0  0
  1  7  1  0  0  0  0
  1  2  2  0  0  0  0
 32 33  1  0  0  0  0
 33 41  1  0  0  0  0
 33 34  2  0  0  0  0
  8  9  1  0  0  0  0
  9 17  1  0  0  0  0
  9 10  2  0  0  0  0
 18 19  1  0  0  0  0
 19 31  1  0  0  0  0
 19 20  2  0  0  0  0
 32 35  1  0  0  0  0
  8 11  1  0  0  0  0
 21 23  1  0  0  0  0
 41 42  1  0  0  0  0
 31 32  1  0  0  0  0
  7  8  1  0  0  0  0
 18 21  1  0  0  0  0
 17 18  1  0  0  0  0
 21 22  1  0  0  0  0
  3  4  1  0  0  0  0
  3  5  1  0  0  0  0
  3  6  1  0  0  0  0
 35 38  1  0  0  0  0
 35 39  1  0  0  0  0
 35 40  1  0  0  0  0
 11 14  1  0  0  0  0
 11 15  1  0  0  0  0
 11 16  1  0  0  0  0
 23 28  1  0  0  0  0
 23 29  1  0  0  0  0
 23 30  1  0  0  0  0
 42 44  1  0  0  0  0
 42 45  1  0  0  0  0
 42 46  1  0  0  0  0
 32 37  1  0  0  0  0
  8 13  1  0  0  0  0
 18 25  1  0  0  0  0
 21 26  1  0  0  0  0
 41 43  1  0  0  0  0
  7 12  1  0  0  0  0
 31 36  1  0  0  0  0
 17 24  1  0  0  0  0
 22 27  1  0  0  0  0
M  END
$$$$

  -OEChem-05262214473D

 46 45  0     1  0  0  0  0  0999 V2000
   -4.6700    2.7214    1.5150 C   0  0  0  0  0  0  0  0  0  0  0  0
   -5.4532    2.5715    0.5845 O   0  0  0  0  0  0  0  0  0  0  0  0
   -5.0996    3.4865    2.7226 C   0  0  0  0  0  0  0  0  0  0  0  0
   -4.8796    4.5629    2.6387 H   0  0  0  0  0  0  0  0  0  0  0  0
   -6.1861    3.4241    2.8954 H   0  0  0  0  0  0  0  0  0  0  0  0
   -4.6369    3.1693    3.6708 H   0  0  0  0  0  0  0  0  0  0  0  0
   -3.3731    2.2391    1.5790 N   0  0  0  0  0  0  0  0  0  0  0  0
   -2.7599    1.4751    0.5247 C   0  0  2  0  0  0  0  0  0  0  0  0
   -1.5143    0.8067    1.0915 C   0  0  0  0  0  0  0  0  0  0  0  0
   -0.9247    1.2213    2.0872 O   0  0  0  0  0  0  0  0  0  0  0  0
   -2.4106    2.3553   -0.6653 C   0  0  0  0  0  0  0  0  0  0  0  0
   -2.8254    2.4352    2.4150 H   0  0  0  0  0  0  0  0  0  0  0  0
   -3.4836    0.7082    0.2278 H   0  0  0  0  0  0  0  0  0  0  0  0
   -1.6866    3.1298   -0.3871 H   0  0  0  0  0  0  0  0  0  0  0  0
   -1.9704    1.7677   -1.4777 H   0  0  0  0  0  0  0  0  0  0  0  0
   -3.3030    2.8584   -1.0531 H   0  0  0  0  0  0  0  0  0  0  0  0
   -1.1107   -0.2839    0.3303 N   0  0  0  0  0  0  0  0  0  0  0  0
    0.0490   -1.0750    0.6539 C   0  0  2  0  0  0  0  0  0  0  0  0
    0.6719   -0.4847    1.9157 C   0  0  0  0  0  0  0  0  0  0  0  0
    1.1194    0.6590    1.9703 O   0  0  0  0  0  0  0  0  0  0  0  0
    1.0627   -1.1431   -0.4976 C   0  0  2  0  0  0  0  0  0  0  0  0
    1.5443    0.1598   -0.8238 O   0  0  0  0  0  0  0  0  0  0  0  0
    0.4608   -1.7467   -1.7607 C   0  0  0  0  0  0  0  0  0  0  0  0
   -1.6733   -0.5660   -0.4691 H   0  0  0  0  0  0  0  0  0  0  0  0
   -0.3178   -2.0816    0.8890 H   0  0  0  0  0  0  0  0  0  0  0  0
    1.9300   -1.7463   -0.2053 H   0  0  0  0  0  0  0  0  0  0  0  0
    2.2110    0.0405   -1.5172 H   0  0  0  0  0  0  0  0  0  0  0  0
   -0.4136   -1.1795   -2.0979 H   0  0  0  0  0  0  0  0  0  0  0  0
    0.1668   -2.7887   -1.6025 H   0  0  0  0  0  0  0  0  0  0  0  0
    1.1872   -1.7116   -2.5801 H   0  0  0  0  0  0  0  0  0  0  0  0
    0.7135   -1.4013    2.9568 N   0  0  0  0  0  0  0  0  0  0  0  0
    1.2871   -1.0890    4.2447 C   0  0  2  0  0  0  0  0  0  0  0  0
    0.2698   -0.2679    5.0260 C   0  0  0  0  0  0  0  0  0  0  0  0
   -0.6294    0.3745    4.4877 O   0  0  0  0  0  0  0  0  0  0  0  0
    2.5983   -0.3327    4.0977 C   0  0  0  0  0  0  0  0  0  0  0  0
    0.3253   -2.3280    2.8071 H   0  0  0  0  0  0  0  0  0  0  0  0
    1.4566   -2.0433    4.7552 H   0  0  0  0  0  0  0  0  0  0  0  0
    2.4484    0.6262    3.5884 H   0  0  0  0  0  0  0  0  0  0  0  0
    3.0462   -0.1217    5.0744 H   0  0  0  0  0  0  0  0  0  0  0  0
    3.3186   -0.9121    3.5102 H   0  0  0  0  0  0  0  0  0  0  0  0
    0.5103   -0.3023    6.3925 N   0  0  0  0  0  0  0  0  0  0  0  0
   -0.3094    0.4077    7.3464 C   0  0  0  0  0  0  0  0  0  0  0  0
    1.2669   -0.8765    6.7524 H   0  0  0  0  0  0  0  0  0  0  0  0
    0.1242    1.4008    7.5358 H   0  0  0  0  0  0  0  0  0  0  0  0
   -1.3260    0.5226    6.9423 H   0  0  0  0  0  0  0  0  0  0  0  0
   -0.3510   -0.1596    8.2879 H   0  0  0  0  0  0  0  0  0  0  0  0
  1  3  1  0  0  0  0
  1  7  1  0  0  0  0
  1  2  2  0  0  0  0
 32 33  1  0  0  0  0
 33 41  1  0  0  0  0
 33 34  2  0  0  0  0
  8  9  1  0  0  0  0
  9 17  1  0  0  0  0
  9 10  2  0  0  0  0
 18 19  1  0  0  0  0
 19 31  1  0  0  0  0
 19 20  2  0  0  0  0
 32 35  1  0  0  0  0
  8 11  1  0  0  0  0
 21 23  1  0  0  0  0
 41 42  1  0  0  0  0
 31 32  1  0  0  0  0
  7  8  1  0  0  0  0
 18 21  1  0  0  0  0
 17 18  1  0  0  0  0
 21 22  1  0  0  0  0
  3  4  1  0  0  0  0
  3  5  1  0  0  0  0
  3  6  1  0  0  0  0
 35 38  1  0  0  0  0
 35 39  1  0  0  0  0
 35 40  1  0  0  0  0
 11 14  1  0  0  0  0
 11 15  1  0  0  0  0
 11 16  1  0  0  0  0
 23 28  1  0  0  0  0
 23 29  1  0  0  0  0
 23 30  1  0  0  0  0
 42 44  1  0  0  0  0
 42 45  1  0  0  0  0
 42 46  1  0  0  0  0
 32 37  1  0  0  0  0
  8 13  1  0  0  0  0
 18 25  1  0  0  0  0
 21 26  1  0  0  0  0
 41 43  1  0  0  0  0
  7 12  1  0  0  0  0
 31 36  1  0  0  0  0
 17 24  1  0  0  0  0
 22 27  1  0  0  0  0
M  END
$$$$

  -OEChem-05262214473D

 46 45  0     1  0  0  0  0  0999 V2000
   -4.6700    2.7214    1.5150 C   0  0  0  0  0  0  0  0  0  0  0  0
   -5.4532    2.5715    0.5845 O   0  0  0  0  0  0  0  0  0  0  0  0
   -5.0996    3.4865    2.7226 C   0  0  0  0  0  0  0  0  0  0  0  0
   -4.8796    4.5629    2.6387 H   0  0  0  0  0  0  0  0  0  0  0  0
   -6.1861    3.4241    2.8954 H   0  0  0  0  0  0  0  0  0  0  0  0
   -4.6369    3.1693    3.6708 H   0  0  0  0  0  0  0  0  0  0  0  0
   -3.3731    2.2391    1.5790 N   0  0  0  0  0  0  0  0  0  0  0  0
   -2.7599    1.4751    0.5247 C   0  0  2  0  0  0  0  0  0  0  0  0
   -1.5143    0.8067    1.0915 C   0  0  0  0  0  0  0  0  0  0  0  0
   -0.9247    1.2213    2.0872 O   0  0  0  0  0  0  0  0  0  0  0  0
   -2.4106    2.3553   -0.6653 C   0  0  0  0  0  0  0  0  0  0  0  0
   -2.8254    2.4352    2.4150 H   0  0  0  0  0  0  0  0  0  0  0  0
   -3.4836    0.7082    0.2278 H   0  0  0  0  0  0  0  0  0  0  0  0
   -1.6866    3.1298   -0.3871 H   0  0  0  0  0  0  0  0  0  0  0  0
   -1.9704    1.7677   -1.4777 H   0  0  0  0  0  0  0  0  0  0  0  0
   -3.3030    2.8584   -1.0531 H   0  0  0  0  0  0  0  0  0  0  0  0
   -1.1107   -0.2839    0.3303 N   0  0  0  0  0  0  0  0  0  0  0  0
    0.0490   -1.0750    0.6539 C   0  0  2  0  0  0  0  0  0  0  0  0
    0.6719   -0.4847    1.9157 C   0  0  0  0  0  0  0  0  0  0  0  0
    0.8742    0.7188    2.0634 O   0  0  0  0  0  0  0  0  0  0  0  0
    1.0627   -1.1431   -0.4976 C   0  0  2  0  0  0  0  0  0  0  0  0
    1.5443    0.1598   -0.8238 O   0  0  0  0  0  0  0  0  0  0  0  0
    0.4608   -1.7467   -1.7607 C   0  0  0  0  0  0  0  0  0  0  0  0
   -1.6733   -0.5660   -0.4691 H   0  0  0  0  0  0  0  0  0  0  0  0
   -0.3178   -2.0816    0.8890 H   0  0  0  0  0  0  0  0  0  0  0  0
    1.9300   -1.7463   -0.2053 H   0  0  0  0  0  0  0  0  0  0  0  0
    2.2110    0.0405   -1.5172 H   0  0  0  0  0  0  0  0  0  0  0  0
   -0.4136   -1.1795   -2.0979 H   0  0  0  0  0  0  0  0  0  0  0  0
    0.1668   -2.7887   -1.6025 H   0  0  0  0  0  0  0  0  0  0  0  0
    1.1872   -1.7116   -2.5801 H   0  0  0  0  0  0  0  0  0  0  0  0
    1.0197   -1.4642    2.8351 N   0  0  0  0  0  0  0  0  0  0  0  0
    1.6557   -1.1572    4.0947 C   0  0  2  0  0  0  0  0  0  0  0  0
    0.5832   -0.6571    5.0534 C   0  0  0  0  0  0  0  0  0  0  0  0
   -0.4846   -0.1796    4.6754 O   0  0  0  0  0  0  0  0  0  0  0  0
    2.7554   -0.1212    3.9212 C   0  0  0  0  0  0  0  0  0  0  0  0
    0.8192   -2.4351    2.6134 H   0  0  0  0  0  0  0  0  0  0  0  0
    2.0765   -2.0950    4.4734 H   0  0  0  0  0  0  0  0  0  0  0  0
    2.3529    0.8253    3.5424 H   0  0  0  0  0  0  0  0  0  0  0  0
    3.2557    0.0894    4.8722 H   0  0  0  0  0  0  0  0  0  0  0  0
    3.5106   -0.4701    3.2086 H   0  0  0  0  0  0  0  0  0  0  0  0
    0.9765   -0.7672    6.3798 N   0  0  0  0  0  0  0  0  0  0  0  0
    0.1384   -0.3479    7.4789 C   0  0  0  0  0  0  0  0  0  0  0  0
    1.8716   -1.1929    6.6019 H   0  0  0  0  0  0  0  0  0  0  0  0
    0.3736    0.6935    7.7435 H   0  0  0  0  0  0  0  0  0  0  0  0
   -0.9184   -0.4211    7.1826 H   0  0  0  0  0  0  0  0  0  0  0  0
    0.3215   -0.9972    8.3477 H   0  0  0  0  0  0  0  0  0  0  0  0
  1  3  1  0  0  0  0
  1  7  1  0  0  0  0
  1  2  2  0  0  0  0
 32 33  1  0  0  0  0
 33 41  1  0  0  0  0
 33 34  2  0  0  0  0
  8  9  1  0  0  0  0
  9 17  1  0  0  0  0
  9 10  2  0  0  0  0
 18 19  1  0  0  0  0
 19 31  1  0  0  0  0
 19 20  2  0  0  0  0
 32 35  1  0  0  0  0
  8 11  1  0  0  0  0
 21 23  1  0  0  0  0
 41 42  1  0  0  0  0
 31 32  1  0  0  0  0
  7  8  1  0  0  0  0
 18 21  1  0  0  0  0
 17 18  1  0  0  0  0
 21 22  1  0  0  0  0
  3  4  1  0  0  0  0
  3  5  1  0  0  0  0
  3  6  1  0  0  0  0
 35 38  1  0  0  0  0
 35 39  1  0  0  0  0
 35 40  1  0  0  0  0
 11 14  1  0  0  0  0
 11 15  1  0  0  0  0
 11 16  1  0  0  0  0
 23 28  1  0  0  0  0
 23 29  1  0  0  0  0
 23 30  1  0  0  0  0
 42 44  1  0  0  0  0
 42 45  1  0  0  0  0
 42 46  1  0  0  0  0
 32 37  1  0  0  0  0
  8 13  1  0  0  0  0
 18 25  1  0  0  0  0
 21 26  1  0  0  0  0
 41 43  1  0  0  0  0
  7 12  1  0  0  0  0
 31 36  1  0  0  0  0
 17 24  1  0  0  0  0
 22 27  1  0  0  0  0
M  END
$$$$

  -OEChem-05262214473D

 46 45  0     1  0  0  0  0  0999 V2000
   -4.6700    2.7214    1.5150 C   0  0  0  0  0  0  0  0  0  0  0  0
   -5.4532    2.5715    0.5845 O   0  0  0  0  0  0  0  0  0  0  0  0
   -5.0996    3.4865    2.7226 C   0  0  0  0  0  0  0  0  0  0  0  0
   -4.8796    4.5629    2.6387 H   0  0  0  0  0  0  0  0  0  0  0  0
   -6.1861    3.4241    2.8954 H   0  0  0  0  0  0  0  0  0  0  0  0
   -4.6369    3.1693    3.6708 H   0  0  0  0  0  0  0  0  0  0  0  0
   -3.3731    2.2391    1.5790 N   0  0  0  0  0  0  0  0  0  0  0  0
   -2.7599    1.4751    0.5247 C   0  0  2  0  0  0  0  0  0  0  0  0
   -1.5143    0.8067    1.0915 C   0  0  0  0  0  0  0  0  0  0  0  0
   -0.9247    1.2213    2.0872 O   0  0  0  0  0  0  0  0  0  0  0  0
   -2.4106    2.3553   -0.6653 C   0  0  0  0  0  0  0  0  0  0  0  0
   -2.8254    2.4352    2.4150 H   0  0  0  0  0  0  0  0  0  0  0  0
   -3.4836    0.7082    0.2278 H   0  0  0  0  0  0  0  0  0  0  0  0
   -1.6866    3.1298   -0.3871 H   0  0  0  0  0  0  0  0  0  0  0  0
   -1.9704    1.7677   -1.4777 H   0  0  0  0  0  0  0  0  0  0  0  0
   -3.3030    2.8584   -1.0531 H   0  0  0  0  0  0  0  0  0  0  0  0
   -1.1107   -0.2839    0.3303 N   0  0  0  0  0  0  0  0  0  0  0  0
    0.0490   -1.0750    0.6539 C   0  0  2  0  0  0  0  0  0  0  0  0
    0.6719   -0.4847    1.9157 C   0  0  0  0  0  0  0  0  0  0  0  0
    0.6338    0.7143    2.1841 O   0  0  0  0  0  0  0  0  0  0  0  0
    1.0627   -1.1431   -0.4976 C   0  0  2  0  0  0  0  0  0  0  0  0
    1.5443    0.1598   -0.8238 O   0  0  0  0  0  0  0  0  0  0  0  0
    0.4608   -1.7467   -1.7607 C   0  0  0  0  0  0  0  0  0  0  0  0
   -1.6733   -0.5660   -0.4691 H   0  0  0  0  0  0  0  0  0  0  0  0
   -0.3178   -2.0816    0.8890 H   0  0  0  0  0  0  0  0  0  0  0  0
    1.9300   -1.7463   -0.2053 H   0  0  0  0  0  0  0  0  0  0  0  0
    2.2110    0.0405   -1.5172 H   0  0  0  0  0  0  0  0  0  0  0  0
   -0.4136   -1.1795   -2.0979 H   0  0  0  0  0  0  0  0  0  0  0  0
    0.1668   -2.7887   -1.6025 H   0  0  0  0  0  0  0  0  0  0  0  0
    1.1872   -1.7116   -2.5801 H   0  0  0  0  0  0  0  0  0  0  0  0
    1.3168   -1.4467    2.6802 N   0  0  0  0  0  0  0  0  0  0  0  0
    2.0112   -1.1283    3.9056 C   0  0  2  0  0  0  0  0  0  0  0  0
    0.9719   -0.9689    5.0074 C   0  0  0  0  0  0  0  0  0  0  0  0
   -0.2074   -0.7036    4.7837 O   0  0  0  0  0  0  0  0  0  0  0  0
    2.8443    0.1353    3.7573 C   0  0  0  0  0  0  0  0  0  0  0  0
    1.2998   -2.4123    2.3655 H   0  0  0  0  0  0  0  0  0  0  0  0
    2.6580   -1.9825    4.1337 H   0  0  0  0  0  0  0  0  0  0  0  0
    2.2134    1.0020    3.5286 H   0  0  0  0  0  0  0  0  0  0  0  0
    3.3925    0.3595    4.6783 H   0  0  0  0  0  0  0  0  0  0  0  0
    3.5713    0.0297    2.9448 H   0  0  0  0  0  0  0  0  0  0  0  0
    1.5251   -1.1151    6.2718 N   0  0  0  0  0  0  0  0  0  0  0  0
    0.7460   -0.9960    7.4821 C   0  0  0  0  0  0  0  0  0  0  0  0
    2.5083   -1.3531    6.3625 H   0  0  0  0  0  0  0  0  0  0  0  0
    0.7868    0.0418    7.8444 H   0  0  0  0  0  0  0  0  0  0  0  0
   -0.2986   -1.2709    7.2742 H   0  0  0  0  0  0  0  0  0  0  0  0
    1.1563   -1.6686    8.2498 H   0  0  0  0  0  0  0  0  0  0  0  0
  1  3  1  0  0  0  0
  1  7  1  0  0  0  0
  1  2  2  0  0  0  0
 32 33  1  0  0  0  0
 33 41  1  0  0  0  0
 33 34  2  0  0  0  0
  8  9  1  0  0  0  0
  9 17  1  0  0  0  0
  9 10  2  0  0  0  0
 18 19  1  0  0  0  0
 19 31  1  0  0  0  0
 19 20  2  0  0  0  0
 32 35  1  0  0  0  0
  8 11  1  0  0  0  0
 21 23  1  0  0  0  0
 41 42  1  0  0  0  0
 31 32  1  0  0  0  0
  7  8  1  0  0  0  0
 18 21  1  0  0  0  0
 17 18  1  0  0  0  0
 21 22  1  0  0  0  0
  3  4  1  0  0  0  0
  3  5  1  0  0  0  0
  3  6  1  0  0  0  0
 35 38  1  0  0  0  0
 35 39  1  0  0  0  0
 35 40  1  0  0  0  0
 11 14  1  0  0  0  0
 11 15  1  0  0  0  0
 11 16  1  0  0  0  0
 23 28  1  0  0  0  0
 23 29  1  0  0  0  0
 23 30  1  0  0  0  0
 42 44  1  0  0  0  0
 42 45  1  0  0  0  0
 42 46  1  0  0  0  0
 32 37  1  0  0  0  0
  8 13  1  0  0  0  0
 18 25  1  0  0  0  0
 21 26  1  0  0  0  0
 41 43  1  0  0  0  0
  7 12  1  0  0  0  0
 31 36  1  0  0  0  0
 17 24  1  0  0  0  0
 22 27  1  0  0  0  0
M  END
$$$$

  -OEChem-05262214473D

 46 45  0     1  0  0  0  0  0999 V2000
   -4.6700    2.7214    1.5150 C   0  0  0  0  0  0  0  0  0  0  0  0
   -5.4532    2.5715    0.5845 O   0  0  0  0  0  0  0  0  0  0  0  0
   -5.0996    3.4865    2.7226 C   0  0  0  0  0  0  0  0  0  0  0  0
   -4.8796    4.5629    2.6387 H   0  0  0  0  0  0  0  0  0  0  0  0
   -6.1861    3.4241    2.8954 H   0  0  0  0  0  0  0  0  0  0  0  0
   -4.6369    3.1693    3.6708 H   0  0  0  0  0  0  0  0  0  0  0  0
   -3.3731    2.2391    1.5790 N   0  0  0  0  0  0  0  0  0  0  0  0
   -2.7599    1.4751    0.5247 C   0  0  2  0  0  0  0  0  0  0  0  0
   -1.5143    0.8067    1.0915 C   0  0  0  0  0  0  0  0  0  0  0  0
   -0.9247    1.2213    2.0872 O   0  0  0  0  0  0  0  0  0  0  0  0
   -2.4106    2.3553   -0.6653 C   0  0  0  0  0  0  0  0  0  0  0  0
   -2.8254    2.4352    2.4150 H   0  0  0  0  0  0  0  0  0  0  0  0
   -3.4836    0.7082    0.2278 H   0  0  0  0  0  0  0  0  0  0  0  0
   -1.6866    3.1298   -0.3871 H   0  0  0  0  0  0  0  0  0  0  0  0
   -1.9704    1.7677   -1.4777 H   0  0  0  0  0  0  0  0  0  0  0  0
   -3.3030    2.8584   -1.0531 H   0  0  0  0  0  0  0  0  0  0  0  0
   -1.1107   -0.2839    0.3303 N   0  0  0  0  0  0  0  0  0  0  0  0
    0.0490   -1.0750    0.6539 C   0  0  2  0  0  0  0  0  0  0  0  0
    0.6719   -0.4847    1.9157 C   0  0  0  0  0  0  0  0  0  0  0  0
    0.4147    0.6458    2.3243 O   0  0  0  0  0  0  0  0  0  0  0  0
    1.0627   -1.1431   -0.4976 C   0  0  2  0  0  0  0  0  0  0  0  0
    1.5443    0.1598   -0.8238 O   0  0  0  0  0  0  0  0  0  0  0  0
    0.4608   -1.7467   -1.7607 C   0  0  0  0  0  0  0  0  0  0  0  0
   -1.6733   -0.5660   -0.4691 H   0  0  0  0  0  0  0  0  0  0  0  0
   -0.3178   -2.0816    0.8890 H   0  0  0  0  0  0  0  0  0  0  0  0
    1.9300   -1.7463   -0.2053 H   0  0  0  0  0  0  0  0  0  0  0  0
    2.2110    0.0405   -1.5172 H   0  0  0  0  0  0  0  0  0  0  0  0
   -0.4136   -1.1795   -2.0979 H   0  0  0  0  0  0  0  0  0  0  0  0
    0.1668   -2.7887   -1.6025 H   0  0  0  0  0  0  0  0  0  0  0  0
    1.1872   -1.7116   -2.5801 H   0  0  0  0  0  0  0  0  0  0  0  0
    1.5845   -1.3497    2.5027 N   0  0  0  0  0  0  0  0  0  0  0  0
    2.3296   -1.0043    3.6905 C   0  0  2  0  0  0  0  0  0  0  0  0
    1.4095   -1.1820    4.8910 C   0  0  0  0  0  0  0  0  0  0  0  0
    0.1834   -1.1619    4.8052 O   0  0  0  0  0  0  0  0  0  0  0  0
    2.8588    0.4195    3.6172 C   0  0  0  0  0  0  0  0  0  0  0  0
    1.7343   -2.2613    2.0803 H   0  0  0  0  0  0  0  0  0  0  0  0
    3.1617   -1.7135    3.7592 H   0  0  0  0  0  0  0  0  0  0  0  0
    2.0395    1.1443    3.5478 H   0  0  0  0  0  0  0  0  0  0  0  0
    3.4475    0.6702    4.5058 H   0  0  0  0  0  0  0  0  0  0  0  0
    3.4965    0.5534    2.7367 H   0  0  0  0  0  0  0  0  0  0  0  0
    2.1186   -1.3224    6.0758 N   0  0  0  0  0  0  0  0  0  0  0  0
    1.4719   -1.4923    7.3560 C   0  0  0  0  0  0  0  0  0  0  0  0
    3.1337   -1.3464    6.0507 H   0  0  0  0  0  0  0  0  0  0  0  0
    1.3355   -0.5100    7.8317 H   0  0  0  0  0  0  0  0  0  0  0  0
    0.4911   -1.9687    7.2108 H   0  0  0  0  0  0  0  0  0  0  0  0
    2.0966   -2.1282    8.0006 H   0  0  0  0  0  0  0  0  0  0  0  0
  1  3  1  0  0  0  0
  1  7  1  0  0  0  0
  1  2  2  0  0  0  0
 32 33  1  0  0  0  0
 33 41  1  0  0  0  0
 33 34  2  0  0  0  0
  8  9  1  0  0  0  0
  9 17  1  0  0  0  0
  9 10  2  0  0  0  0
 18 19  1  0  0  0  0
 19 31  1  0  0  0  0
 19 20  2  0  0  0  0
 32 35  1  0  0  0  0
  8 11  1  0  0  0  0
 21 23  1  0  0  0  0
 41 42  1  0  0  0  0
 31 32  1  0  0  0  0
  7  8  1  0  0  0  0
 18 21  1  0  0  0  0
 17 18  1  0  0  0  0
 21 22  1  0  0  0  0
  3  4  1  0  0  0  0
  3  5  1  0  0  0  0
  3  6  1  0  0  0  0
 35 38  1  0  0  0  0
 35 39  1  0  0  0  0
 35 40  1  0  0  0  0
 11 14  1  0  0  0  0
 11 15  1  0  0  0  0
 11 16  1  0  0  0  0
 23 28  1  0  0  0  0
 23 29  1  0  0  0  0
 23 30  1  0  0  0  0
 42 44  1  0  0  0  0
 42 45  1  0  0  0  0
 42 46  1  0  0  0  0
 32 37  1  0  0  0  0
  8 13  1  0  0  0  0
 18 25  1  0  0  0  0
 21 26  1  0  0  0  0
 41 43  1  0  0  0  0
  7 12  1  0  0  0  0
 31 36  1  0  0  0  0
 17 24  1  0  0  0  0
 22 27  1  0  0  0  0
M  END
$$$$

  -OEChem-05262214473D

 46 45  0     1  0  0  0  0  0999 V2000
   -4.6700    2.7214    1.5150 C   0  0  0  0  0  0  0  0  0  0  0  0
   -5.4532    2.5715    0.5845 O   0  0  0  0  0  0  0  0  0  0  0  0
   -5.0996    3.4865    2.7226 C   0  0  0  0  0  0  0  0  0  0  0  0
   -4.8796    4.5629    2.6387 H   0  0  0  0  0  0  0  0  0  0  0  0
   -6.1861    3.4241    2.8954 H   0  0  0  0  0  0  0  0  0  0  0  0
   -4.6369    3.1693    3.6708 H   0  0  0  0  0  0  0  0  0  0  0  0
   -3.3731    2.2391    1.5790 N   0  0  0  0  0  0  0  0  0  0  0  0
   -2.7599    1.4751    0.5247 C   0  0  2  0  0  0  0  0  0  0  0  0
   -1.5143    0.8067    1.0915 C   0  0  0  0  0  0  0  0  0  0  0  0
   -0.9247    1.2213    2.0872 O   0  0  0  0  0  0  0  0  0  0  0  0
   -2.4106    2.3553   -0.6653 C   0  0  0  0  0  0  0  0  0  0  0  0
   -2.8254    2.4352    2.4150 H   0  0  0  0  0  0  0  0  0  0  0  0
   -3.4836    0.7082    0.2278 H   0  0  0  0  0  0  0  0  0  0  0  0
   -1.6866    3.1298   -0.3871 H   0  0  0  0  0  0  0  0  0  0  0  0
   -1.9704    1.7677   -1.4777 H   0  0  0  0  0  0  0  0  0  0  0  0
   -3.3030    2.8584   -1.0531 H   0  0  0  0  0  0  0  0  0  0  0  0
   -1.1107   -0.2839    0.3303 N   0  0  0  0  0  0  0  0  0  0  0  0
    0.0490   -1.0750    0.6539 C   0  0  2  0  0  0  0  0  0  0  0  0
    0.4496   -0.7401    2.0877 C   0  0  0  0  0  0  0  0  0  0  0  0
   -0.1346    0.1009    2.7679 O   0  0  0  0  0  0  0  0  0  0  0  0
    1.2121   -0.8530   -0.3239 C   0  0  2  0  0  0  0  0  0  0  0  0
    1.6369    0.5089   -0.3022 O   0  0  0  0  0  0  0  0  0  0  0  0
    0.8333   -1.1998   -1.7587 C   0  0  0  0  0  0  0  0  0  0  0  0
   -1.6733   -0.5660   -0.4691 H   0  0  0  0  0  0  0  0  0  0  0  0
   -0.2717   -2.1234    0.6215 H   0  0  0  0  0  0  0  0  0  0  0  0
    2.0734   -1.4667   -0.0356 H   0  0  0  0  0  0  0  0  0  0  0  0
    2.3987    0.5685   -0.8986 H   0  0  0  0  0  0  0  0  0  0  0  0
   -0.0263   -0.6120   -2.0988 H   0  0  0  0  0  0  0  0  0  0  0  0
    0.5976   -2.2632   -1.8619 H   0  0  0  0  0  0  0  0  0  0  0  0
    1.6599   -0.9600   -2.4366 H   0  0  0  0  0  0  0  0  0  0  0  0
    1.5654   -1.4549    2.4998 N   0  0  0  0  0  0  0  0  0  0  0  0
    2.1559   -1.2883    3.8070 C   0  0  2  0  0  0  0  0  0  0  0  0
    1.3077   -2.0613    4.8083 C   0  0  0  0  0  0  0  0  0  0  0  0
    0.1312   -2.3544    4.6056 O   0  0  0  0  0  0  0  0  0  0  0  0
    2.2458    0.1806    4.1904 C   0  0  0  0  0  0  0  0  0  0  0  0
    1.9831   -2.1213    1.8569 H   0  0  0  0  0  0  0  0  0  0  0  0
    3.1580   -1.7284    3.7598 H   0  0  0  0  0  0  0  0  0  0  0  0
    1.2514    0.6387    4.2428 H   0  0  0  0  0  0  0  0  0  0  0  0
    2.7198    0.3068    5.1695 H   0  0  0  0  0  0  0  0  0  0  0  0
    2.8314    0.7406    3.4533 H   0  0  0  0  0  0  0  0  0  0  0  0
    2.0062   -2.3477    5.9728 N   0  0  0  0  0  0  0  0  0  0  0  0
    1.4157   -3.0623    7.0804 C   0  0  0  0  0  0  0  0  0  0  0  0
    2.9841   -2.0832    6.0468 H   0  0  0  0  0  0  0  0  0  0  0  0
    0.9892   -2.3435    7.7955 H   0  0  0  0  0  0  0  0  0  0  0  0
    0.6202   -3.7241    6.7073 H   0  0  0  0  0  0  0  0  0  0  0  0
    2.1880   -3.6639    7.5819 H   0  0  0  0  0  0  0  0  0  0  0  0
  1  3  1  0  0  0  0
  1  7  1  0  0  0  0
  1  2  2  0  0  0  0
 32 33  1  0  0  0  0
 33 41  1  0  0  0  0
 33 34  2  0  0  0  0
  8  9  1  0  0  0  0
  9 17  1  0  0  0  0
  9 10  2  0  0  0  0
 18 19  1  0  0  0  0
 19 31  1  0  0  0  0
 19 20  2  0  0  0  0
 32 35  1  0  0  0  0
  8 11  1  0  0  0  0
 21 23  1  0  0  0  0
 41 42  1  0  0  0  0
 31 32  1  0  0  0  0
  7  8  1  0  0  0  0
 18 21  1  0  0  0  0
 17 18  1  0  0  0  0
 21 22  1  0  0  0  0
  3  4  1  0  0  0  0
  3  5  1  0  0  0  0
  3  6  1  0  0  0  0
 35 38  1  0  0  0  0
 35 39  1  0  0  0  0
 35 40  1  0  0  0  0
 11 14  1  0  0  0  0
 11 15  1  0  0  0  0
 11 16  1  0  0  0  0
 23 28  1  0  0  0  0
 23 29  1  0  0  0  0
 23 30  1  0  0  0  0
 42 44  1  0  0  0  0
 42 45  1  0  0  0  0
 42 46  1  0  0  0  0
 32 37  1  0  0  0  0
  8 13  1  0  0  0  0
 18 25  1  0  0  0  0
 21 26  1  0  0  0  0
 41 43  1  0  0  0  0
  7 12  1  0  0  0  0
 31 36  1  0  0  0  0
 17 24  1  0  0  0  0
 22 27  1  0  0  0  0
M  END
$$$$

  -OEChem-05262214473D

 46 45  0     1  0  0  0  0  0999 V2000
   -4.6700    2.7214    1.5150 C   0  0  0  0  0  0  0  0  0  0  0  0
   -5.4532    2.5715    0.5845 O   0  0  0  0  0  0  0  0  0  0  0  0
   -5.0996    3.4865    2.7226 C   0  0  0  0  0  0  0  0  0  0  0  0
   -4.8796    4.5629    2.6387 H   0  0  0  0  0  0  0  0  0  0  0  0
   -6.1861    3.4241    2.8954 H   0  0  0  0  0  0  0  0  0  0  0  0
   -4.6369    3.1693    3.6708 H   0  0  0  0  0  0  0  0  0  0  0  0
   -3.3731    2.2391    1.5790 N   0  0  0  0  0  0  0  0  0  0  0  0
   -2.7599    1.4751    0.5247 C   0  0  2  0  0  0  0  0  0  0  0  0
   -1.5143    0.8067    1.0915 C   0  0  0  0  0  0  0  0  0  0  0  0
   -0.9247    1.2213    2.0872 O   0  0  0  0  0  0  0  0  0  0  0  0
   -2.4106    2.3553   -0.6653 C   0  0  0  0  0  0  0  0  0  0  0  0
   -2.8254    2.4352    2.4150 H   0  0  0  0  0  0  0  0  0  0  0  0
   -3.4836    0.7082    0.2278 H   0  0  0  0  0  0  0  0  0  0  0  0
   -1.6866    3.1298   -0.3871 H   0  0  0  0  0  0  0  0  0  0  0  0
   -1.9704    1.7677   -1.4777 H   0  0  0  0  0  0  0  0  0  0  0  0
   -3.3030    2.8584   -1.0531 H   0  0  0  0  0  0  0  0  0  0  0  0
   -1.1107   -0.2839    0.3303 N   0  0  0  0  0  0  0  0  0  0  0  0
    0.0490   -1.0750    0.6539 C   0  0  2  0  0  0  0  0  0  0  0  0
    0.4496   -0.7401    2.0877 C   0  0  0  0  0  0  0  0  0  0  0  0
   -0.2746   -0.1110    2.8565 O   0  0  0  0  0  0  0  0  0  0  0  0
    1.2121   -0.8530   -0.3239 C   0  0  2  0  0  0  0  0  0  0  0  0
    1.6369    0.5089   -0.3022 O   0  0  0  0  0  0  0  0  0  0  0  0
    0.8333   -1.1998   -1.7587 C   0  0  0  0  0  0  0  0  0  0  0  0
   -1.6733   -0.5660   -0.4691 H   0  0  0  0  0  0  0  0  0  0  0  0
   -0.2717   -2.1234    0.6215 H   0  0  0  0  0  0  0  0  0  0  0  0
    2.0734   -1.4667   -0.0356 H   0  0  0  0  0  0  0  0  0  0  0  0
    2.3987    0.5685   -0.8986 H   0  0  0  0  0  0  0  0  0  0  0  0
   -0.0263   -0.6120   -2.0988 H   0  0  0  0  0  0  0  0  0  0  0  0
    0.5976   -2.2632   -1.8619 H   0  0  0  0  0  0  0  0  0  0  0  0
    1.6599   -0.9600   -2.4366 H   0  0  0  0  0  0  0  0  0  0  0  0
    1.7293   -1.1833    2.3906 N   0  0  0  0  0  0  0  0  0  0  0  0
    2.3461   -0.9570    3.6765 C   0  0  2  0  0  0  0  0  0  0  0  0
    1.7765   -1.9738    4.6568 C   0  0  0  0  0  0  0  0  0  0  0  0
    0.6949   -2.5335    4.4899 O   0  0  0  0  0  0  0  0  0  0  0  0
    2.1039    0.4630    4.1642 C   0  0  0  0  0  0  0  0  0  0  0  0
    2.2525   -1.6865    1.6800 H   0  0  0  0  0  0  0  0  0  0  0  0
    3.4195   -1.1342    3.5480 H   0  0  0  0  0  0  0  0  0  0  0  0
    1.0339    0.6592    4.2987 H   0  0  0  0  0  0  0  0  0  0  0  0
    2.5961    0.6416    5.1258 H   0  0  0  0  0  0  0  0  0  0  0  0
    2.4876    1.1933    3.4437 H   0  0  0  0  0  0  0  0  0  0  0  0
    2.5979   -2.1507    5.7614 N   0  0  0  0  0  0  0  0  0  0  0  0
    2.2708   -3.0543    6.8396 C   0  0  0  0  0  0  0  0  0  0  0  0
    3.4858   -1.6595    5.8076 H   0  0  0  0  0  0  0  0  0  0  0  0
    1.7310   -2.5070    7.6264 H   0  0  0  0  0  0  0  0  0  0  0  0
    1.6359   -3.8669    6.4569 H   0  0  0  0  0  0  0  0  0  0  0  0
    3.1964   -3.4776    7.2567 H   0  0  0  0  0  0  0  0  0  0  0  0
  1  3  1  0  0  0  0
  1  7  1  0  0  0  0
  1  2  2  0  0  0  0
 32 33  1  0  0  0  0
 33 41  1  0  0  0  0
 33 34  2  0  0  0  0
  8  9  1  0  0  0  0
  9 17  1  0  0  0  0
  9 10  2  0  0  0  0
 18 19  1  0  0  0  0
 19 31  1  0  0  0  0
 19 20  2  0  0  0  0
 32 35  1  0  0  0  0
  8 11  1  0  0  0  0
 21 23  1  0  0  0  0
 41 42  1  0  0  0  0
 31 32  1  0  0  0  0
  7  8  1  0  0  0  0
 18 21  1  0  0  0  0
 17 18  1  0  0  0  0
 21 22  1  0  0  0  0
  3  4  1  0  0  0  0
  3  5  1  0  0  0  0
  3  6  1  0  0  0  0
 35 38  1  0  0  0  0
 35 39  1  0  0  0  0
 35 40  1  0  0  0  0
 11 14  1  0  0  0  0
 11 15  1  0  0  0  0
 11 16  1  0  0  0  0
 23 28  1  0  0  0  0
 23 29  1  0  0  0  0
 23 30  1  0  0  0  0
 42 44  1  0  0  0  0
 42 45  1  0  0  0  0
 42 46  1  0  0  0  0
 32 37  1  0  0  0  0
  8 13  1  0  0  0  0
 18 25  1  0  0  0  0
 21 26  1  0  0  0  0
 41 43  1  0  0  0  0
  7 12  1  0  0  0  0
 31 36  1  0  0  0  0
 17 24  1  0  0  0  0
 22 27  1  0  0  0  0
M  END
$$$$

  -OEChem-05262214473D

 46 45  0     1  0  0  0  0  0999 V2000
   -4.6700    2.7214    1.5150 C   0  0  0  0  0  0  0  0  0  0  0  0
   -5.4532    2.5715    0.5845 O   0  0  0  0  0  0  0  0  0  0  0  0
   -5.0996    3.4865    2.7226 C   0  0  0  0  0  0  0  0  0  0  0  0
   -4.8796    4.5629    2.6387 H   0  0  0  0  0  0  0  0  0  0  0  0
   -6.1861    3.4241    2.8954 H   0  0  0  0  0  0  0  0  0  0  0  0
   -4.6369    3.1693    3.6708 H   0  0  0  0  0  0  0  0  0  0  0  0
   -3.3731    2.2391    1.5790 N   0  0  0  0  0  0  0  0  0  0  0  0
   -2.7599    1.4751    0.5247 C   0  0  2  0  0  0  0  0  0  0  0  0
   -1.5143    0.8067    1.0915 C   0  0  0  0  0  0  0  0  0  0  0  0
   -0.9247    1.2213    2.0872 O   0  0  0  0  0  0  0  0  0  0  0  0
   -2.4106    2.3553   -0.6653 C   0  0  0  0  0  0  0  0  0  0  0  0
   -2.8254    2.4352    2.4150 H   0  0  0  0  0  0  0  0  0  0  0  0
   -3.4836    0.7082    0.2278 H   0  0  0  0  0  0  0  0  0  0  0  0
   -1.6866    3.1298   -0.3871 H   0  0  0  0  0  0  0  0  0  0  0  0
   -1.9704    1.7677   -1.4777 H   0  0  0  0  0  0  0  0  0  0  0  0
   -3.3030    2.8584   -1.0531 H   0  0  0  0  0  0  0  0  0  0  0  0
   -1.1107   -0.2839    0.3303 N   0  0  0  0  0  0  0  0  0  0  0  0
    0.0490   -1.0750    0.6539 C   0  0  2  0  0  0  0  0  0  0  0  0
    0.4496   -0.7401    2.0877 C   0  0  0  0  0  0  0  0  0  0  0  0
   -0.3532   -0.3558    2.9356 O   0  0  0  0  0  0  0  0  0  0  0  0
    1.2121   -0.8530   -0.3239 C   0  0  2  0  0  0  0  0  0  0  0  0
    1.6369    0.5089   -0.3022 O   0  0  0  0  0  0  0  0  0  0  0  0
    0.8333   -1.1998   -1.7587 C   0  0  0  0  0  0  0  0  0  0  0  0
   -1.6733   -0.5660   -0.4691 H   0  0  0  0  0  0  0  0  0  0  0  0
   -0.2717   -2.1234    0.6215 H   0  0  0  0  0  0  0  0  0  0  0  0
    2.0734   -1.4667   -0.0356 H   0  0  0  0  0  0  0  0  0  0  0  0
    2.3987    0.5685   -0.8986 H   0  0  0  0  0  0  0  0  0  0  0  0
   -0.0263   -0.6120   -2.0988 H   0  0  0  0  0  0  0  0  0  0  0  0
    0.5976   -2.2632   -1.8619 H   0  0  0  0  0  0  0  0  0  0  0  0
    1.6599   -0.9600   -2.4366 H   0  0  0  0  0  0  0  0  0  0  0  0
    1.8154   -0.8737    2.2942 N   0  0  0  0  0  0  0  0  0  0  0  0
    2.4419   -0.5818    3.5621 C   0  0  2  0  0  0  0  0  0  0  0  0
    2.1996   -1.7650    4.4899 C   0  0  0  0  0  0  0  0  0  0  0  0
    1.2763   -2.5616    4.3340 O   0  0  0  0  0  0  0  0  0  0  0  0
    1.8965    0.7030    4.1660 C   0  0  0  0  0  0  0  0  0  0  0  0
    2.3971   -1.1890    1.5234 H   0  0  0  0  0  0  0  0  0  0  0  0
    3.5156   -0.4823    3.3689 H   0  0  0  0  0  0  0  0  0  0  0  0
    0.8219    0.6224    4.3666 H   0  0  0  0  0  0  0  0  0  0  0  0
    2.3928    0.9380    5.1134 H   0  0  0  0  0  0  0  0  0  0  0  0
    2.0450    1.5476    3.4846 H   0  0  0  0  0  0  0  0  0  0  0  0
    3.1096   -1.8021    5.5370 N   0  0  0  0  0  0  0  0  0  0  0  0
    3.0811   -2.8223    6.5590 C   0  0  0  0  0  0  0  0  0  0  0  0
    3.8538   -1.1120    5.5769 H   0  0  0  0  0  0  0  0  0  0  0  0
    2.4777   -2.4730    7.4098 H   0  0  0  0  0  0  0  0  0  0  0  0
    2.6374   -3.7409    6.1476 H   0  0  0  0  0  0  0  0  0  0  0  0
    4.1067   -3.0304    6.8979 H   0  0  0  0  0  0  0  0  0  0  0  0
  1  3  1  0  0  0  0
  1  7  1  0  0  0  0
  1  2  2  0  0  0  0
 32 33  1  0  0  0  0
 33 41  1  0  0  0  0
 33 34  2  0  0  0  0
  8  9  1  0  0  0  0
  9 17  1  0  0  0  0
  9 10  2  0  0  0  0
 18 19  1  0  0  0  0
 19 31  1  0  0  0  0
 19 20  2  0  0  0  0
 32 35  1  0  0  0  0
  8 11  1  0  0  0  0
 21 23  1  0  0  0  0
 41 42  1  0  0  0  0
 31 32  1  0  0  0  0
  7  8  1  0  0  0  0
 18 21  1  0  0  0  0
 17 18  1  0  0  0  0
 21 22  1  0  0  0  0
  3  4  1  0  0  0  0
  3  5  1  0  0  0  0
  3  6  1  0  0  0  0
 35 38  1  0  0  0  0
 35 39  1  0  0  0  0
 35 40  1  0  0  0  0
 11 14  1  0  0  0  0
 11 15  1  0  0  0  0
 11 16  1  0  0  0  0
 23 28  1  0  0  0  0
 23 29  1  0  0  0  0
 23 30  1  0  0  0  0
 42 44  1  0  0  0  0
 42 45  1  0  0  0  0
 42 46  1  0  0  0  0
 32 37  1  0  0  0  0
  8 13  1  0  0  0  0
 18 25  1  0  0  0  0
 21 26  1  0  0  0  0
 41 43  1  0  0  0  0
  7 12  1  0  0  0  0
 31 36  1  0  0  0  0
 17 24  1  0  0  0  0
 22 27  1  0  0  0  0
M  END
$$$$

  -OEChem-05262214473D

 46 45  0     1  0  0  0  0  0999 V2000
   -4.6700    2.7214    1.5150 C   0  0  0  0  0  0  0  0  0  0  0  0
   -5.4532    2.5715    0.5845 O   0  0  0  0  0  0  0  0  0  0  0  0
   -5.0996    3.4865    2.7226 C   0  0  0  0  0  0  0  0  0  0  0  0
   -4.8796    4.5629    2.6387 H   0  0  0  0  0  0  0  0  0  0  0  0
   -6.1861    3.4241    2.8954 H   0  0  0  0  0  0  0  0  0  0  0  0
   -4.6369    3.1693    3.6708 H   0  0  0  0  0  0  0  0  0  0  0  0
   -3.3731    2.2391    1.5790 N   0  0  0  0  0  0  0  0  0  0  0  0
   -2.7599    1.4751    0.5247 C   0  0  2  0  0  0  0  0  0  0  0  0
   -1.5143    0.8067    1.0915 C   0  0  0  0  0  0  0  0  0  0  0  0
   -0.9247    1.2213    2.0872 O   0  0  0  0  0  0  0  0  0  0  0  0
   -2.4106    2.3553   -0.6653 C   0  0  0  0  0  0  0  0  0  0  0  0
   -2.8254    2.4352    2.4150 H   0  0  0  0  0  0  0  0  0  0  0  0
   -3.4836    0.7082    0.2278 H   0  0  0  0  0  0  0  0  0  0  0  0
   -1.6866    3.1298   -0.3871 H   0  0  0  0  0  0  0  0  0  0  0  0
   -1.9704    1.7677   -1.4777 H   0  0  0  0  0  0  0  0  0  0  0  0
   -3.3030    2.8584   -1.0531 H   0  0  0  0  0  0  0  0  0  0  0  0
   -1.1107   -0.2839    0.3303 N   0  0  0  0  0  0  0  0  0  0  0  0
    0.0490   -1.0750    0.6539 C   0  0  2  0  0  0  0  0  0  0  0  0
    0.4496   -0.7401    2.0877 C   0  0  0  0  0  0  0  0  0  0  0  0
   -0.3652   -0.6168    2.9999 O   0  0  0  0  0  0  0  0  0  0  0  0
    1.2121   -0.8530   -0.3239 C   0  0  2  0  0  0  0  0  0  0  0  0
    1.6369    0.5089   -0.3022 O   0  0  0  0  0  0  0  0  0  0  0  0
    0.8333   -1.1998   -1.7587 C   0  0  0  0  0  0  0  0  0  0  0  0
   -1.6733   -0.5660   -0.4691 H   0  0  0  0  0  0  0  0  0  0  0  0
   -0.2717   -2.1234    0.6215 H   0  0  0  0  0  0  0  0  0  0  0  0
    2.0734   -1.4667   -0.0356 H   0  0  0  0  0  0  0  0  0  0  0  0
    2.3987    0.5685   -0.8986 H   0  0  0  0  0  0  0  0  0  0  0  0
   -0.0263   -0.6120   -2.0988 H   0  0  0  0  0  0  0  0  0  0  0  0
    0.5976   -2.2632   -1.8619 H   0  0  0  0  0  0  0  0  0  0  0  0
    1.6599   -0.9600   -2.4366 H   0  0  0  0  0  0  0  0  0  0  0  0
    1.8177   -0.5471    2.2173 N   0  0  0  0  0  0  0  0  0  0  0  0
    2.4366   -0.1883    3.4717 C   0  0  2  0  0  0  0  0  0  0  0  0
    2.5479   -1.4491    4.3187 C   0  0  0  0  0  0  0  0  0  0  0  0
    1.8360   -2.4367    4.1485 O   0  0  0  0  0  0  0  0  0  0  0  0
    1.6380    0.8843    4.1959 C   0  0  0  0  0  0  0  0  0  0  0  0
    2.4067   -0.6626    1.3978 H   0  0  0  0  0  0  0  0  0  0  0  0
    3.4396    0.1829    3.2348 H   0  0  0  0  0  0  0  0  0  0  0  0
    0.6300    0.5306    4.4416 H   0  0  0  0  0  0  0  0  0  0  0  0
    2.1236    1.1756    5.1331 H   0  0  0  0  0  0  0  0  0  0  0  0
    1.5336    1.7794    3.5734 H   0  0  0  0  0  0  0  0  0  0  0  0
    3.5063   -1.3257    5.3149 N   0  0  0  0  0  0  0  0  0  0  0  0
    3.7915   -2.3821    6.2577 C   0  0  0  0  0  0  0  0  0  0  0  0
    4.0630   -0.4779    5.3704 H   0  0  0  0  0  0  0  0  0  0  0  0
    3.1784   -2.2438    7.1605 H   0  0  0  0  0  0  0  0  0  0  0  0
    3.5566   -3.3546    5.8005 H   0  0  0  0  0  0  0  0  0  0  0  0
    4.8568   -2.3526    6.5300 H   0  0  0  0  0  0  0  0  0  0  0  0
  1  3  1  0  0  0  0
  1  7  1  0  0  0  0
  1  2  2  0  0  0  0
 32 33  1  0  0  0  0
 33 41  1  0  0  0  0
 33 34  2  0  0  0  0
  8  9  1  0  0  0  0
  9 17  1  0  0  0  0
  9 10  2  0  0  0  0
 18 19  1  0  0  0  0
 19 31  1  0  0  0  0
 19 20  2  0  0  0  0
 32 35  1  0  0  0  0
  8 11  1  0  0  0  0
 21 23  1  0  0  0  0
 41 42  1  0  0  0  0
 31 32  1  0  0  0  0
  7  8  1  0  0  0  0
 18 21  1  0  0  0  0
 17 18  1  0  0  0  0
 21 22  1  0  0  0  0
  3  4  1  0  0  0  0
  3  5  1  0  0  0  0
  3  6  1  0  0  0  0
 35 38  1  0  0  0  0
 35 39  1  0  0  0  0
 35 40  1  0  0  0  0
 11 14  1  0  0  0  0
 11 15  1  0  0  0  0
 11 16  1  0  0  0  0
 23 28  1  0  0  0  0
 23 29  1  0  0  0  0
 23 30  1  0  0  0  0
 42 44  1  0  0  0  0
 42 45  1  0  0  0  0
 42 46  1  0  0  0  0
 32 37  1  0  0  0  0
  8 13  1  0  0  0  0
 18 25  1  0  0  0  0
 21 26  1  0  0  0  0
 41 43  1  0  0  0  0
  7 12  1  0  0  0  0
 31 36  1  0  0  0  0
 17 24  1  0  0  0  0
 22 27  1  0  0  0  0
M  END
$$$$

  -OEChem-05262214473D

 46 45  0     1  0  0  0  0  0999 V2000
   -4.6700    2.7214    1.5150 C   0  0  0  0  0  0  0  0  0  0  0  0
   -5.4532    2.5715    0.5845 O   0  0  0  0  0  0  0  0  0  0  0  0
   -5.0996    3.4865    2.7226 C   0  0  0  0  0  0  0  0  0  0  0  0
   -4.8796    4.5629    2.6387 H   0  0  0  0  0  0  0  0  0  0  0  0
   -6.1861    3.4241    2.8954 H   0  0  0  0  0  0  0  0  0  0  0  0
   -4.6369    3.1693    3.6708 H   0  0  0  0  0  0  0  0  0  0  0  0
   -3.3731    2.2391    1.5790 N   0  0  0  0  0  0  0  0  0  0  0  0
   -2.7599    1.4751    0.5247 C   0  0  2  0  0  0  0  0  0  0  0  0
   -1.5143    0.8067    1.0915 C   0  0  0  0  0  0  0  0  0  0  0  0
   -0.9247    1.2213    2.0872 O   0  0  0  0  0  0  0  0  0  0  0  0
   -2.4106    2.3553   -0.6653 C   0  0  0  0  0  0  0  0  0  0  0  0
   -2.8254    2.4352    2.4150 H   0  0  0  0  0  0  0  0  0  0  0  0
   -3.4836    0.7082    0.2278 H   0  0  0  0  0  0  0  0  0  0  0  0
   -1.6866    3.1298   -0.3871 H   0  0  0  0  0  0  0  0  0  0  0  0
   -1.9704    1.7677   -1.4777 H   0  0  0  0  0  0  0  0  0  0  0  0
   -3.3030    2.8584   -1.0531 H   0  0  0  0  0  0  0  0  0  0  0  0
   -1.1107   -0.2839    0.3303 N   0  0  0  0  0  0  0  0  0  0  0  0
    0.0490   -1.0750    0.6539 C   0  0  2  0  0  0  0  0  0  0  0  0
    0.4496   -0.7401    2.0877 C   0  0  0  0  0  0  0  0  0  0  0  0
   -0.3096   -0.8761    3.0450 O   0  0  0  0  0  0  0  0  0  0  0  0
    1.2121   -0.8530   -0.3239 C   0  0  2  0  0  0  0  0  0  0  0  0
    1.6369    0.5089   -0.3022 O   0  0  0  0  0  0  0  0  0  0  0  0
    0.8333   -1.1998   -1.7587 C   0  0  0  0  0  0  0  0  0  0  0  0
   -1.6733   -0.5660   -0.4691 H   0  0  0  0  0  0  0  0  0  0  0  0
   -0.2717   -2.1234    0.6215 H   0  0  0  0  0  0  0  0  0  0  0  0
    2.0734   -1.4667   -0.0356 H   0  0  0  0  0  0  0  0  0  0  0  0
    2.3987    0.5685   -0.8986 H   0  0  0  0  0  0  0  0  0  0  0  0
   -0.0263   -0.6120   -2.0988 H   0  0  0  0  0  0  0  0  0  0  0  0
    0.5976   -2.2632   -1.8619 H   0  0  0  0  0  0  0  0  0  0  0  0
    1.6599   -0.9600   -2.4366 H   0  0  0  0  0  0  0  0  0  0  0  0
    1.7362   -0.2258    2.1650 N   0  0  0  0  0  0  0  0  0  0  0  0
    2.3307    0.1966    3.4114 C   0  0  2  0  0  0  0  0  0  0  0  0
    2.7979   -1.0477    4.1551 C   0  0  0  0  0  0  0  0  0  0  0  0
    2.3356   -2.1673    3.9459 O   0  0  0  0  0  0  0  0  0  0  0  0
    1.3459    0.9945    4.2518 C   0  0  0  0  0  0  0  0  0  0  0  0
    2.2810   -0.1433    1.3116 H   0  0  0  0  0  0  0  0  0  0  0  0
    3.1969    0.8161    3.1547 H   0  0  0  0  0  0  0  0  0  0  0  0
    0.4713    0.3902    4.5188 H   0  0  0  0  0  0  0  0  0  0  0  0
    1.8070    1.3383    5.1836 H   0  0  0  0  0  0  0  0  0  0  0  0
    0.9883    1.8729    3.7039 H   0  0  0  0  0  0  0  0  0  0  0  0
    3.7610   -0.7540    5.1102 N   0  0  0  0  0  0  0  0  0  0  0  0
    4.3534   -1.7636    5.9562 C   0  0  0  0  0  0  0  0  0  0  0  0
    4.0992    0.1994    5.2021 H   0  0  0  0  0  0  0  0  0  0  0  0
    3.7854   -1.8351    6.8955 H   0  0  0  0  0  0  0  0  0  0  0  0
    4.3308   -2.7343    5.4393 H   0  0  0  0  0  0  0  0  0  0  0  0
    5.3956   -1.4905    6.1781 H   0  0  0  0  0  0  0  0  0  0  0  0
  1  3  1  0  0  0  0
  1  7  1  0  0  0  0
  1  2  2  0  0  0  0
 32 33  1  0  0  0  0
 33 41  1  0  0  0  0
 33 34  2  0  0  0  0
  8  9  1  0  0  0  0
  9 17  1  0  0  0  0
  9 10  2  0  0  0  0
 18 19  1  0  0  0  0
 19 31  1  0  0  0  0
 19 20  2  0  0  0  0
 32 35  1  0  0  0  0
  8 11  1  0  0  0  0
 21 23  1  0  0  0  0
 41 42  1  0  0  0  0
 31 32  1  0  0  0  0
  7  8  1  0  0  0  0
 18 21  1  0  0  0  0
 17 18  1  0  0  0  0
 21 22  1  0  0  0  0
  3  4  1  0  0  0  0
  3  5  1  0  0  0  0
  3  6  1  0  0  0  0
 35 38  1  0  0  0  0
 35 39  1  0  0  0  0
 35 40  1  0  0  0  0
 11 14  1  0  0  0  0
 11 15  1  0  0  0  0
 11 16  1  0  0  0  0
 23 28  1  0  0  0  0
 23 29  1  0  0  0  0
 23 30  1  0  0  0  0
 42 44  1  0  0  0  0
 42 45  1  0  0  0  0
 42 46  1  0  0  0  0
 32 37  1  0  0  0  0
  8 13  1  0  0  0  0
 18 25  1  0  0  0  0
 21 26  1  0  0  0  0
 41 43  1  0  0  0  0
  7 12  1  0  0  0  0
 31 36  1  0  0  0  0
 17 24  1  0  0  0  0
 22 27  1  0  0  0  0
M  END
$$$$

  -OEChem-05262214473D

 46 45  0     1  0  0  0  0  0999 V2000
   -4.6700    2.7214    1.5150 C   0  0  0  0  0  0  0  0  0  0  0  0
   -5.4532    2.5715    0.5845 O   0  0  0  0  0  0  0  0  0  0  0  0
   -5.0996    3.4865    2.7226 C   0  0  0  0  0  0  0  0  0  0  0  0
   -4.8796    4.5629    2.6387 H   0  0  0  0  0  0  0  0  0  0  0  0
   -6.1861    3.4241    2.8954 H   0  0  0  0  0  0  0  0  0  0  0  0
   -4.6369    3.1693    3.6708 H   0  0  0  0  0  0  0  0  0  0  0  0
   -3.3731    2.2391    1.5790 N   0  0  0  0  0  0  0  0  0  0  0  0
   -2.7599    1.4751    0.5247 C   0  0  2  0  0  0  0  0  0  0  0  0
   -1.5143    0.8067    1.0915 C   0  0  0  0  0  0  0  0  0  0  0  0
   -0.9247    1.2213    2.0872 O   0  0  0  0  0  0  0  0  0  0  0  0
   -2.4106    2.3553   -0.6653 C   0  0  0  0  0  0  0  0  0  0  0  0
   -2.8254    2.4352    2.4150 H   0  0  0  0  0  0  0  0  0  0  0  0
   -3.4836    0.7082    0.2278 H   0  0  0  0  0  0  0  0  0  0  0  0
   -1.6866    3.1298   -0.3871 H   0  0  0  0  0  0  0  0  0  0  0  0
   -1.9704    1.7677   -1.4777 H   0  0  0  0  0  0  0  0  0  0  0  0
   -3.3030    2.8584   -1.0531 H   0  0  0  0  0  0  0  0  0  0  0  0
   -1.1107   -0.2839    0.3303 N   0  0  0  0  0  0  0  0  0  0  0  0
    0.0490   -1.0750    0.6539 C   0  0  2  0  0  0  0  0  0  0  0  0
    0.4496   -0.7401    2.0877 C   0  0  0  0  0  0  0  0  0  0  0  0
   -0.1903   -1.1162    3.0677 O   0  0  0  0  0  0  0  0  0  0  0  0
    1.2121   -0.8530   -0.3239 C   0  0  2  0  0  0  0  0  0  0  0  0
    1.6369    0.5089   -0.3022 O   0  0  0  0  0  0  0  0  0  0  0  0
    0.8333   -1.1998   -1.7587 C   0  0  0  0  0  0  0  0  0  0  0  0
   -1.6733   -0.5660   -0.4691 H   0  0  0  0  0  0  0  0  0  0  0  0
   -0.2717   -2.1234    0.6215 H   0  0  0  0  0  0  0  0  0  0  0  0
    2.0734   -1.4667   -0.0356 H   0  0  0  0  0  0  0  0  0  0  0  0
    2.3987    0.5685   -0.8986 H   0  0  0  0  0  0  0  0  0  0  0  0
   -0.0263   -0.6120   -2.0988 H   0  0  0  0  0  0  0  0  0  0  0  0
    0.5976   -2.2632   -1.8619 H   0  0  0  0  0  0  0  0  0  0  0  0
    1.6599   -0.9600   -2.4366 H   0  0  0  0  0  0  0  0  0  0  0  0
    1.5763    0.0682    2.1410 N   0  0  0  0  0  0  0  0  0  0  0  0
    2.1314    0.5467    3.3853 C   0  0  2  0  0  0  0  0  0  0  0  0
    2.9323   -0.5880    4.0102 C   0  0  0  0  0  0  0  0  0  0  0  0
    2.7412   -1.7719    3.7402 O   0  0  0  0  0  0  0  0  0  0  0  0
    1.0402    1.0261    4.3298 C   0  0  0  0  0  0  0  0  0  0  0  0
    2.0283    0.3336    1.2709 H   0  0  0  0  0  0  0  0  0  0  0  0
    2.8039    1.3741    3.1342 H   0  0  0  0  0  0  0  0  0  0  0  0
    0.3564    0.2107    4.5928 H   0  0  0  0  0  0  0  0  0  0  0  0
    1.4644    1.4150    5.2614 H   0  0  0  0  0  0  0  0  0  0  0  0
    0.4462    1.8218    3.8673 H   0  0  0  0  0  0  0  0  0  0  0  0
    3.8564   -0.1258    4.9369 N   0  0  0  0  0  0  0  0  0  0  0  0
    4.7287   -1.0090    5.6751 C   0  0  0  0  0  0  0  0  0  0  0  0
    3.9598    0.8739    5.0835 H   0  0  0  0  0  0  0  0  0  0  0  0
    4.2572   -1.2748    6.6328 H   0  0  0  0  0  0  0  0  0  0  0  0
    4.9073   -1.9223    5.0886 H   0  0  0  0  0  0  0  0  0  0  0  0
    5.6864   -0.5028    5.8661 H   0  0  0  0  0  0  0  0  0  0  0  0
  1  3  1  0  0  0  0
  1  7  1  0  0  0  0
  1  2  2  0  0  0  0
 32 33  1  0  0  0  0
 33 41  1  0  0  0  0
 33 34  2  0  0  0  0
  8  9  1  0  0  0  0
  9 17  1  0  0  0  0
  9 10  2  0  0  0  0
 18 19  1  0  0  0  0
 19 31  1  0  0  0  0
 19 20  2  0  0  0  0
 32 35  1  0  0  0  0
  8 11  1  0  0  0  0
 21 23  1  0  0  0  0
 41 42  1  0  0  0  0
 31 32  1  0  0  0  0
  7  8  1  0  0  0  0
 18 21  1  0  0  0  0
 17 18  1  0  0  0  0
 21 22  1  0  0  0  0
  3  4  1  0  0  0  0
  3  5  1  0  0  0  0
  3  6  1  0  0  0  0
 35 38  1  0  0  0  0
 35 39  1  0  0  0  0
 35 40  1  0  0  0  0
 11 14  1  0  0  0  0
 11 15  1  0  0  0  0
 11 16  1  0  0  0  0
 23 28  1  0  0  0  0
 23 29  1  0  0  0  0
 23 30  1  0  0  0  0
 42 44  1  0  0  0  0
 42 45  1  0  0  0  0
 42 46  1  0  0  0  0
 32 37  1  0  0  0  0
  8 13  1  0  0  0  0
 18 25  1  0  0  0  0
 21 26  1  0  0  0  0
 41 43  1  0  0  0  0
  7 12  1  0  0  0  0
 31 36  1  0  0  0  0
 17 24  1  0  0  0  0
 22 27  1  0  0  0  0
M  END
$$$$

  -OEChem-05262214473D

 46 45  0     1  0  0  0  0  0999 V2000
   -4.6700    2.7214    1.5150 C   0  0  0  0  0  0  0  0  0  0  0  0
   -5.4532    2.5715    0.5845 O   0  0  0  0  0  0  0  0  0  0  0  0
   -5.0996    3.4865    2.7226 C   0  0  0  0  0  0  0  0  0  0  0  0
   -4.8796    4.5629    2.6387 H   0  0  0  0  0  0  0  0  0  0  0  0
   -6.1861    3.4241    2.8954 H   0  0  0  0  0  0  0  0  0  0  0  0
   -4.6369    3.1693    3.6708 H   0  0  0  0  0  0  0  0  0  0  0  0
   -3.3731    2.2391    1.5790 N   0  0  0  0  0  0  0  0  0  0  0  0
   -2.7599    1.4751    0.5247 C   0  0  2  0  0  0  0  0  0  0  0  0
   -1.5143    0.8067    1.0915 C   0  0  0  0  0  0  0  0  0  0  0  0
   -0.9247    1.2213    2.0872 O   0  0  0  0  0  0  0  0  0  0  0  0
   -2.4106    2.3553   -0.6653 C   0  0  0  0  0  0  0  0  0  0  0  0
   -2.8254    2.4352    2.4150 H   0  0  0  0  0  0  0  0  0  0  0  0
   -3.4836    0.7082    0.2278 H   0  0  0  0  0  0  0  0  0  0  0  0
   -1.6866    3.1298   -0.3871 H   0  0  0  0  0  0  0  0  0  0  0  0
   -1.9704    1.7677   -1.4777 H   0  0  0  0  0  0  0  0  0  0  0  0
   -3.3030    2.8584   -1.0531 H   0  0  0  0  0  0  0  0  0  0  0  0
   -1.1107   -0.2839    0.3303 N   0  0  0  0  0  0  0  0  0  0  0  0
    0.0490   -1.0750    0.6539 C   0  0  2  0  0  0  0  0  0  0  0  0
    0.4496   -0.7401    2.0877 C   0  0  0  0  0  0  0  0  0  0  0  0
   -0.0154   -1.3206    3.0666 O   0  0  0  0  0  0  0  0  0  0  0  0
    1.2121   -0.8530   -0.3239 C   0  0  2  0  0  0  0  0  0  0  0  0
    1.6369    0.5089   -0.3022 O   0  0  0  0  0  0  0  0  0  0  0  0
    0.8333   -1.1998   -1.7587 C   0  0  0  0  0  0  0  0  0  0  0  0
   -1.6733   -0.5660   -0.4691 H   0  0  0  0  0  0  0  0  0  0  0  0
   -0.2717   -2.1234    0.6215 H   0  0  0  0  0  0  0  0  0  0  0  0
    2.0734   -1.4667   -0.0356 H   0  0  0  0  0  0  0  0  0  0  0  0
    2.3987    0.5685   -0.8986 H   0  0  0  0  0  0  0  0  0  0  0  0
   -0.0263   -0.6120   -2.0988 H   0  0  0  0  0  0  0  0  0  0  0  0
    0.5976   -2.2632   -1.8619 H   0  0  0  0  0  0  0  0  0  0  0  0
    1.6599   -0.9600   -2.4366 H   0  0  0  0  0  0  0  0  0  0  0  0
    1.3491    0.3149    2.1469 N   0  0  0  0  0  0  0  0  0  0  0  0
    1.8522    0.8382    3.3952 C   0  0  2  0  0  0  0  0  0  0  0  0
    2.9422   -0.1014    3.8938 C   0  0  0  0  0  0  0  0  0  0  0  0
    3.0252   -1.2773    3.5454 O   0  0  0  0  0  0  0  0  0  0  0  0
    0.7415    0.9770    4.4248 C   0  0  0  0  0  0  0  0  0  0  0  0
    1.6659    0.7356    1.2782 H   0  0  0  0  0  0  0  0  0  0  0  0
    2.2874    1.8190    3.1746 H   0  0  0  0  0  0  0  0  0  0  0  0
    0.2934    0.0044    4.6586 H   0  0  0  0  0  0  0  0  0  0  0  0
    1.1193    1.4005    5.3612 H   0  0  0  0  0  0  0  0  0  0  0  0
   -0.0557    1.6294    4.0525 H   0  0  0  0  0  0  0  0  0  0  0  0
    3.7859    0.5158    4.8067 N   0  0  0  0  0  0  0  0  0  0  0  0
    4.8917   -0.1698    5.4336 C   0  0  0  0  0  0  0  0  0  0  0  0
    3.6544    1.4996    5.0227 H   0  0  0  0  0  0  0  0  0  0  0  0
    4.5617   -0.6009    6.3903 H   0  0  0  0  0  0  0  0  0  0  0  0
    5.2467   -0.9740    4.7723 H   0  0  0  0  0  0  0  0  0  0  0  0
    5.7094    0.5431    5.6154 H   0  0  0  0  0  0  0  0  0  0  0  0
  1  3  1  0  0  0  0
  1  7  1  0  0  0  0
  1  2  2  0  0  0  0
 32 33  1  0  0  0  0
 33 41  1  0  0  0  0
 33 34  2  0  0  0  0
  8  9  1  0  0  0  0
  9 17  1  0  0  0  0
  9 10  2  0  0  0  0
 18 19  1  0  0  0  0
 19 31  1  0  0  0  0
 19 20  2  0  0  0  0
 32 35  1  0  0  0  0
  8 11  1  0  0  0  0
 21 23  1  0  0  0  0
 41 42  1  0  0  0  0
 31 32  1  0  0  0  0
  7  8  1  0  0  0  0
 18 21  1  0  0  0  0
 17 18  1  0  0  0  0
 21 22  1  0  0  0  0
  3  4  1  0  0  0  0
  3  5  1  0  0  0  0
  3  6  1  0  0  0  0
 35 38  1  0  0  0  0
 35 39  1  0  0  0  0
 35 40  1  0  0  0  0
 11 14  1  0  0  0  0
 11 15  1  0  0  0  0
 11 16  1  0  0  0  0
 23 28  1  0  0  0  0
 23 29  1  0  0  0  0
 23 30  1  0  0  0  0
 42 44  1  0  0  0  0
 42 45  1  0  0  0  0
 42 46  1  0  0  0  0
 32 37  1  0  0  0  0
  8 13  1  0  0  0  0
 18 25  1  0  0  0  0
 21 26  1  0  0  0  0
 41 43  1  0  0  0  0
  7 12  1  0  0  0  0
 31 36  1  0  0  0  0
 17 24  1  0  0  0  0
 22 27  1  0  0  0  0
M  END
$$$$

  -OEChem-05262214473D

 46 45  0     1  0  0  0  0  0999 V2000
   -4.6700    2.7214    1.5150 C   0  0  0  0  0  0  0  0  0  0  0  0
   -5.4532    2.5715    0.5845 O   0  0  0  0  0  0  0  0  0  0  0  0
   -5.0996    3.4865    2.7226 C   0  0  0  0  0  0  0  0  0  0  0  0
   -4.8796    4.5629    2.6387 H   0  0  0  0  0  0  0  0  0  0  0  0
   -6.1861    3.4241    2.8954 H   0  0  0  0  0  0  0  0  0  0  0  0
   -4.6369    3.1693    3.6708 H   0  0  0  0  0  0  0  0  0  0  0  0
   -3.3731    2.2391    1.5790 N   0  0  0  0  0  0  0  0  0  0  0  0
   -2.7599    1.4751    0.5247 C   0  0  2  0  0  0  0  0  0  0  0  0
   -1.5143    0.8067    1.0915 C   0  0  0  0  0  0  0  0  0  0  0  0
   -0.9247    1.2213    2.0872 O   0  0  0  0  0  0  0  0  0  0  0  0
   -2.4106    2.3553   -0.6653 C   0  0  0  0  0  0  0  0  0  0  0  0
   -2.8254    2.4352    2.4150 H   0  0  0  0  0  0  0  0  0  0  0  0
   -3.4836    0.7082    0.2278 H   0  0  0  0  0  0  0  0  0  0  0  0
   -1.6866    3.1298   -0.3871 H   0  0  0  0  0  0  0  0  0  0  0  0
   -1.9704    1.7677   -1.4777 H   0  0  0  0  0  0  0  0  0  0  0  0
   -3.3030    2.8584   -1.0531 H   0  0  0  0  0  0  0  0  0  0  0  0
   -1.1107   -0.2839    0.3303 N   0  0  0  0  0  0  0  0  0  0  0  0
    0.0490   -1.0750    0.6539 C   0  0  2  0  0  0  0  0  0  0  0  0
    0.4496   -0.7401    2.0877 C   0  0  0  0  0  0  0  0  0  0  0  0
    0.2032   -1.4754    3.0417 O   0  0  0  0  0  0  0  0  0  0  0  0
    1.2121   -0.8530   -0.3239 C   0  0  2  0  0  0  0  0  0  0  0  0
    1.6369    0.5089   -0.3022 O   0  0  0  0  0  0  0  0  0  0  0  0
    0.8333   -1.1998   -1.7587 C   0  0  0  0  0  0  0  0  0  0  0  0
   -1.6733   -0.5660   -0.4691 H   0  0  0  0  0  0  0  0  0  0  0  0
   -0.2717   -2.1234    0.6215 H   0  0  0  0  0  0  0  0  0  0  0  0
    2.0734   -1.4667   -0.0356 H   0  0  0  0  0  0  0  0  0  0  0  0
    2.3987    0.5685   -0.8986 H   0  0  0  0  0  0  0  0  0  0  0  0
   -0.0263   -0.6120   -2.0988 H   0  0  0  0  0  0  0  0  0  0  0  0
    0.5976   -2.2632   -1.8619 H   0  0  0  0  0  0  0  0  0  0  0  0
    1.6599   -0.9600   -2.4366 H   0  0  0  0  0  0  0  0  0  0  0  0
    1.0699    0.4976    2.1822 N   0  0  0  0  0  0  0  0  0  0  0  0
    1.5122    1.0512    3.4405 C   0  0  2  0  0  0  0  0  0  0  0  0
    2.8268    0.3789    3.8138 C   0  0  0  0  0  0  0  0  0  0  0  0
    3.1681   -0.7173    3.3747 O   0  0  0  0  0  0  0  0  0  0  0  0
    0.4704    0.8505    4.5301 C   0  0  0  0  0  0  0  0  0  0  0  0
    1.2186    1.0352    1.3333 H   0  0  0  0  0  0  0  0  0  0  0  0
    1.6827    2.1203    3.2732 H   0  0  0  0  0  0  0  0  0  0  0  0
    0.2863   -0.2147    4.7117 H   0  0  0  0  0  0  0  0  0  0  0  0
    0.7951    1.2958    5.4763 H   0  0  0  0  0  0  0  0  0  0  0  0
   -0.4831    1.3090    4.2467 H   0  0  0  0  0  0  0  0  0  0  0  0
    3.5544    1.1273    4.7286 N   0  0  0  0  0  0  0  0  0  0  0  0
    4.8314    0.6968    5.2480 C   0  0  0  0  0  0  0  0  0  0  0  0
    3.2039    2.0338    5.0238 H   0  0  0  0  0  0  0  0  0  0  0  0
    4.6782    0.1406    6.1846 H   0  0  0  0  0  0  0  0  0  0  0  0
    5.3260    0.0461    4.5119 H   0  0  0  0  0  0  0  0  0  0  0  0
    5.4630    1.5760    5.4430 H   0  0  0  0  0  0  0  0  0  0  0  0
  1  3  1  0  0  0  0
  1  7  1  0  0  0  0
  1  2  2  0  0  0  0
 32 33  1  0  0  0  0
 33 41  1  0  0  0  0
 33 34  2  0  0  0  0
  8  9  1  0  0  0  0
  9 17  1  0  0  0  0
  9 10  2  0  0  0  0
 18 19  1  0  0  0  0
 19 31  1  0  0  0  0
 19 20  2  0  0  0  0
 32 35  1  0  0  0  0
  8 11  1  0  0  0  0
 21 23  1  0  0  0  0
 41 42  1  0  0  0  0
 31 32  1  0  0  0  0
  7  8  1  0  0  0  0
 18 21  1  0  0  0  0
 17 18  1  0  0  0  0
 21 22  1  0  0  0  0
  3  4  1  0  0  0  0
  3  5  1  0  0  0  0
  3  6  1  0  0  0  0
 35 38  1  0  0  0  0
 35 39  1  0  0  0  0
 35 40  1  0  0  0  0
 11 14  1  0  0  0  0
 11 15  1  0  0  0  0
 11 16  1  0  0  0  0
 23 28  1  0  0  0  0
 23 29  1  0  0  0  0
 23 30  1  0  0  0  0
 42 44  1  0  0  0  0
 42 45  1  0  0  0  0
 42 46  1  0  0  0  0
 32 37  1  0  0  0  0
  8 13  1  0  0  0  0
 18 25  1  0  0  0  0
 21 26  1  0  0  0  0
 41 43  1  0  0  0  0
  7 12  1  0  0  0  0
 31 36  1  0  0  0  0
 17 24  1  0  0  0  0
 22 27  1  0  0  0  0
M  END
$$$$

  -OEChem-05262214473D

 46 45  0     1  0  0  0  0  0999 V2000
   -4.6700    2.7214    1.5150 C   0  0  0  0  0  0  0  0  0  0  0  0
   -5.4532    2.5715    0.5845 O   0  0  0  0  0  0  0  0  0  0  0  0
   -5.0996    3.4865    2.7226 C   0  0  0  0  0  0  0  0  0  0  0  0
   -4.8796    4.5629    2.6387 H   0  0  0  0  0  0  0  0  0  0  0  0
   -6.1861    3.4241    2.8954 H   0  0  0  0  0  0  0  0  0  0  0  0
   -4.6369    3.1693    3.6708 H   0  0  0  0  0  0  0  0  0  0  0  0
   -3.3731    2.2391    1.5790 N   0  0  0  0  0  0  0  0  0  0  0  0
   -2.7599    1.4751    0.5247 C   0  0  2  0  0  0  0  0  0  0  0  0
   -1.5143    0.8067    1.0915 C   0  0  0  0  0  0  0  0  0  0  0  0
   -0.9247    1.2213    2.0872 O   0  0  0  0  0  0  0  0  0  0  0  0
   -2.4106    2.3553   -0.6653 C   0  0  0  0  0  0  0  0  0  0  0  0
   -2.8254    2.4352    2.4150 H   0  0  0  0  0  0  0  0  0  0  0  0
   -3.4836    0.7082    0.2278 H   0  0  0  0  0  0  0  0  0  0  0  0
   -1.6866    3.1298   -0.3871 H   0  0  0  0  0  0  0  0  0  0  0  0
   -1.9704    1.7677   -1.4777 H   0  0  0  0  0  0  0  0  0  0  0  0
   -3.3030    2.8584   -1.0531 H   0  0  0  0  0  0  0  0  0  0  0  0
   -1.1107   -0.2839    0.3303 N   0  0  0  0  0  0  0  0  0  0  0  0
    0.0490   -1.0750    0.6539 C   0  0  2  0  0  0  0  0  0  0  0  0
    0.4496   -0.7401    2.0877 C   0  0  0  0  0  0  0  0  0  0  0  0
    0.4506   -1.5701    2.9946 O   0  0  0  0  0  0  0  0  0  0  0  0
    1.2121   -0.8530   -0.3239 C   0  0  2  0  0  0  0  0  0  0  0  0
    1.6369    0.5089   -0.3022 O   0  0  0  0  0  0  0  0  0  0  0  0
    0.8333   -1.1998   -1.7587 C   0  0  0  0  0  0  0  0  0  0  0  0
   -1.6733   -0.5660   -0.4691 H   0  0  0  0  0  0  0  0  0  0  0  0
   -0.2717   -2.1234    0.6215 H   0  0  0  0  0  0  0  0  0  0  0  0
    2.0734   -1.4667   -0.0356 H   0  0  0  0  0  0  0  0  0  0  0  0
    2.3987    0.5685   -0.8986 H   0  0  0  0  0  0  0  0  0  0  0  0
   -0.0263   -0.6120   -2.0988 H   0  0  0  0  0  0  0  0  0  0  0  0
    0.5976   -2.2632   -1.8619 H   0  0  0  0  0  0  0  0  0  0  0  0
    1.6599   -0.9600   -2.4366 H   0  0  0  0  0  0  0  0  0  0  0  0
    0.7578    0.6038    2.2446 N   0  0  0  0  0  0  0  0  0  0  0  0
    1.1346    1.1712    3.5180 C   0  0  2  0  0  0  0  0  0  0  0  0
    2.5940    0.8203    3.7758 C   0  0  0  0  0  0  0  0  0  0  0  0
    3.1603   -0.1300    3.2397 O   0  0  0  0  0  0  0  0  0  0  0  0
    0.2453    0.6552    4.6386 C   0  0  0  0  0  0  0  0  0  0  0  0
    0.7167    1.2121    1.4322 H   0  0  0  0  0  0  0  0  0  0  0  0
    1.0308    2.2576    3.4233 H   0  0  0  0  0  0  0  0  0  0  0  0
    0.3359   -0.4316    4.7485 H   0  0  0  0  0  0  0  0  0  0  0  0
    0.5139    1.1080    5.5987 H   0  0  0  0  0  0  0  0  0  0  0  0
   -0.8071    0.8823    4.4369 H   0  0  0  0  0  0  0  0  0  0  0  0
    3.1776    1.6670    4.7078 N   0  0  0  0  0  0  0  0  0  0  0  0
    4.5518    1.5319    5.1311 C   0  0  0  0  0  0  0  0  0  0  0  0
    2.6388    2.4402    5.0868 H   0  0  0  0  0  0  0  0  0  0  0  0
    4.5987    0.8991    6.0296 H   0  0  0  0  0  0  0  0  0  0  0  0
    5.1397    1.0683    4.3252 H   0  0  0  0  0  0  0  0  0  0  0  0
    4.9640    2.5256    5.3607 H   0  0  0  0  0  0  0  0  0  0  0  0
  1  3  1  0  0  0  0
  1  7  1  0  0  0  0
  1  2  2  0  0  0  0
 32 33  1  0  0  0  0
 33 41  1  0  0  0  0
 33 34  2  0  0  0  0
  8  9  1  0  0  0  0
  9 17  1  0  0  0  0
  9 10  2  0  0  0  0
 18 19  1  0  0  0  0
 19 31  1  0  0  0  0
 19 20  2  0  0  0  0
 32 35  1  0  0  0  0
  8 11  1  0  0  0  0
 21 23  1  0  0  0  0
 41 42  1  0  0  0  0
 31 32  1  0  0  0  0
  7  8  1  0  0  0  0
 18 21  1  0  0  0  0
 17 18  1  0  0  0  0
 21 22  1  0  0  0  0
  3  4  1  0  0  0  0
  3  5  1  0  0  0  0
  3  6  1  0  0  0  0
 35 38  1  0  0  0  0
 35 39  1  0  0  0  0
 35 40  1  0  0  0  0
 11 14  1  0  0  0  0
 11 15  1  0  0  0  0
 11 16  1  0  0  0  0
 23 28  1  0  0  0  0
 23 29  1  0  0  0  0
 23 30  1  0  0  0  0
 42 44  1  0  0  0  0
 42 45  1  0  0  0  0
 42 46  1  0  0  0  0
 32 37  1  0  0  0  0
  8 13  1  0  0  0  0
 18 25  1  0  0  0  0
 21 26  1  0  0  0  0
 41 43  1  0  0  0  0
  7 12  1  0  0  0  0
 31 36  1  0  0  0  0
 17 24  1  0  0  0  0
 22 27  1  0  0  0  0
M  END
$$$$

  -OEChem-05262214473D

 46 45  0     1  0  0  0  0  0999 V2000
   -4.6700    2.7214    1.5150 C   0  0  0  0  0  0  0  0  0  0  0  0
   -5.4532    2.5715    0.5845 O   0  0  0  0  0  0  0  0  0  0  0  0
   -5.0996    3.4865    2.7226 C   0  0  0  0  0  0  0  0  0  0  0  0
   -4.8796    4.5629    2.6387 H   0  0  0  0  0  0  0  0  0  0  0  0
   -6.1861    3.4241    2.8954 H   0  0  0  0  0  0  0  0  0  0  0  0
   -4.6369    3.1693    3.6708 H   0  0  0  0  0  0  0  0  0  0  0  0
   -3.3731    2.2391    1.5790 N   0  0  0  0  0  0  0  0  0  0  0  0
   -2.7599    1.4751    0.5247 C   0  0  2  0  0  0  0  0  0  0  0  0
   -1.5143    0.8067    1.0915 C   0  0  0  0  0  0  0  0  0  0  0  0
   -0.9247    1.2213    2.0872 O   0  0  0  0  0  0  0  0  0  0  0  0
   -2.4106    2.3553   -0.6653 C   0  0  0  0  0  0  0  0  0  0  0  0
   -2.8254    2.4352    2.4150 H   0  0  0  0  0  0  0  0  0  0  0  0
   -3.4836    0.7082    0.2278 H   0  0  0  0  0  0  0  0  0  0  0  0
   -1.6866    3.1298   -0.3871 H   0  0  0  0  0  0  0  0  0  0  0  0
   -1.9704    1.7677   -1.4777 H   0  0  0  0  0  0  0  0  0  0  0  0
   -3.3030    2.8584   -1.0531 H   0  0  0  0  0  0  0  0  0  0  0  0
   -1.1107   -0.2839    0.3303 N   0  0  0  0  0  0  0  0  0  0  0  0
    0.0490   -1.0750    0.6539 C   0  0  2  0  0  0  0  0  0  0  0  0
    0.4496   -0.7401    2.0877 C   0  0  0  0  0  0  0  0  0  0  0  0
    0.7099   -1.5982    2.9288 O   0  0  0  0  0  0  0  0  0  0  0  0
    1.2121   -0.8530   -0.3239 C   0  0  2  0  0  0  0  0  0  0  0  0
    1.6369    0.5089   -0.3022 O   0  0  0  0  0  0  0  0  0  0  0  0
    0.8333   -1.1998   -1.7587 C   0  0  0  0  0  0  0  0  0  0  0  0
   -1.6733   -0.5660   -0.4691 H   0  0  0  0  0  0  0  0  0  0  0  0
   -0.2717   -2.1234    0.6215 H   0  0  0  0  0  0  0  0  0  0  0  0
    2.0734   -1.4667   -0.0356 H   0  0  0  0  0  0  0  0  0  0  0  0
    2.3987    0.5685   -0.8986 H   0  0  0  0  0  0  0  0  0  0  0  0
   -0.0263   -0.6120   -2.0988 H   0  0  0  0  0  0  0  0  0  0  0  0
    0.5976   -2.2632   -1.8619 H   0  0  0  0  0  0  0  0  0  0  0  0
    1.6599   -0.9600   -2.4366 H   0  0  0  0  0  0  0  0  0  0  0  0
    0.4340    0.6262    2.3299 N   0  0  0  0  0  0  0  0  0  0  0  0
    0.7451    1.1900    3.6224 C   0  0  2  0  0  0  0  0  0  0  0  0
    2.2596    1.1925    3.7823 C   0  0  0  0  0  0  0  0  0  0  0  0
    3.0022    0.4446    3.1497 O   0  0  0  0  0  0  0  0  0  0  0  0
    0.0815    0.4044    4.7429 C   0  0  0  0  0  0  0  0  0  0  0  0
    0.1945    1.2542    1.5682 H   0  0  0  0  0  0  0  0  0  0  0  0
    0.3763    2.2215    3.6146 H   0  0  0  0  0  0  0  0  0  0  0  0
    0.4385   -0.6316    4.7666 H   0  0  0  0  0  0  0  0  0  0  0  0
    0.2950    0.8499    5.7201 H   0  0  0  0  0  0  0  0  0  0  0  0
   -1.0054    0.3785    4.6100 H   0  0  0  0  0  0  0  0  0  0  0  0
    2.6812    2.0981    4.7458 N   0  0  0  0  0  0  0  0  0  0  0  0
    4.0720    2.2785    5.0908 C   0  0  0  0  0  0  0  0  0  0  0  0
    1.9977    2.6910    5.2074 H   0  0  0  0  0  0  0  0  0  0  0  0
    4.3287    1.6229    5.9360 H   0  0  0  0  0  0  0  0  0  0  0  0
    4.7005    2.0232    4.2249 H   0  0  0  0  0  0  0  0  0  0  0  0
    4.2464    3.3270    5.3740 H   0  0  0  0  0  0  0  0  0  0  0  0
  1  3  1  0  0  0  0
  1  7  1  0  0  0  0
  1  2  2  0  0  0  0
 32 33  1  0  0  0  0
 33 41  1  0  0  0  0
 33 34  2  0  0  0  0
  8  9  1  0  0  0  0
  9 17  1  0  0  0  0
  9 10  2  0  0  0  0
 18 19  1  0  0  0  0
 19 31  1  0  0  0  0
 19 20  2  0  0  0  0
 32 35  1  0  0  0  0
  8 11  1  0  0  0  0
 21 23  1  0  0  0  0
 41 42  1  0  0  0  0
 31 32  1  0  0  0  0
  7  8  1  0  0  0  0
 18 21  1  0  0  0  0
 17 18  1  0  0  0  0
 21 22  1  0  0  0  0
  3  4  1  0  0  0  0
  3  5  1  0  0  0  0
  3  6  1  0  0  0  0
 35 38  1  0  0  0  0
 35 39  1  0  0  0  0
 35 40  1  0  0  0  0
 11 14  1  0  0  0  0
 11 15  1  0  0  0  0
 11 16  1  0  0  0  0
 23 28  1  0  0  0  0
 23 29  1  0  0  0  0
 23 30  1  0  0  0  0
 42 44  1  0  0  0  0
 42 45  1  0  0  0  0
 42 46  1  0  0  0  0
 32 37  1  0  0  0  0
  8 13  1  0  0  0  0
 18 25  1  0  0  0  0
 21 26  1  0  0  0  0
 41 43  1  0  0  0  0
  7 12  1  0  0  0  0
 31 36  1  0  0  0  0
 17 24  1  0  0  0  0
 22 27  1  0  0  0  0
M  END
$$$$

  -OEChem-05262214473D

 46 45  0     1  0  0  0  0  0999 V2000
   -4.6700    2.7214    1.5150 C   0  0  0  0  0  0  0  0  0  0  0  0
   -5.4532    2.5715    0.5845 O   0  0  0  0  0  0  0  0  0  0  0  0
   -5.0996    3.4865    2.7226 C   0  0  0  0  0  0  0  0  0  0  0  0
   -4.8796    4.5629    2.6387 H   0  0  0  0  0  0  0  0  0  0  0  0
   -6.1861    3.4241    2.8954 H   0  0  0  0  0  0  0  0  0  0  0  0
   -4.6369    3.1693    3.6708 H   0  0  0  0  0  0  0  0  0  0  0  0
   -3.3731    2.2391    1.5790 N   0  0  0  0  0  0  0  0  0  0  0  0
   -2.7599    1.4751    0.5247 C   0  0  2  0  0  0  0  0  0  0  0  0
   -1.5143    0.8067    1.0915 C   0  0  0  0  0  0  0  0  0  0  0  0
   -0.9247    1.2213    2.0872 O   0  0  0  0  0  0  0  0  0  0  0  0
   -2.4106    2.3553   -0.6653 C   0  0  0  0  0  0  0  0  0  0  0  0
   -2.8254    2.4352    2.4150 H   0  0  0  0  0  0  0  0  0  0  0  0
   -3.4836    0.7082    0.2278 H   0  0  0  0  0  0  0  0  0  0  0  0
   -1.6866    3.1298   -0.3871 H   0  0  0  0  0  0  0  0  0  0  0  0
   -1.9704    1.7677   -1.4777 H   0  0  0  0  0  0  0  0  0  0  0  0
   -3.3030    2.8584   -1.0531 H   0  0  0  0  0  0  0  0  0  0  0  0
   -1.1107   -0.2839    0.3303 N   0  0  0  0  0  0  0  0  0  0  0  0
    0.0490   -1.0750    0.6539 C   0  0  2  0  0  0  0  0  0  0  0  0
    0.4496   -0.7401    2.0877 C   0  0  0  0  0  0  0  0  0  0  0  0
    0.9635   -1.5578    2.8485 O   0  0  0  0  0  0  0  0  0  0  0  0
    1.2121   -0.8530   -0.3239 C   0  0  2  0  0  0  0  0  0  0  0  0
    1.6369    0.5089   -0.3022 O   0  0  0  0  0  0  0  0  0  0  0  0
    0.8333   -1.1998   -1.7587 C   0  0  0  0  0  0  0  0  0  0  0  0
   -1.6733   -0.5660   -0.4691 H   0  0  0  0  0  0  0  0  0  0  0  0
   -0.2717   -2.1234    0.6215 H   0  0  0  0  0  0  0  0  0  0  0  0
    2.0734   -1.4667   -0.0356 H   0  0  0  0  0  0  0  0  0  0  0  0
    2.3987    0.5685   -0.8986 H   0  0  0  0  0  0  0  0  0  0  0  0
   -0.0263   -0.6120   -2.0988 H   0  0  0  0  0  0  0  0  0  0  0  0
    0.5976   -2.2632   -1.8619 H   0  0  0  0  0  0  0  0  0  0  0  0
    1.6599   -0.9600   -2.4366 H   0  0  0  0  0  0  0  0  0  0  0  0
    0.1207    0.5633    2.4321 N   0  0  0  0  0  0  0  0  0  0  0  0
    0.3702    1.1063    3.7467 C   0  0  2  0  0  0  0  0  0  0  0  0
    1.8465    1.4703    3.8329 C   0  0  0  0  0  0  0  0  0  0  0  0
    2.7047    0.9672    3.1107 O   0  0  0  0  0  0  0  0  0  0  0  0
   -0.0098    0.1153    4.8359 C   0  0  0  0  0  0  0  0  0  0  0  0
   -0.3123    1.1586    1.7322 H   0  0  0  0  0  0  0  0  0  0  0  0
   -0.2362    2.0144    3.8341 H   0  0  0  0  0  0  0  0  0  0  0  0
    0.5874   -0.8011    4.7646 H   0  0  0  0  0  0  0  0  0  0  0  0
    0.1531    0.5391    5.8324 H   0  0  0  0  0  0  0  0  0  0  0  0
   -1.0646   -0.1682    4.7542 H   0  0  0  0  0  0  0  0  0  0  0  0
    2.0990    2.3912    4.8400 N   0  0  0  0  0  0  0  0  0  0  0  0
    3.4247    2.8857    5.1298 C   0  0  0  0  0  0  0  0  0  0  0  0
    1.3243    2.7692    5.3773 H   0  0  0  0  0  0  0  0  0  0  0  0
    3.8865    2.2628    5.9101 H   0  0  0  0  0  0  0  0  0  0  0  0
    4.0384    2.8455    4.2178 H   0  0  0  0  0  0  0  0  0  0  0  0
    3.3591    3.9256    5.4821 H   0  0  0  0  0  0  0  0  0  0  0  0
  1  3  1  0  0  0  0
  1  7  1  0  0  0  0
  1  2  2  0  0  0  0
 32 33  1  0  0  0  0
 33 41  1  0  0  0  0
 33 34  2  0  0  0  0
  8  9  1  0  0  0  0
  9 17  1  0  0  0  0
  9 10  2  0  0  0  0
 18 19  1  0  0  0  0
 19 31  1  0  0  0  0
 19 20  2  0  0  0  0
 32 35  1  0  0  0  0
  8 11  1  0  0  0  0
 21 23  1  0  0  0  0
 41 42  1  0  0  0  0
 31 32  1  0  0  0  0
  7  8  1  0  0  0  0
 18 21  1  0  0  0  0
 17 18  1  0  0  0  0
 21 22  1  0  0  0  0
  3  4  1  0  0  0  0
  3  5  1  0  0  0  0
  3  6  1  0  0  0  0
 35 38  1  0  0  0  0
 35 39  1  0  0  0  0
 35 40  1  0  0  0  0
 11 14  1  0  0  0  0
 11 15  1  0  0  0  0
 11 16  1  0  0  0  0
 23 28  1  0  0  0  0
 23 29  1  0  0  0  0
 23 30  1  0  0  0  0
 42 44  1  0  0  0  0
 42 45  1  0  0  0  0
 42 46  1  0  0  0  0
 32 37  1  0  0  0  0
  8 13  1  0  0  0  0
 18 25  1  0  0  0  0
 21 26  1  0  0  0  0
 41 43  1  0  0  0  0
  7 12  1  0  0  0  0
 31 36  1  0  0  0  0
 17 24  1  0  0  0  0
 22 27  1  0  0  0  0
M  END
$$$$

  -OEChem-05262214473D

 46 45  0     1  0  0  0  0  0999 V2000
   -4.6700    2.7214    1.5150 C   0  0  0  0  0  0  0  0  0  0  0  0
   -5.4532    2.5715    0.5845 O   0  0  0  0  0  0  0  0  0  0  0  0
   -5.0996    3.4865    2.7226 C   0  0  0  0  0  0  0  0  0  0  0  0
   -4.8796    4.5629    2.6387 H   0  0  0  0  0  0  0  0  0  0  0  0
   -6.1861    3.4241    2.8954 H   0  0  0  0  0  0  0  0  0  0  0  0
   -4.6369    3.1693    3.6708 H   0  0  0  0  0  0  0  0  0  0  0  0
   -3.3731    2.2391    1.5790 N   0  0  0  0  0  0  0  0  0  0  0  0
   -2.7599    1.4751    0.5247 C   0  0  2  0  0  0  0  0  0  0  0  0
   -1.5143    0.8067    1.0915 C   0  0  0  0  0  0  0  0  0  0  0  0
   -0.9247    1.2213    2.0872 O   0  0  0  0  0  0  0  0  0  0  0  0
   -2.4106    2.3553   -0.6653 C   0  0  0  0  0  0  0  0  0  0  0  0
   -2.8254    2.4352    2.4150 H   0  0  0  0  0  0  0  0  0  0  0  0
   -3.4836    0.7082    0.2278 H   0  0  0  0  0  0  0  0  0  0  0  0
   -1.6866    3.1298   -0.3871 H   0  0  0  0  0  0  0  0  0  0  0  0
   -1.9704    1.7677   -1.4777 H   0  0  0  0  0  0  0  0  0  0  0  0
   -3.3030    2.8584   -1.0531 H   0  0  0  0  0  0  0  0  0  0  0  0
   -1.1107   -0.2839    0.3303 N   0  0  0  0  0  0  0  0  0  0  0  0
    0.0490   -1.0750    0.6539 C   0  0  2  0  0  0  0  0  0  0  0  0
    0.4496   -0.7401    2.0877 C   0  0  0  0  0  0  0  0  0  0  0  0
    1.1940   -1.4517    2.7593 O   0  0  0  0  0  0  0  0  0  0  0  0
    1.2121   -0.8530   -0.3239 C   0  0  2  0  0  0  0  0  0  0  0  0
    1.6369    0.5089   -0.3022 O   0  0  0  0  0  0  0  0  0  0  0  0
    0.8333   -1.1998   -1.7587 C   0  0  0  0  0  0  0  0  0  0  0  0
   -1.6733   -0.5660   -0.4691 H   0  0  0  0  0  0  0  0  0  0  0  0
   -0.2717   -2.1234    0.6215 H   0  0  0  0  0  0  0  0  0  0  0  0
    2.0734   -1.4667   -0.0356 H   0  0  0  0  0  0  0  0  0  0  0  0
    2.3987    0.5685   -0.8986 H   0  0  0  0  0  0  0  0  0  0  0  0
   -0.0263   -0.6120   -2.0988 H   0  0  0  0  0  0  0  0  0  0  0  0
    0.5976   -2.2632   -1.8619 H   0  0  0  0  0  0  0  0  0  0  0  0
    1.6599   -0.9600   -2.4366 H   0  0  0  0  0  0  0  0  0  0  0  0
   -0.1608    0.4194    2.5444 N   0  0  0  0  0  0  0  0  0  0  0  0
    0.0354    0.9258    3.8824 C   0  0  2  0  0  0  0  0  0  0  0  0
    1.3827    1.6347    3.9240 C   0  0  0  0  0  0  0  0  0  0  0  0
    2.2880    1.4023    3.1255 O   0  0  0  0  0  0  0  0  0  0  0  0
   -0.0223   -0.1925    4.9113 C   0  0  0  0  0  0  0  0  0  0  0  0
   -0.7694    0.9319    1.9128 H   0  0  0  0  0  0  0  0  0  0  0  0
   -0.7651    1.6505    4.0669 H   0  0  0  0  0  0  0  0  0  0  0  0
    0.7723   -0.9284    4.7426 H   0  0  0  0  0  0  0  0  0  0  0  0
    0.0981    0.1968    5.9277 H   0  0  0  0  0  0  0  0  0  0  0  0
   -0.9807   -0.7204    4.8597 H   0  0  0  0  0  0  0  0  0  0  0  0
    1.4708    2.5263    4.9840 N   0  0  0  0  0  0  0  0  0  0  0  0
    2.6541    3.3121    5.2456 C   0  0  0  0  0  0  0  0  0  0  0  0
    0.6645    2.6693    5.5850 H   0  0  0  0  0  0  0  0  0  0  0  0
    3.3023    2.7751    5.9537 H   0  0  0  0  0  0  0  0  0  0  0  0
    3.1985    3.4792    4.3045 H   0  0  0  0  0  0  0  0  0  0  0  0
    2.3626    4.2808    5.6776 H   0  0  0  0  0  0  0  0  0  0  0  0
  1  3  1  0  0  0  0
  1  7  1  0  0  0  0
  1  2  2  0  0  0  0
 32 33  1  0  0  0  0
 33 41  1  0  0  0  0
 33 34  2  0  0  0  0
  8  9  1  0  0  0  0
  9 17  1  0  0  0  0
  9 10  2  0  0  0  0
 18 19  1  0  0  0  0
 19 31  1  0  0  0  0
 19 20  2  0  0  0  0
 32 35  1  0  0  0  0
  8 11  1  0  0  0  0
 21 23  1  0  0  0  0
 41 42  1  0  0  0  0
 31 32  1  0  0  0  0
  7  8  1  0  0  0  0
 18 21  1  0  0  0  0
 17 18  1  0  0  0  0
 21 22  1  0  0  0  0
  3  4  1  0  0  0  0
  3  5  1  0  0  0  0
  3  6  1  0  0  0  0
 35 38  1  0  0  0  0
 35 39  1  0  0  0  0
 35 40  1  0  0  0  0
 11 14  1  0  0  0  0
 11 15  1  0  0  0  0
 11 16  1  0  0  0  0
 23 28  1  0  0  0  0
 23 29  1  0  0  0  0
 23 30  1  0  0  0  0
 42 44  1  0  0  0  0
 42 45  1  0  0  0  0
 42 46  1  0  0  0  0
 32 37  1  0  0  0  0
  8 13  1  0  0  0  0
 18 25  1  0  0  0  0
 21 26  1  0  0  0  0
 41 43  1  0  0  0  0
  7 12  1  0  0  0  0
 31 36  1  0  0  0  0
 17 24  1  0  0  0  0
 22 27  1  0  0  0  0
M  END
$$$$

  -OEChem-05262214473D

 46 45  0     1  0  0  0  0  0999 V2000
   -4.6700    2.7214    1.5150 C   0  0  0  0  0  0  0  0  0  0  0  0
   -5.4532    2.5715    0.5845 O   0  0  0  0  0  0  0  0  0  0  0  0
   -5.0996    3.4865    2.7226 C   0  0  0  0  0  0  0  0  0  0  0  0
   -4.8796    4.5629    2.6387 H   0  0  0  0  0  0  0  0  0  0  0  0
   -6.1861    3.4241    2.8954 H   0  0  0  0  0  0  0  0  0  0  0  0
   -4.6369    3.1693    3.6708 H   0  0  0  0  0  0  0  0  0  0  0  0
   -3.3731    2.2391    1.5790 N   0  0  0  0  0  0  0  0  0  0  0  0
   -2.7599    1.4751    0.5247 C   0  0  2  0  0  0  0  0  0  0  0  0
   -1.5143    0.8067    1.0915 C   0  0  0  0  0  0  0  0  0  0  0  0
   -0.9247    1.2213    2.0872 O   0  0  0  0  0  0  0  0  0  0  0  0
   -2.4106    2.3553   -0.6653 C   0  0  0  0  0  0  0  0  0  0  0  0
   -2.8254    2.4352    2.4150 H   0  0  0  0  0  0  0  0  0  0  0  0
   -3.4836    0.7082    0.2278 H   0  0  0  0  0  0  0  0  0  0  0  0
   -1.6866    3.1298   -0.3871 H   0  0  0  0  0  0  0  0  0  0  0  0
   -1.9704    1.7677   -1.4777 H   0  0  0  0  0  0  0  0  0  0  0  0
   -3.3030    2.8584   -1.0531 H   0  0  0  0  0  0  0  0  0  0  0  0
   -1.1107   -0.2839    0.3303 N   0  0  0  0  0  0  0  0  0  0  0  0
    0.0490   -1.0750    0.6539 C   0  0  2  0  0  0  0  0  0  0  0  0
    0.4496   -0.7401    2.0877 C   0  0  0  0  0  0  0  0  0  0  0  0
    1.3858   -1.2870    2.6672 O   0  0  0  0  0  0  0  0  0  0  0  0
    1.2121   -0.8530   -0.3239 C   0  0  2  0  0  0  0  0  0  0  0  0
    1.6369    0.5089   -0.3022 O   0  0  0  0  0  0  0  0  0  0  0  0
    0.8333   -1.1998   -1.7587 C   0  0  0  0  0  0  0  0  0  0  0  0
   -1.6733   -0.5660   -0.4691 H   0  0  0  0  0  0  0  0  0  0  0  0
   -0.2717   -2.1234    0.6215 H   0  0  0  0  0  0  0  0  0  0  0  0
    2.0734   -1.4667   -0.0356 H   0  0  0  0  0  0  0  0  0  0  0  0
    2.3987    0.5685   -0.8986 H   0  0  0  0  0  0  0  0  0  0  0  0
   -0.0263   -0.6120   -2.0988 H   0  0  0  0  0  0  0  0  0  0  0  0
    0.5976   -2.2632   -1.8619 H   0  0  0  0  0  0  0  0  0  0  0  0
    1.6599   -0.9600   -2.4366 H   0  0  0  0  0  0  0  0  0  0  0  0
   -0.3914    0.2043    2.6590 N   0  0  0  0  0  0  0  0  0  0  0  0
   -0.2363    0.6609    4.0202 C   0  0  2  0  0  0  0  0  0  0  0  0
    0.9000    1.6746    4.0496 C   0  0  0  0  0  0  0  0  0  0  0  0
    1.7805    1.7203    3.1931 O   0  0  0  0  0  0  0  0  0  0  0  0
    0.0446   -0.4980    4.9640 C   0  0  0  0  0  0  0  0  0  0  0  0
   -1.1455    0.5895    2.0979 H   0  0  0  0  0  0  0  0  0  0  0  0
   -1.1742    1.1546    4.2970 H   0  0  0  0  0  0  0  0  0  0  0  0
    0.9806   -1.0050    4.7023 H   0  0  0  0  0  0  0  0  0  0  0  0
    0.1336   -0.1537    5.9996 H   0  0  0  0  0  0  0  0  0  0  0  0
   -0.7593   -1.2406    4.9194 H   0  0  0  0  0  0  0  0  0  0  0  0
    0.8393    2.4942    5.1680 N   0  0  0  0  0  0  0  0  0  0  0  0
    1.8125    3.5287    5.4301 C   0  0  0  0  0  0  0  0  0  0  0  0
    0.0632    2.3984    5.8162 H   0  0  0  0  0  0  0  0  0  0  0  0
    2.6159    3.1249    6.0638 H   0  0  0  0  0  0  0  0  0  0  0  0
    2.2380    3.8812    4.4790 H   0  0  0  0  0  0  0  0  0  0  0  0
    1.3248    4.3682    5.9472 H   0  0  0  0  0  0  0  0  0  0  0  0
  1  3  1  0  0  0  0
  1  7  1  0  0  0  0
  1  2  2  0  0  0  0
 32 33  1  0  0  0  0
 33 41  1  0  0  0  0
 33 34  2  0  0  0  0
  8  9  1  0  0  0  0
  9 17  1  0  0  0  0
  9 10  2  0  0  0  0
 18 19  1  0  0  0  0
 19 31  1  0  0  0  0
 19 20  2  0  0  0  0
 32 35  1  0  0  0  0
  8 11  1  0  0  0  0
 21 23  1  0  0  0  0
 41 42  1  0  0  0  0
 31 32  1  0  0  0  0
  7  8  1  0  0  0  0
 18 21  1  0  0  0  0
 17 18  1  0  0  0  0
 21 22  1  0  0  0  0
  3  4  1  0  0  0  0
  3  5  1  0  0  0  0
  3  6  1  0  0  0  0
 35 38  1  0  0  0  0
 35 39  1  0  0  0  0
 35 40  1  0  0  0  0
 11 14  1  0  0  0  0
 11 15  1  0  0  0  0
 11 16  1  0  0  0  0
 23 28  1  0  0  0  0
 23 29  1  0  0  0  0
 23 30  1  0  0  0  0
 42 44  1  0  0  0  0
 42 45  1  0  0  0  0
 42 46  1  0  0  0  0
 32 37  1  0  0  0  0
  8 13  1  0  0  0  0
 18 25  1  0  0  0  0
 21 26  1  0  0  0  0
 41 43  1  0  0  0  0
  7 12  1  0  0  0  0
 31 36  1  0  0  0  0
 17 24  1  0  0  0  0
 22 27  1  0  0  0  0
M  END
$$$$

  -OEChem-05262214473D

 46 45  0     1  0  0  0  0  0999 V2000
   -4.6700    2.7214    1.5150 C   0  0  0  0  0  0  0  0  0  0  0  0
   -5.4532    2.5715    0.5845 O   0  0  0  0  0  0  0  0  0  0  0  0
   -5.0996    3.4865    2.7226 C   0  0  0  0  0  0  0  0  0  0  0  0
   -4.8796    4.5629    2.6387 H   0  0  0  0  0  0  0  0  0  0  0  0
   -6.1861    3.4241    2.8954 H   0  0  0  0  0  0  0  0  0  0  0  0
   -4.6369    3.1693    3.6708 H   0  0  0  0  0  0  0  0  0  0  0  0
   -3.3731    2.2391    1.5790 N   0  0  0  0  0  0  0  0  0  0  0  0
   -2.7599    1.4751    0.5247 C   0  0  2  0  0  0  0  0  0  0  0  0
   -1.5143    0.8067    1.0915 C   0  0  0  0  0  0  0  0  0  0  0  0
   -0.9247    1.2213    2.0872 O   0  0  0  0  0  0  0  0  0  0  0  0
   -2.4106    2.3553   -0.6653 C   0  0  0  0  0  0  0  0  0  0  0  0
   -2.8254    2.4352    2.4150 H   0  0  0  0  0  0  0  0  0  0  0  0
   -3.4836    0.7082    0.2278 H   0  0  0  0  0  0  0  0  0  0  0  0
   -1.6866    3.1298   -0.3871 H   0  0  0  0  0  0  0  0  0  0  0  0
   -1.9704    1.7677   -1.4777 H   0  0  0  0  0  0  0  0  0  0  0  0
   -3.3030    2.8584   -1.0531 H   0  0  0  0  0  0  0  0  0  0  0  0
   -1.1107   -0.2839    0.3303 N   0  0  0  0  0  0  0  0  0  0  0  0
    0.0490   -1.0750    0.6539 C   0  0  2  0  0  0  0  0  0  0  0  0
    0.4496   -0.7401    2.0877 C   0  0  0  0  0  0  0  0  0  0  0  0
    1.5258   -1.0751    2.5786 O   0  0  0  0  0  0  0  0  0  0  0  0
    1.2121   -0.8530   -0.3239 C   0  0  2  0  0  0  0  0  0  0  0  0
    1.6369    0.5089   -0.3022 O   0  0  0  0  0  0  0  0  0  0  0  0
    0.8333   -1.1998   -1.7587 C   0  0  0  0  0  0  0  0  0  0  0  0
   -1.6733   -0.5660   -0.4691 H   0  0  0  0  0  0  0  0  0  0  0  0
   -0.2717   -2.1234    0.6215 H   0  0  0  0  0  0  0  0  0  0  0  0
    2.0734   -1.4667   -0.0356 H   0  0  0  0  0  0  0  0  0  0  0  0
    2.3987    0.5685   -0.8986 H   0  0  0  0  0  0  0  0  0  0  0  0
   -0.0263   -0.6120   -2.0988 H   0  0  0  0  0  0  0  0  0  0  0  0
    0.5976   -2.2632   -1.8619 H   0  0  0  0  0  0  0  0  0  0  0  0
    1.6599   -0.9600   -2.4366 H   0  0  0  0  0  0  0  0  0  0  0  0
   -0.5553   -0.0673    2.7683 N   0  0  0  0  0  0  0  0  0  0  0  0
   -0.4265    0.3296    4.1507 C   0  0  2  0  0  0  0  0  0  0  0  0
    0.4311    1.5872    4.2011 C   0  0  0  0  0  0  0  0  0  0  0  0
    1.2168    1.8994    3.3087 O   0  0  0  0  0  0  0  0  0  0  0  0
    0.1866   -0.7804    4.9903 C   0  0  0  0  0  0  0  0  0  0  0  0
   -1.4149    0.1547    2.2747 H   0  0  0  0  0  0  0  0  0  0  0  0
   -1.4357    0.5605    4.5088 H   0  0  0  0  0  0  0  0  0  0  0  0
    1.1981   -1.0255    4.6463 H   0  0  0  0  0  0  0  0  0  0  0  0
    0.2573   -0.4885    6.0433 H   0  0  0  0  0  0  0  0  0  0  0  0
   -0.4156   -1.6933    4.9291 H   0  0  0  0  0  0  0  0  0  0  0  0
    0.2476    2.2972    5.3793 N   0  0  0  0  0  0  0  0  0  0  0  0
    0.9574    3.5207    5.6709 C   0  0  0  0  0  0  0  0  0  0  0  0
   -0.4385    1.9747    6.0554 H   0  0  0  0  0  0  0  0  0  0  0  0
    1.8741    3.2884    6.2329 H   0  0  0  0  0  0  0  0  0  0  0  0
    1.2224    4.0241    4.7294 H   0  0  0  0  0  0  0  0  0  0  0  0
    0.3164    4.1820    6.2725 H   0  0  0  0  0  0  0  0  0  0  0  0
  1  3  1  0  0  0  0
  1  7  1  0  0  0  0
  1  2  2  0  0  0  0
 32 33  1  0  0  0  0
 33 41  1  0  0  0  0
 33 34  2  0  0  0  0
  8  9  1  0  0  0  0
  9 17  1  0  0  0  0
  9 10  2  0  0  0  0
 18 19  1  0  0  0  0
 19 31  1  0  0  0  0
 19 20  2  0  0  0  0
 32 35  1  0  0  0  0
  8 11  1  0  0  0  0
 21 23  1  0  0  0  0
 41 42  1  0  0  0  0
 31 32  1  0  0  0  0
  7  8  1  0  0  0  0
 18 21  1  0  0  0  0
 17 18  1  0  0  0  0
 21 22  1  0  0  0  0
  3  4  1  0  0  0  0
  3  5  1  0  0  0  0
  3  6  1  0  0  0  0
 35 38  1  0  0  0  0
 35 39  1  0  0  0  0
 35 40  1  0  0  0  0
 11 14  1  0  0  0  0
 11 15  1  0  0  0  0
 11 16  1  0  0  0  0
 23 28  1  0  0  0  0
 23 29  1  0  0  0  0
 23 30  1  0  0  0  0
 42 44  1  0  0  0  0
 42 45  1  0  0  0  0
 42 46  1  0  0  0  0
 32 37  1  0  0  0  0
  8 13  1  0  0  0  0
 18 25  1  0  0  0  0
 21 26  1  0  0  0  0
 41 43  1  0  0  0  0
  7 12  1  0  0  0  0
 31 36  1  0  0  0  0
 17 24  1  0  0  0  0
 22 27  1  0  0  0  0
M  END
$$$$

  -OEChem-05262214473D

 46 45  0     1  0  0  0  0  0999 V2000
   -4.6700    2.7214    1.5150 C   0  0  0  0  0  0  0  0  0  0  0  0
   -5.4532    2.5715    0.5845 O   0  0  0  0  0  0  0  0  0  0  0  0
   -5.0996    3.4865    2.7226 C   0  0  0  0  0  0  0  0  0  0  0  0
   -4.8796    4.5629    2.6387 H   0  0  0  0  0  0  0  0  0  0  0  0
   -6.1861    3.4241    2.8954 H   0  0  0  0  0  0  0  0  0  0  0  0
   -4.6369    3.1693    3.6708 H   0  0  0  0  0  0  0  0  0  0  0  0
   -3.3731    2.2391    1.5790 N   0  0  0  0  0  0  0  0  0  0  0  0
   -2.7599    1.4751    0.5247 C   0  0  2  0  0  0  0  0  0  0  0  0
   -1.5143    0.8067    1.0915 C   0  0  0  0  0  0  0  0  0  0  0  0
   -0.9247    1.2213    2.0872 O   0  0  0  0  0  0  0  0  0  0  0  0
   -2.4106    2.3553   -0.6653 C   0  0  0  0  0  0  0  0  0  0  0  0
   -2.8254    2.4352    2.4150 H   0  0  0  0  0  0  0  0  0  0  0  0
   -3.4836    0.7082    0.2278 H   0  0  0  0  0  0  0  0  0  0  0  0
   -1.6866    3.1298   -0.3871 H   0  0  0  0  0  0  0  0  0  0  0  0
   -1.9704    1.7677   -1.4777 H   0  0  0  0  0  0  0  0  0  0  0  0
   -3.3030    2.8584   -1.0531 H   0  0  0  0  0  0  0  0  0  0  0  0
   -1.1107   -0.2839    0.3303 N   0  0  0  0  0  0  0  0  0  0  0  0
    0.0490   -1.0750    0.6539 C   0  0  2  0  0  0  0  0  0  0  0  0
    0.4496   -0.7401    2.0877 C   0  0  0  0  0  0  0  0  0  0  0  0
    1.6045   -0.8303    2.4994 O   0  0  0  0  0  0  0  0  0  0  0  0
    1.2121   -0.8530   -0.3239 C   0  0  2  0  0  0  0  0  0  0  0  0
    1.6369    0.5089   -0.3022 O   0  0  0  0  0  0  0  0  0  0  0  0
    0.8333   -1.1998   -1.7587 C   0  0  0  0  0  0  0  0  0  0  0  0
   -1.6733   -0.5660   -0.4691 H   0  0  0  0  0  0  0  0  0  0  0  0
   -0.2717   -2.1234    0.6215 H   0  0  0  0  0  0  0  0  0  0  0  0
    2.0734   -1.4667   -0.0356 H   0  0  0  0  0  0  0  0  0  0  0  0
    2.3987    0.5685   -0.8986 H   0  0  0  0  0  0  0  0  0  0  0  0
   -0.0263   -0.6120   -2.0988 H   0  0  0  0  0  0  0  0  0  0  0  0
    0.5976   -2.2632   -1.8619 H   0  0  0  0  0  0  0  0  0  0  0  0
    1.6599   -0.9600   -2.4366 H   0  0  0  0  0  0  0  0  0  0  0  0
   -0.6413   -0.3770    2.8646 N   0  0  0  0  0  0  0  0  0  0  0  0
   -0.5222   -0.0456    4.2651 C   0  0  2  0  0  0  0  0  0  0  0  0
    0.0081    1.3784    4.3680 C   0  0  0  0  0  0  0  0  0  0  0  0
    0.6353    1.9275    3.4647 O   0  0  0  0  0  0  0  0  0  0  0  0
    0.3939   -1.0204    4.9884 C   0  0  0  0  0  0  0  0  0  0  0  0
   -1.5594   -0.3429    2.4313 H   0  0  0  0  0  0  0  0  0  0  0  0
   -1.5318   -0.0914    4.6879 H   0  0  0  0  0  0  0  0  0  0  0  0
    1.4100   -0.9887    4.5785 H   0  0  0  0  0  0  0  0  0  0  0  0
    0.4606   -0.7848    6.0557 H   0  0  0  0  0  0  0  0  0  0  0  0
    0.0271   -2.0476    4.8881 H   0  0  0  0  0  0  0  0  0  0  0  0
   -0.2641    1.9486    5.6037 N   0  0  0  0  0  0  0  0  0  0  0  0
    0.1471    3.2887    5.9515 C   0  0  0  0  0  0  0  0  0  0  0  0
   -0.8065    1.4271    6.2861 H   0  0  0  0  0  0  0  0  0  0  0  0
    1.1274    3.2544    6.4495 H   0  0  0  0  0  0  0  0  0  0  0  0
    0.2208    3.8980    5.0387 H   0  0  0  0  0  0  0  0  0  0  0  0
   -0.5939    3.7347    6.6313 H   0  0  0  0  0  0  0  0  0  0  0  0
  1  3  1  0  0  0  0
  1  7  1  0  0  0  0
  1  2  2  0  0  0  0
 32 33  1  0  0  0  0
 33 41  1  0  0  0  0
 33 34  2  0  0  0  0
  8  9  1  0  0  0  0
  9 17  1  0  0  0  0
  9 10  2  0  0  0  0
 18 19  1  0  0  0  0
 19 31  1  0  0  0  0
 19 20  2  0  0  0  0
 32 35  1  0  0  0  0
  8 11  1  0  0  0  0
 21 23  1  0  0  0  0
 41 42  1  0  0  0  0
 31 32  1  0  0  0  0
  7  8  1  0  0  0  0
 18 21  1  0  0  0  0
 17 18  1  0  0  0  0
 21 22  1  0  0  0  0
  3  4  1  0  0  0  0
  3  5  1  0  0  0  0
  3  6  1  0  0  0  0
 35 38  1  0  0  0  0
 35 39  1  0  0  0  0
 35 40  1  0  0  0  0
 11 14  1  0  0  0  0
 11 15  1  0  0  0  0
 11 16  1  0  0  0  0
 23 28  1  0  0  0  0
 23 29  1  0  0  0  0
 23 30  1  0  0  0  0
 42 44  1  0  0  0  0
 42 45  1  0  0  0  0
 42 46  1  0  0  0  0
 32 37  1  0  0  0  0
  8 13  1  0  0  0  0
 18 25  1  0  0  0  0
 21 26  1  0  0  0  0
 41 43  1  0  0  0  0
  7 12  1  0  0  0  0
 31 36  1  0  0  0  0
 17 24  1  0  0  0  0
 22 27  1  0  0  0  0
M  END
$$$$

  -OEChem-05262214473D

 46 45  0     1  0  0  0  0  0999 V2000
   -4.6700    2.7214    1.5150 C   0  0  0  0  0  0  0  0  0  0  0  0
   -5.4532    2.5715    0.5845 O   0  0  0  0  0  0  0  0  0  0  0  0
   -5.0996    3.4865    2.7226 C   0  0  0  0  0  0  0  0  0  0  0  0
   -4.8796    4.5629    2.6387 H   0  0  0  0  0  0  0  0  0  0  0  0
   -6.1861    3.4241    2.8954 H   0  0  0  0  0  0  0  0  0  0  0  0
   -4.6369    3.1693    3.6708 H   0  0  0  0  0  0  0  0  0  0  0  0
   -3.3731    2.2391    1.5790 N   0  0  0  0  0  0  0  0  0  0  0  0
   -2.7599    1.4751    0.5247 C   0  0  2  0  0  0  0  0  0  0  0  0
   -1.5143    0.8067    1.0915 C   0  0  0  0  0  0  0  0  0  0  0  0
   -0.9247    1.2213    2.0872 O   0  0  0  0  0  0  0  0  0  0  0  0
   -2.4106    2.3553   -0.6653 C   0  0  0  0  0  0  0  0  0  0  0  0
   -2.8254    2.4352    2.4150 H   0  0  0  0  0  0  0  0  0  0  0  0
   -3.4836    0.7082    0.2278 H   0  0  0  0  0  0  0  0  0  0  0  0
   -1.6866    3.1298   -0.3871 H   0  0  0  0  0  0  0  0  0  0  0  0
   -1.9704    1.7677   -1.4777 H   0  0  0  0  0  0  0  0  0  0  0  0
   -3.3030    2.8584   -1.0531 H   0  0  0  0  0  0  0  0  0  0  0  0
   -1.1107   -0.2839    0.3303 N   0  0  0  0  0  0  0  0  0  0  0  0
    0.0490   -1.0750    0.6539 C   0  0  2  0  0  0  0  0  0  0  0  0
    0.4496   -0.7401    2.0877 C   0  0  0  0  0  0  0  0  0  0  0  0
    1.6164   -0.5693    2.4352 O   0  0  0  0  0  0  0  0  0  0  0  0
    1.2121   -0.8530   -0.3239 C   0  0  2  0  0  0  0  0  0  0  0  0
    1.6369    0.5089   -0.3022 O   0  0  0  0  0  0  0  0  0  0  0  0
    0.8333   -1.1998   -1.7587 C   0  0  0  0  0  0  0  0  0  0  0  0
   -1.6733   -0.5660   -0.4691 H   0  0  0  0  0  0  0  0  0  0  0  0
   -0.2717   -2.1234    0.6215 H   0  0  0  0  0  0  0  0  0  0  0  0
    2.0734   -1.4667   -0.0356 H   0  0  0  0  0  0  0  0  0  0  0  0
    2.3987    0.5685   -0.8986 H   0  0  0  0  0  0  0  0  0  0  0  0
   -0.0263   -0.6120   -2.0988 H   0  0  0  0  0  0  0  0  0  0  0  0
    0.5976   -2.2632   -1.8619 H   0  0  0  0  0  0  0  0  0  0  0  0
    1.6599   -0.9600   -2.4366 H   0  0  0  0  0  0  0  0  0  0  0  0
   -0.6437   -0.7035    2.9416 N   0  0  0  0  0  0  0  0  0  0  0  0
   -0.5170   -0.4390    4.3555 C   0  0  2  0  0  0  0  0  0  0  0  0
   -0.3403    1.0625    4.5391 C   0  0  0  0  0  0  0  0  0  0  0  0
    0.0757    1.8026    3.6502 O   0  0  0  0  0  0  0  0  0  0  0  0
    0.6525   -1.2017    4.9585 C   0  0  0  0  0  0  0  0  0  0  0  0
   -1.5691   -0.8692    2.5570 H   0  0  0  0  0  0  0  0  0  0  0  0
   -1.4558   -0.7566    4.8221 H   0  0  0  0  0  0  0  0  0  0  0  0
    1.6019   -0.8969    4.5035 H   0  0  0  0  0  0  0  0  0  0  0  0
    0.7298   -1.0225    6.0360 H   0  0  0  0  0  0  0  0  0  0  0  0
    0.5385   -2.2794    4.7994 H   0  0  0  0  0  0  0  0  0  0  0  0
   -0.6608    1.4722    5.8258 N   0  0  0  0  0  0  0  0  0  0  0  0
   -0.5632    2.8485    6.2528 C   0  0  0  0  0  0  0  0  0  0  0  0
   -1.0157    0.7931    6.4926 H   0  0  0  0  0  0  0  0  0  0  0  0
    0.4267    3.0253    6.6988 H   0  0  0  0  0  0  0  0  0  0  0  0
   -0.6984    3.5117    5.3858 H   0  0  0  0  0  0  0  0  0  0  0  0
   -1.3440    3.0569    6.9991 H   0  0  0  0  0  0  0  0  0  0  0  0
  1  3  1  0  0  0  0
  1  7  1  0  0  0  0
  1  2  2  0  0  0  0
 32 33  1  0  0  0  0
 33 41  1  0  0  0  0
 33 34  2  0  0  0  0
  8  9  1  0  0  0  0
  9 17  1  0  0  0  0
  9 10  2  0  0  0  0
 18 19  1  0  0  0  0
 19 31  1  0  0  0  0
 19 20  2  0  0  0  0
 32 35  1  0  0  0  0
  8 11  1  0  0  0  0
 21 23  1  0  0  0  0
 41 42  1  0  0  0  0
 31 32  1  0  0  0  0
  7  8  1  0  0  0  0
 18 21  1  0  0  0  0
 17 18  1  0  0  0  0
 21 22  1  0  0  0  0
  3  4  1  0  0  0  0
  3  5  1  0  0  0  0
  3  6  1  0  0  0  0
 35 38  1  0  0  0  0
 35 39  1  0  0  0  0
 35 40  1  0  0  0  0
 11 14  1  0  0  0  0
 11 15  1  0  0  0  0
 11 16  1  0  0  0  0
 23 28  1  0  0  0  0
 23 29  1  0  0  0  0
 23 30  1  0  0  0  0
 42 44  1  0  0  0  0
 42 45  1  0  0  0  0
 42 46  1  0  0  0  0
 32 37  1  0  0  0  0
  8 13  1  0  0  0  0
 18 25  1  0  0  0  0
 21 26  1  0  0  0  0
 41 43  1  0  0  0  0
  7 12  1  0  0  0  0
 31 36  1  0  0  0  0
 17 24  1  0  0  0  0
 22 27  1  0  0  0  0
M  END
$$$$

  -OEChem-05262214473D

 46 45  0     1  0  0  0  0  0999 V2000
   -4.6700    2.7214    1.5150 C   0  0  0  0  0  0  0  0  0  0  0  0
   -5.4532    2.5715    0.5845 O   0  0  0  0  0  0  0  0  0  0  0  0
   -5.0996    3.4865    2.7226 C   0  0  0  0  0  0  0  0  0  0  0  0
   -4.8796    4.5629    2.6387 H   0  0  0  0  0  0  0  0  0  0  0  0
   -6.1861    3.4241    2.8954 H   0  0  0  0  0  0  0  0  0  0  0  0
   -4.6369    3.1693    3.6708 H   0  0  0  0  0  0  0  0  0  0  0  0
   -3.3731    2.2391    1.5790 N   0  0  0  0  0  0  0  0  0  0  0  0
   -2.7599    1.4751    0.5247 C   0  0  2  0  0  0  0  0  0  0  0  0
   -1.5143    0.8067    1.0915 C   0  0  0  0  0  0  0  0  0  0  0  0
   -0.9247    1.2213    2.0872 O   0  0  0  0  0  0  0  0  0  0  0  0
   -2.4106    2.3553   -0.6653 C   0  0  0  0  0  0  0  0  0  0  0  0
   -2.8254    2.4352    2.4150 H   0  0  0  0  0  0  0  0  0  0  0  0
   -3.4836    0.7082    0.2278 H   0  0  0  0  0  0  0  0  0  0  0  0
   -1.6866    3.1298   -0.3871 H   0  0  0  0  0  0  0  0  0  0  0  0
   -1.9704    1.7677   -1.4777 H   0  0  0  0  0  0  0  0  0  0  0  0
   -3.3030    2.8584   -1.0531 H   0  0  0  0  0  0  0  0  0  0  0  0
   -1.1107   -0.2839    0.3303 N   0  0  0  0  0  0  0  0  0  0  0  0
    0.0490   -1.0750    0.6539 C   0  0  2  0  0  0  0  0  0  0  0  0
    0.4496   -0.7401    2.0877 C   0  0  0  0  0  0  0  0  0  0  0  0
    1.5609   -0.3100    2.3901 O   0  0  0  0  0  0  0  0  0  0  0  0
    1.2121   -0.8530   -0.3239 C   0  0  2  0  0  0  0  0  0  0  0  0
    1.6369    0.5089   -0.3022 O   0  0  0  0  0  0  0  0  0  0  0  0
    0.8333   -1.1998   -1.7587 C   0  0  0  0  0  0  0  0  0  0  0  0
   -1.6733   -0.5660   -0.4691 H   0  0  0  0  0  0  0  0  0  0  0  0
   -0.2717   -2.1234    0.6215 H   0  0  0  0  0  0  0  0  0  0  0  0
    2.0734   -1.4667   -0.0356 H   0  0  0  0  0  0  0  0  0  0  0  0
    2.3987    0.5685   -0.8986 H   0  0  0  0  0  0  0  0  0  0  0  0
   -0.0263   -0.6120   -2.0988 H   0  0  0  0  0  0  0  0  0  0  0  0
    0.5976   -2.2632   -1.8619 H   0  0  0  0  0  0  0  0  0  0  0  0
    1.6599   -0.9600   -2.4366 H   0  0  0  0  0  0  0  0  0  0  0  0
   -0.5621   -1.0248    2.9938 N   0  0  0  0  0  0  0  0  0  0  0  0
   -0.4110   -0.8240    4.4158 C   0  0  2  0  0  0  0  0  0  0  0  0
   -0.5902    0.6610    4.7027 C   0  0  0  0  0  0  0  0  0  0  0  0
   -0.4239    1.5333    3.8527 O   0  0  0  0  0  0  0  0  0  0  0  0
    0.9446   -1.3119    4.9026 C   0  0  0  0  0  0  0  0  0  0  0  0
   -1.4433   -1.3885    2.6431 H   0  0  0  0  0  0  0  0  0  0  0  0
   -1.2131   -1.3898    4.9021 H   0  0  0  0  0  0  0  0  0  0  0  0
    1.7607   -0.7565    4.4263 H   0  0  0  0  0  0  0  0  0  0  0  0
    1.0464   -1.1852    5.9855 H   0  0  0  0  0  0  0  0  0  0  0  0
    1.0838   -2.3729    4.6688 H   0  0  0  0  0  0  0  0  0  0  0  0
   -0.9155    0.9005    6.0305 N   0  0  0  0  0  0  0  0  0  0  0  0
   -1.1252    2.2300    6.5543 C   0  0  0  0  0  0  0  0  0  0  0  0
   -1.0519    0.1158    6.6609 H   0  0  0  0  0  0  0  0  0  0  0  0
   -0.1803    2.6166    6.9638 H   0  0  0  0  0  0  0  0  0  0  0  0
   -1.4726    2.8914    5.7470 H   0  0  0  0  0  0  0  0  0  0  0  0
   -1.8828    2.1948    7.3510 H   0  0  0  0  0  0  0  0  0  0  0  0
  1  3  1  0  0  0  0
  1  7  1  0  0  0  0
  1  2  2  0  0  0  0
 32 33  1  0  0  0  0
 33 41  1  0  0  0  0
 33 34  2  0  0  0  0
  8  9  1  0  0  0  0
  9 17  1  0  0  0  0
  9 10  2  0  0  0  0
 18 19  1  0  0  0  0
 19 31  1  0  0  0  0
 19 20  2  0  0  0  0
 32 35  1  0  0  0  0
  8 11  1  0  0  0  0
 21 23  1  0  0  0  0
 41 42  1  0  0  0  0
 31 32  1  0  0  0  0
  7  8  1  0  0  0  0
 18 21  1  0  0  0  0
 17 18  1  0  0  0  0
 21 22  1  0  0  0  0
  3  4  1  0  0  0  0
  3  5  1  0  0  0  0
  3  6  1  0  0  0  0
 35 38  1  0  0  0  0
 35 39  1  0  0  0  0
 35 40  1  0  0  0  0
 11 14  1  0  0  0  0
 11 15  1  0  0  0  0
 11 16  1  0  0  0  0
 23 28  1  0  0  0  0
 23 29  1  0  0  0  0
 23 30  1  0  0  0  0
 42 44  1  0  0  0  0
 42 45  1  0  0  0  0
 42 46  1  0  0  0  0
 32 37  1  0  0  0  0
  8 13  1  0  0  0  0
 18 25  1  0  0  0  0
 21 26  1  0  0  0  0
 41 43  1  0  0  0  0
  7 12  1  0  0  0  0
 31 36  1  0  0  0  0
 17 24  1  0  0  0  0
 22 27  1  0  0  0  0
M  END
$$$$

  -OEChem-05262214473D

 46 45  0     1  0  0  0  0  0999 V2000
   -4.6700    2.7214    1.5150 C   0  0  0  0  0  0  0  0  0  0  0  0
   -5.4532    2.5715    0.5845 O   0  0  0  0  0  0  0  0  0  0  0  0
   -5.0996    3.4865    2.7226 C   0  0  0  0  0  0  0  0  0  0  0  0
   -4.8796    4.5629    2.6387 H   0  0  0  0  0  0  0  0  0  0  0  0
   -6.1861    3.4241    2.8954 H   0  0  0  0  0  0  0  0  0  0  0  0
   -4.6369    3.1693    3.6708 H   0  0  0  0  0  0  0  0  0  0  0  0
   -3.3731    2.2391    1.5790 N   0  0  0  0  0  0  0  0  0  0  0  0
   -2.7599    1.4751    0.5247 C   0  0  2  0  0  0  0  0  0  0  0  0
   -1.5143    0.8067    1.0915 C   0  0  0  0  0  0  0  0  0  0  0  0
   -0.9247    1.2213    2.0872 O   0  0  0  0  0  0  0  0  0  0  0  0
   -2.4106    2.3553   -0.6653 C   0  0  0  0  0  0  0  0  0  0  0  0
   -2.8254    2.4352    2.4150 H   0  0  0  0  0  0  0  0  0  0  0  0
   -3.4836    0.7082    0.2278 H   0  0  0  0  0  0  0  0  0  0  0  0
   -1.6866    3.1298   -0.3871 H   0  0  0  0  0  0  0  0  0  0  0  0
   -1.9704    1.7677   -1.4777 H   0  0  0  0  0  0  0  0  0  0  0  0
   -3.3030    2.8584   -1.0531 H   0  0  0  0  0  0  0  0  0  0  0  0
   -1.1107   -0.2839    0.3303 N   0  0  0  0  0  0  0  0  0  0  0  0
    0.0490   -1.0750    0.6539 C   0  0  2  0  0  0  0  0  0  0  0  0
    0.4496   -0.7401    2.0877 C   0  0  0  0  0  0  0  0  0  0  0  0
    1.4416   -0.0699    2.3674 O   0  0  0  0  0  0  0  0  0  0  0  0
    1.2121   -0.8530   -0.3239 C   0  0  2  0  0  0  0  0  0  0  0  0
    1.6369    0.5089   -0.3022 O   0  0  0  0  0  0  0  0  0  0  0  0
    0.8333   -1.1998   -1.7587 C   0  0  0  0  0  0  0  0  0  0  0  0
   -1.6733   -0.5660   -0.4691 H   0  0  0  0  0  0  0  0  0  0  0  0
   -0.2717   -2.1234    0.6215 H   0  0  0  0  0  0  0  0  0  0  0  0
    2.0734   -1.4667   -0.0356 H   0  0  0  0  0  0  0  0  0  0  0  0
    2.3987    0.5685   -0.8986 H   0  0  0  0  0  0  0  0  0  0  0  0
   -0.0263   -0.6120   -2.0988 H   0  0  0  0  0  0  0  0  0  0  0  0
    0.5976   -2.2632   -1.8619 H   0  0  0  0  0  0  0  0  0  0  0  0
    1.6599   -0.9600   -2.4366 H   0  0  0  0  0  0  0  0  0  0  0  0
   -0.4023   -1.3188    3.0178 N   0  0  0  0  0  0  0  0  0  0  0  0
   -0.2117   -1.1741    4.4419 C   0  0  2  0  0  0  0  0  0  0  0  0
   -0.7247    0.2013    4.8477 C   0  0  0  0  0  0  0  0  0  0  0  0
   -0.8296    1.1378    4.0584 O   0  0  0  0  0  0  0  0  0  0  0  0
    1.2503   -1.3435    4.8246 C   0  0  0  0  0  0  0  0  0  0  0  0
   -1.1907   -1.8654    2.6839 H   0  0  0  0  0  0  0  0  0  0  0  0
   -0.8201   -1.9479    4.9227 H   0  0  0  0  0  0  0  0  0  0  0  0
    1.8756   -0.5770    4.3523 H   0  0  0  0  0  0  0  0  0  0  0  0
    1.3890   -1.2619    5.9077 H   0  0  0  0  0  0  0  0  0  0  0  0
    1.6259   -2.3218    4.5054 H   0  0  0  0  0  0  0  0  0  0  0  0
   -1.0109    0.2723    6.2039 N   0  0  0  0  0  0  0  0  0  0  0  0
   -1.5005    1.4755    6.8354 C   0  0  0  0  0  0  0  0  0  0  0  0
   -0.9125   -0.5587    6.7795 H   0  0  0  0  0  0  0  0  0  0  0  0
   -0.6521    2.0562    7.2265 H   0  0  0  0  0  0  0  0  0  0  0  0
   -2.0490    2.0795    6.0977 H   0  0  0  0  0  0  0  0  0  0  0  0
   -2.1736    1.2072    7.6630 H   0  0  0  0  0  0  0  0  0  0  0  0
  1  3  1  0  0  0  0
  1  7  1  0  0  0  0
  1  2  2  0  0  0  0
 32 33  1  0  0  0  0
 33 41  1  0  0  0  0
 33 34  2  0  0  0  0
  8  9  1  0  0  0  0
  9 17  1  0  0  0  0
  9 10  2  0  0  0  0
 18 19  1  0  0  0  0
 19 31  1  0  0  0  0
 19 20  2  0  0  0  0
 32 35  1  0  0  0  0
  8 11  1  0  0  0  0
 21 23  1  0  0  0  0
 41 42  1  0  0  0  0
 31 32  1  0  0  0  0
  7  8  1  0  0  0  0
 18 21  1  0  0  0  0
 17 18  1  0  0  0  0
 21 22  1  0  0  0  0
  3  4  1  0  0  0  0
  3  5  1  0  0  0  0
  3  6  1  0  0  0  0
 35 38  1  0  0  0  0
 35 39  1  0  0  0  0
 35 40  1  0  0  0  0
 11 14  1  0  0  0  0
 11 15  1  0  0  0  0
 11 16  1  0  0  0  0
 23 28  1  0  0  0  0
 23 29  1  0  0  0  0
 23 30  1  0  0  0  0
 42 44  1  0  0  0  0
 42 45  1  0  0  0  0
 42 46  1  0  0  0  0
 32 37  1  0  0  0  0
  8 13  1  0  0  0  0
 18 25  1  0  0  0  0
 21 26  1  0  0  0  0
 41 43  1  0  0  0  0
  7 12  1  0  0  0  0
 31 36  1  0  0  0  0
 17 24  1  0  0  0  0
 22 27  1  0  0  0  0
M  END
$$$$

  -OEChem-05262214473D

 46 45  0     1  0  0  0  0  0999 V2000
   -4.6700    2.7214    1.5150 C   0  0  0  0  0  0  0  0  0  0  0  0
   -5.4532    2.5715    0.5845 O   0  0  0  0  0  0  0  0  0  0  0  0
   -5.0996    3.4865    2.7226 C   0  0  0  0  0  0  0  0  0  0  0  0
   -4.8796    4.5629    2.6387 H   0  0  0  0  0  0  0  0  0  0  0  0
   -6.1861    3.4241    2.8954 H   0  0  0  0  0  0  0  0  0  0  0  0
   -4.6369    3.1693    3.6708 H   0  0  0  0  0  0  0  0  0  0  0  0
   -3.3731    2.2391    1.5790 N   0  0  0  0  0  0  0  0  0  0  0  0
   -2.7599    1.4751    0.5247 C   0  0  2  0  0  0  0  0  0  0  0  0
   -1.5143    0.8067    1.0915 C   0  0  0  0  0  0  0  0  0  0  0  0
   -0.9247    1.2213    2.0872 O   0  0  0  0  0  0  0  0  0  0  0  0
   -2.4106    2.3553   -0.6653 C   0  0  0  0  0  0  0  0  0  0  0  0
   -2.8254    2.4352    2.4150 H   0  0  0  0  0  0  0  0  0  0  0  0
   -3.4836    0.7082    0.2278 H   0  0  0  0  0  0  0  0  0  0  0  0
   -1.6866    3.1298   -0.3871 H   0  0  0  0  0  0  0  0  0  0  0  0
   -1.9704    1.7677   -1.4777 H   0  0  0  0  0  0  0  0  0  0  0  0
   -3.3030    2.8584   -1.0531 H   0  0  0  0  0  0  0  0  0  0  0  0
   -1.1107   -0.2839    0.3303 N   0  0  0  0  0  0  0  0  0  0  0  0
    0.0490   -1.0750    0.6539 C   0  0  2  0  0  0  0  0  0  0  0  0
    0.4496   -0.7401    2.0877 C   0  0  0  0  0  0  0  0  0  0  0  0
    1.2666    0.1345    2.3685 O   0  0  0  0  0  0  0  0  0  0  0  0
    1.2121   -0.8530   -0.3239 C   0  0  2  0  0  0  0  0  0  0  0  0
    1.6369    0.5089   -0.3022 O   0  0  0  0  0  0  0  0  0  0  0  0
    0.8333   -1.1998   -1.7587 C   0  0  0  0  0  0  0  0  0  0  0  0
   -1.6733   -0.5660   -0.4691 H   0  0  0  0  0  0  0  0  0  0  0  0
   -0.2717   -2.1234    0.6215 H   0  0  0  0  0  0  0  0  0  0  0  0
    2.0734   -1.4667   -0.0356 H   0  0  0  0  0  0  0  0  0  0  0  0
    2.3987    0.5685   -0.8986 H   0  0  0  0  0  0  0  0  0  0  0  0
   -0.0263   -0.6120   -2.0988 H   0  0  0  0  0  0  0  0  0  0  0  0
    0.5976   -2.2632   -1.8619 H   0  0  0  0  0  0  0  0  0  0  0  0
    1.6599   -0.9600   -2.4366 H   0  0  0  0  0  0  0  0  0  0  0  0
   -0.1750   -1.5655    3.0119 N   0  0  0  0  0  0  0  0  0  0  0  0
    0.0674   -1.4656    4.4320 C   0  0  2  0  0  0  0  0  0  0  0  0
   -0.7346   -0.2853    4.9641 C   0  0  0  0  0  0  0  0  0  0  0  0
   -1.1135    0.6433    4.2532 O   0  0  0  0  0  0  0  0  0  0  0  0
    1.5489   -1.2944    4.7297 C   0  0  0  0  0  0  0  0  0  0  0  0
   -0.8283   -2.2674    2.6765 H   0  0  0  0  0  0  0  0  0  0  0  0
   -0.3036   -2.3927    4.8822 H   0  0  0  0  0  0  0  0  0  0  0  0
    1.9386   -0.3707    4.2865 H   0  0  0  0  0  0  0  0  0  0  0  0
    1.7342   -1.2474    5.8079 H   0  0  0  0  0  0  0  0  0  0  0  0
    2.1277   -2.1294    4.3203 H   0  0  0  0  0  0  0  0  0  0  0  0
   -0.9404   -0.3693    6.3340 N   0  0  0  0  0  0  0  0  0  0  0  0
   -1.6635    0.6363    7.0769 C   0  0  0  0  0  0  0  0  0  0  0  0
   -0.6071   -1.1844    6.8403 H   0  0  0  0  0  0  0  0  0  0  0  0
   -0.9566    1.3823    7.4690 H   0  0  0  0  0  0  0  0  0  0  0  0
   -2.3885    1.1311    6.4140 H   0  0  0  0  0  0  0  0  0  0  0  0
   -2.1966    0.1612    7.9137 H   0  0  0  0  0  0  0  0  0  0  0  0
  1  3  1  0  0  0  0
  1  7  1  0  0  0  0
  1  2  2  0  0  0  0
 32 33  1  0  0  0  0
 33 41  1  0  0  0  0
 33 34  2  0  0  0  0
  8  9  1  0  0  0  0
  9 17  1  0  0  0  0
  9 10  2  0  0  0  0
 18 19  1  0  0  0  0
 19 31  1  0  0  0  0
 19 20  2  0  0  0  0
 32 35  1  0  0  0  0
  8 11  1  0  0  0  0
 21 23  1  0  0  0  0
 41 42  1  0  0  0  0
 31 32  1  0  0  0  0
  7  8  1  0  0  0  0
 18 21  1  0  0  0  0
 17 18  1  0  0  0  0
 21 22  1  0  0  0  0
  3  4  1  0  0  0  0
  3  5  1  0  0  0  0
  3  6  1  0  0  0  0
 35 38  1  0  0  0  0
 35 39  1  0  0  0  0
 35 40  1  0  0  0  0
 11 14  1  0  0  0  0
 11 15  1  0  0  0  0
 11 16  1  0  0  0  0
 23 28  1  0  0  0  0
 23 29  1  0  0  0  0
 23 30  1  0  0  0  0
 42 44  1  0  0  0  0
 42 45  1  0  0  0  0
 42 46  1  0  0  0  0
 32 37  1  0  0  0  0
  8 13  1  0  0  0  0
 18 25  1  0  0  0  0
 21 26  1  0  0  0  0
 41 43  1  0  0  0  0
  7 12  1  0  0  0  0
 31 36  1  0  0  0  0
 17 24  1  0  0  0  0
 22 27  1  0  0  0  0
M  END
$$$$

  -OEChem-05262214473D

 46 45  0     1  0  0  0  0  0999 V2000
   -4.6700    2.7214    1.5150 C   0  0  0  0  0  0  0  0  0  0  0  0
   -5.4532    2.5715    0.5845 O   0  0  0  0  0  0  0  0  0  0  0  0
   -5.0996    3.4865    2.7226 C   0  0  0  0  0  0  0  0  0  0  0  0
   -4.8796    4.5629    2.6387 H   0  0  0  0  0  0  0  0  0  0  0  0
   -6.1861    3.4241    2.8954 H   0  0  0  0  0  0  0  0  0  0  0  0
   -4.6369    3.1693    3.6708 H   0  0  0  0  0  0  0  0  0  0  0  0
   -3.3731    2.2391    1.5790 N   0  0  0  0  0  0  0  0  0  0  0  0
   -2.7599    1.4751    0.5247 C   0  0  2  0  0  0  0  0  0  0  0  0
   -1.5143    0.8067    1.0915 C   0  0  0  0  0  0  0  0  0  0  0  0
   -0.9247    1.2213    2.0872 O   0  0  0  0  0  0  0  0  0  0  0  0
   -2.4106    2.3553   -0.6653 C   0  0  0  0  0  0  0  0  0  0  0  0
   -2.8254    2.4352    2.4150 H   0  0  0  0  0  0  0  0  0  0  0  0
   -3.4836    0.7082    0.2278 H   0  0  0  0  0  0  0  0  0  0  0  0
   -1.6866    3.1298   -0.3871 H   0  0  0  0  0  0  0  0  0  0  0  0
   -1.9704    1.7677   -1.4777 H   0  0  0  0  0  0  0  0  0  0  0  0
   -3.3030    2.8584   -1.0531 H   0  0  0  0  0  0  0  0  0  0  0  0
   -1.1107   -0.2839    0.3303 N   0  0  0  0  0  0  0  0  0  0  0  0
    0.0490   -1.0750    0.6539 C   0  0  2  0  0  0  0  0  0  0  0  0
    0.4496   -0.7401    2.0877 C   0  0  0  0  0  0  0  0  0  0  0  0
    1.0480    0.2893    2.3934 O   0  0  0  0  0  0  0  0  0  0  0  0
    1.2121   -0.8530   -0.3239 C   0  0  2  0  0  0  0  0  0  0  0  0
    1.6369    0.5089   -0.3022 O   0  0  0  0  0  0  0  0  0  0  0  0
    0.8333   -1.1998   -1.7587 C   0  0  0  0  0  0  0  0  0  0  0  0
   -1.6733   -0.5660   -0.4691 H   0  0  0  0  0  0  0  0  0  0  0  0
   -0.2717   -2.1234    0.6215 H   0  0  0  0  0  0  0  0  0  0  0  0
    2.0734   -1.4667   -0.0356 H   0  0  0  0  0  0  0  0  0  0  0  0
    2.3987    0.5685   -0.8986 H   0  0  0  0  0  0  0  0  0  0  0  0
   -0.0263   -0.6120   -2.0988 H   0  0  0  0  0  0  0  0  0  0  0  0
    0.5976   -2.2632   -1.8619 H   0  0  0  0  0  0  0  0  0  0  0  0
    1.6599   -0.9600   -2.4366 H   0  0  0  0  0  0  0  0  0  0  0  0
    0.1042   -1.7482    2.9766 N   0  0  0  0  0  0  0  0  0  0  0  0
    0.4074   -1.6786    4.3867 C   0  0  2  0  0  0  0  0  0  0  0  0
   -0.6192   -0.7656    5.0440 C   0  0  0  0  0  0  0  0  0  0  0  0
   -1.2564    0.0832    4.4240 O   0  0  0  0  0  0  0  0  0  0  0  0
    1.8200   -1.1679    4.6244 C   0  0  0  0  0  0  0  0  0  0  0  0
   -0.3809   -2.5670    2.6215 H   0  0  0  0  0  0  0  0  0  0  0  0
    0.3011   -2.6941    4.7836 H   0  0  0  0  0  0  0  0  0  0  0  0
    1.9457   -0.1516    4.2333 H   0  0  0  0  0  0  0  0  0  0  0  0
    2.0584   -1.1427    5.6928 H   0  0  0  0  0  0  0  0  0  0  0  0
    2.5552   -1.8090    4.1260 H   0  0  0  0  0  0  0  0  0  0  0  0
   -0.7089   -0.9808    6.4122 N   0  0  0  0  0  0  0  0  0  0  0  0
   -1.6032   -0.2304    7.2625 C   0  0  0  0  0  0  0  0  0  0  0  0
   -0.1565   -1.7186    6.8392 H   0  0  0  0  0  0  0  0  0  0  0  0
   -1.0731    0.6409    7.6747 H   0  0  0  0  0  0  0  0  0  0  0  0
   -2.4678    0.1111    6.6744 H   0  0  0  0  0  0  0  0  0  0  0  0
   -1.9502   -0.8717    8.0861 H   0  0  0  0  0  0  0  0  0  0  0  0
  1  3  1  0  0  0  0
  1  7  1  0  0  0  0
  1  2  2  0  0  0  0
 32 33  1  0  0  0  0
 33 41  1  0  0  0  0
 33 34  2  0  0  0  0
  8  9  1  0  0  0  0
  9 17  1  0  0  0  0
  9 10  2  0  0  0  0
 18 19  1  0  0  0  0
 19 31  1  0  0  0  0
 19 20  2  0  0  0  0
 32 35  1  0  0  0  0
  8 11  1  0  0  0  0
 21 23  1  0  0  0  0
 41 42  1  0  0  0  0
 31 32  1  0  0  0  0
  7  8  1  0  0  0  0
 18 21  1  0  0  0  0
 17 18  1  0  0  0  0
 21 22  1  0  0  0  0
  3  4  1  0  0  0  0
  3  5  1  0  0  0  0
  3  6  1  0  0  0  0
 35 38  1  0  0  0  0
 35 39  1  0  0  0  0
 35 40  1  0  0  0  0
 11 14  1  0  0  0  0
 11 15  1  0  0  0  0
 11 16  1  0  0  0  0
 23 28  1  0  0  0  0
 23 29  1  0  0  0  0
 23 30  1  0  0  0  0
 42 44  1  0  0  0  0
 42 45  1  0  0  0  0
 42 46  1  0  0  0  0
 32 37  1  0  0  0  0
  8 13  1  0  0  0  0
 18 25  1  0  0  0  0
 21 26  1  0  0  0  0
 41 43  1  0  0  0  0
  7 12  1  0  0  0  0
 31 36  1  0  0  0  0
 17 24  1  0  0  0  0
 22 27  1  0  0  0  0
M  END
$$$$

  -OEChem-05262214473D

 46 45  0     1  0  0  0  0  0999 V2000
   -4.6700    2.7214    1.5150 C   0  0  0  0  0  0  0  0  0  0  0  0
   -5.4532    2.5715    0.5845 O   0  0  0  0  0  0  0  0  0  0  0  0
   -5.0996    3.4865    2.7226 C   0  0  0  0  0  0  0  0  0  0  0  0
   -4.8796    4.5629    2.6387 H   0  0  0  0  0  0  0  0  0  0  0  0
   -6.1861    3.4241    2.8954 H   0  0  0  0  0  0  0  0  0  0  0  0
   -4.6369    3.1693    3.6708 H   0  0  0  0  0  0  0  0  0  0  0  0
   -3.3731    2.2391    1.5790 N   0  0  0  0  0  0  0  0  0  0  0  0
   -2.7599    1.4751    0.5247 C   0  0  2  0  0  0  0  0  0  0  0  0
   -1.5143    0.8067    1.0915 C   0  0  0  0  0  0  0  0  0  0  0  0
   -0.9247    1.2213    2.0872 O   0  0  0  0  0  0  0  0  0  0  0  0
   -2.4106    2.3553   -0.6653 C   0  0  0  0  0  0  0  0  0  0  0  0
   -2.8254    2.4352    2.4150 H   0  0  0  0  0  0  0  0  0  0  0  0
   -3.4836    0.7082    0.2278 H   0  0  0  0  0  0  0  0  0  0  0  0
   -1.6866    3.1298   -0.3871 H   0  0  0  0  0  0  0  0  0  0  0  0
   -1.9704    1.7677   -1.4777 H   0  0  0  0  0  0  0  0  0  0  0  0
   -3.3030    2.8584   -1.0531 H   0  0  0  0  0  0  0  0  0  0  0  0
   -1.1107   -0.2839    0.3303 N   0  0  0  0  0  0  0  0  0  0  0  0
    0.0490   -1.0750    0.6539 C   0  0  2  0  0  0  0  0  0  0  0  0
    0.4496   -0.7401    2.0877 C   0  0  0  0  0  0  0  0  0  0  0  0
    0.8007    0.3840    2.4404 O   0  0  0  0  0  0  0  0  0  0  0  0
    1.2121   -0.8530   -0.3239 C   0  0  2  0  0  0  0  0  0  0  0  0
    1.6369    0.5089   -0.3022 O   0  0  0  0  0  0  0  0  0  0  0  0
    0.8333   -1.1998   -1.7587 C   0  0  0  0  0  0  0  0  0  0  0  0
   -1.6733   -0.5660   -0.4691 H   0  0  0  0  0  0  0  0  0  0  0  0
   -0.2717   -2.1234    0.6215 H   0  0  0  0  0  0  0  0  0  0  0  0
    2.0734   -1.4667   -0.0356 H   0  0  0  0  0  0  0  0  0  0  0  0
    2.3987    0.5685   -0.8986 H   0  0  0  0  0  0  0  0  0  0  0  0
   -0.0263   -0.6120   -2.0988 H   0  0  0  0  0  0  0  0  0  0  0  0
    0.5976   -2.2632   -1.8619 H   0  0  0  0  0  0  0  0  0  0  0  0
    1.6599   -0.9600   -2.4366 H   0  0  0  0  0  0  0  0  0  0  0  0
    0.4163   -1.8544    2.9142 N   0  0  0  0  0  0  0  0  0  0  0  0
    0.7851   -1.7986    4.3093 C   0  0  2  0  0  0  0  0  0  0  0  0
   -0.3864   -1.2069    5.0821 C   0  0  0  0  0  0  0  0  0  0  0  0
   -1.2486   -0.5041    4.5590 O   0  0  0  0  0  0  0  0  0  0  0  0
    2.0452   -0.9726    4.5158 C   0  0  0  0  0  0  0  0  0  0  0  0
    0.1209   -2.7439    2.5226 H   0  0  0  0  0  0  0  0  0  0  0  0
    0.9530   -2.8313    4.6336 H   0  0  0  0  0  0  0  0  0  0  0  0
    1.8961    0.0653    4.1965 H   0  0  0  0  0  0  0  0  0  0  0  0
    2.3395   -0.9549    5.5704 H   0  0  0  0  0  0  0  0  0  0  0  0
    2.8791   -1.3823    3.9358 H   0  0  0  0  0  0  0  0  0  0  0  0
   -0.3321   -1.5205    6.4329 N   0  0  0  0  0  0  0  0  0  0  0  0
   -1.3236   -1.0655    7.3794 C   0  0  0  0  0  0  0  0  0  0  0  0
    0.4086   -2.1250    6.7762 H   0  0  0  0  0  0  0  0  0  0  0  0
   -0.9936   -0.1176    7.8297 H   0  0  0  0  0  0  0  0  0  0  0  0
   -2.2815   -0.9112    6.8611 H   0  0  0  0  0  0  0  0  0  0  0  0
   -1.4512   -1.8212    8.1684 H   0  0  0  0  0  0  0  0  0  0  0  0
  1  3  1  0  0  0  0
  1  7  1  0  0  0  0
  1  2  2  0  0  0  0
 32 33  1  0  0  0  0
 33 41  1  0  0  0  0
 33 34  2  0  0  0  0
  8  9  1  0  0  0  0
  9 17  1  0  0  0  0
  9 10  2  0  0  0  0
 18 19  1  0  0  0  0
 19 31  1  0  0  0  0
 19 20  2  0  0  0  0
 32 35  1  0  0  0  0
  8 11  1  0  0  0  0
 21 23  1  0  0  0  0
 41 42  1  0  0  0  0
 31 32  1  0  0  0  0
  7  8  1  0  0  0  0
 18 21  1  0  0  0  0
 17 18  1  0  0  0  0
 21 22  1  0  0  0  0
  3  4  1  0  0  0  0
  3  5  1  0  0  0  0
  3  6  1  0  0  0  0
 35 38  1  0  0  0  0
 35 39  1  0  0  0  0
 35 40  1  0  0  0  0
 11 14  1  0  0  0  0
 11 15  1  0  0  0  0
 11 16  1  0  0  0  0
 23 28  1  0  0  0  0
 23 29  1  0  0  0  0
 23 30  1  0  0  0  0
 42 44  1  0  0  0  0
 42 45  1  0  0  0  0
 42 46  1  0  0  0  0
 32 37  1  0  0  0  0
  8 13  1  0  0  0  0
 18 25  1  0  0  0  0
 21 26  1  0  0  0  0
 41 43  1  0  0  0  0
  7 12  1  0  0  0  0
 31 36  1  0  0  0  0
 17 24  1  0  0  0  0
 22 27  1  0  0  0  0
M  END
$$$$

  -OEChem-05262214473D

 46 45  0     1  0  0  0  0  0999 V2000
   -4.6700    2.7214    1.5150 C   0  0  0  0  0  0  0  0  0  0  0  0
   -5.4532    2.5715    0.5845 O   0  0  0  0  0  0  0  0  0  0  0  0
   -5.0996    3.4865    2.7226 C   0  0  0  0  0  0  0  0  0  0  0  0
   -4.8796    4.5629    2.6387 H   0  0  0  0  0  0  0  0  0  0  0  0
   -6.1861    3.4241    2.8954 H   0  0  0  0  0  0  0  0  0  0  0  0
   -4.6369    3.1693    3.6708 H   0  0  0  0  0  0  0  0  0  0  0  0
   -3.3731    2.2391    1.5790 N   0  0  0  0  0  0  0  0  0  0  0  0
   -2.7599    1.4751    0.5247 C   0  0  2  0  0  0  0  0  0  0  0  0
   -1.5143    0.8067    1.0915 C   0  0  0  0  0  0  0  0  0  0  0  0
   -0.9247    1.2213    2.0872 O   0  0  0  0  0  0  0  0  0  0  0  0
   -2.4106    2.3553   -0.6653 C   0  0  0  0  0  0  0  0  0  0  0  0
   -2.8254    2.4352    2.4150 H   0  0  0  0  0  0  0  0  0  0  0  0
   -3.4836    0.7082    0.2278 H   0  0  0  0  0  0  0  0  0  0  0  0
   -1.6866    3.1298   -0.3871 H   0  0  0  0  0  0  0  0  0  0  0  0
   -1.9704    1.7677   -1.4777 H   0  0  0  0  0  0  0  0  0  0  0  0
   -3.3030    2.8584   -1.0531 H   0  0  0  0  0  0  0  0  0  0  0  0
   -1.1107   -0.2839    0.3303 N   0  0  0  0  0  0  0  0  0  0  0  0
    0.0490   -1.0750    0.6539 C   0  0  2  0  0  0  0  0  0  0  0  0
    0.4496   -0.7401    2.0877 C   0  0  0  0  0  0  0  0  0  0  0  0
    0.5414    0.4121    2.5063 O   0  0  0  0  0  0  0  0  0  0  0  0
    1.2121   -0.8530   -0.3239 C   0  0  2  0  0  0  0  0  0  0  0  0
    1.6369    0.5089   -0.3022 O   0  0  0  0  0  0  0  0  0  0  0  0
    0.8333   -1.1998   -1.7587 C   0  0  0  0  0  0  0  0  0  0  0  0
   -1.6733   -0.5660   -0.4691 H   0  0  0  0  0  0  0  0  0  0  0  0
   -0.2717   -2.1234    0.6215 H   0  0  0  0  0  0  0  0  0  0  0  0
    2.0734   -1.4667   -0.0356 H   0  0  0  0  0  0  0  0  0  0  0  0
    2.3987    0.5685   -0.8986 H   0  0  0  0  0  0  0  0  0  0  0  0
   -0.0263   -0.6120   -2.0988 H   0  0  0  0  0  0  0  0  0  0  0  0
    0.5976   -2.2632   -1.8619 H   0  0  0  0  0  0  0  0  0  0  0  0
    1.6599   -0.9600   -2.4366 H   0  0  0  0  0  0  0  0  0  0  0  0
    0.7400   -1.8768    2.8290 N   0  0  0  0  0  0  0  0  0  0  0  0
    1.1746   -1.8173    4.2048 C   0  0  2  0  0  0  0  0  0  0  0  0
   -0.0520   -1.5792    5.0756 C   0  0  0  0  0  0  0  0  0  0  0  0
   -1.0905   -1.0786    4.6490 O   0  0  0  0  0  0  0  0  0  0  0  0
    2.2089   -0.7219    4.4115 C   0  0  0  0  0  0  0  0  0  0  0  0
    0.6431   -2.7860    2.3865 H   0  0  0  0  0  0  0  0  0  0  0  0
    1.6075   -2.7952    4.4423 H   0  0  0  0  0  0  0  0  0  0  0  0
    1.7934    0.2653    4.1785 H   0  0  0  0  0  0  0  0  0  0  0  0
    2.5585   -0.6968    5.4489 H   0  0  0  0  0  0  0  0  0  0  0  0
    3.0775   -0.8785    3.7627 H   0  0  0  0  0  0  0  0  0  0  0  0
    0.1643   -1.9516    6.3949 N   0  0  0  0  0  0  0  0  0  0  0  0
   -0.8438   -1.8120    7.4197 C   0  0  0  0  0  0  0  0  0  0  0  0
    1.0497   -2.3758    6.6557 H   0  0  0  0  0  0  0  0  0  0  0  0
   -0.7236   -0.8415    7.9233 H   0  0  0  0  0  0  0  0  0  0  0  0
   -1.8423   -1.8660    6.9614 H   0  0  0  0  0  0  0  0  0  0  0  0
   -0.7336   -2.6226    8.1551 H   0  0  0  0  0  0  0  0  0  0  0  0
  1  3  1  0  0  0  0
  1  7  1  0  0  0  0
  1  2  2  0  0  0  0
 32 33  1  0  0  0  0
 33 41  1  0  0  0  0
 33 34  2  0  0  0  0
  8  9  1  0  0  0  0
  9 17  1  0  0  0  0
  9 10  2  0  0  0  0
 18 19  1  0  0  0  0
 19 31  1  0  0  0  0
 19 20  2  0  0  0  0
 32 35  1  0  0  0  0
  8 11  1  0  0  0  0
 21 23  1  0  0  0  0
 41 42  1  0  0  0  0
 31 32  1  0  0  0  0
  7  8  1  0  0  0  0
 18 21  1  0  0  0  0
 17 18  1  0  0  0  0
 21 22  1  0  0  0  0
  3  4  1  0  0  0  0
  3  5  1  0  0  0  0
  3  6  1  0  0  0  0
 35 38  1  0  0  0  0
 35 39  1  0  0  0  0
 35 40  1  0  0  0  0
 11 14  1  0  0  0  0
 11 15  1  0  0  0  0
 11 16  1  0  0  0  0
 23 28  1  0  0  0  0
 23 29  1  0  0  0  0
 23 30  1  0  0  0  0
 42 44  1  0  0  0  0
 42 45  1  0  0  0  0
 42 46  1  0  0  0  0
 32 37  1  0  0  0  0
  8 13  1  0  0  0  0
 18 25  1  0  0  0  0
 21 26  1  0  0  0  0
 41 43  1  0  0  0  0
  7 12  1  0  0  0  0
 31 36  1  0  0  0  0
 17 24  1  0  0  0  0
 22 27  1  0  0  0  0
M  END
$$$$

  -OEChem-05262214473D

 46 45  0     1  0  0  0  0  0999 V2000
   -4.6700    2.7214    1.5150 C   0  0  0  0  0  0  0  0  0  0  0  0
   -5.4532    2.5715    0.5845 O   0  0  0  0  0  0  0  0  0  0  0  0
   -5.0996    3.4865    2.7226 C   0  0  0  0  0  0  0  0  0  0  0  0
   -4.8796    4.5629    2.6387 H   0  0  0  0  0  0  0  0  0  0  0  0
   -6.1861    3.4241    2.8954 H   0  0  0  0  0  0  0  0  0  0  0  0
   -4.6369    3.1693    3.6708 H   0  0  0  0  0  0  0  0  0  0  0  0
   -3.3731    2.2391    1.5790 N   0  0  0  0  0  0  0  0  0  0  0  0
   -2.7599    1.4751    0.5247 C   0  0  2  0  0  0  0  0  0  0  0  0
   -1.5143    0.8067    1.0915 C   0  0  0  0  0  0  0  0  0  0  0  0
   -0.9247    1.2213    2.0872 O   0  0  0  0  0  0  0  0  0  0  0  0
   -2.4106    2.3553   -0.6653 C   0  0  0  0  0  0  0  0  0  0  0  0
   -2.8254    2.4352    2.4150 H   0  0  0  0  0  0  0  0  0  0  0  0
   -3.4836    0.7082    0.2278 H   0  0  0  0  0  0  0  0  0  0  0  0
   -1.6866    3.1298   -0.3871 H   0  0  0  0  0  0  0  0  0  0  0  0
   -1.9704    1.7677   -1.4777 H   0  0  0  0  0  0  0  0  0  0  0  0
   -3.3030    2.8584   -1.0531 H   0  0  0  0  0  0  0  0  0  0  0  0
   -1.1107   -0.2839    0.3303 N   0  0  0  0  0  0  0  0  0  0  0  0
    0.0490   -1.0750    0.6539 C   0  0  2  0  0  0  0  0  0  0  0  0
    0.4496   -0.7401    2.0877 C   0  0  0  0  0  0  0  0  0  0  0  0
    0.2878    0.3717    2.5866 O   0  0  0  0  0  0  0  0  0  0  0  0
    1.2121   -0.8530   -0.3239 C   0  0  2  0  0  0  0  0  0  0  0  0
    1.6369    0.5089   -0.3022 O   0  0  0  0  0  0  0  0  0  0  0  0
    0.8333   -1.1998   -1.7587 C   0  0  0  0  0  0  0  0  0  0  0  0
   -1.6733   -0.5660   -0.4691 H   0  0  0  0  0  0  0  0  0  0  0  0
   -0.2717   -2.1234    0.6215 H   0  0  0  0  0  0  0  0  0  0  0  0
    2.0734   -1.4667   -0.0356 H   0  0  0  0  0  0  0  0  0  0  0  0
    2.3987    0.5685   -0.8986 H   0  0  0  0  0  0  0  0  0  0  0  0
   -0.0263   -0.6120   -2.0988 H   0  0  0  0  0  0  0  0  0  0  0  0
    0.5976   -2.2632   -1.8619 H   0  0  0  0  0  0  0  0  0  0  0  0
    1.6599   -0.9600   -2.4366 H   0  0  0  0  0  0  0  0  0  0  0  0
    1.0533   -1.8139    2.7267 N   0  0  0  0  0  0  0  0  0  0  0  0
    1.5495   -1.7337    4.0805 C   0  0  2  0  0  0  0  0  0  0  0  0
    0.3611   -1.8570    5.0250 C   0  0  0  0  0  0  0  0  0  0  0  0
   -0.7930   -1.6013    4.6879 O   0  0  0  0  0  0  0  0  0  0  0  0
    2.3002   -0.4327    4.3185 C   0  0  0  0  0  0  0  0  0  0  0  0
    1.1500   -2.6904    2.2226 H   0  0  0  0  0  0  0  0  0  0  0  0
    2.2200   -2.5882    4.2227 H   0  0  0  0  0  0  0  0  0  0  0  0
    1.6446    0.4348    4.1805 H   0  0  0  0  0  0  0  0  0  0  0  0
    2.7003   -0.3860    5.3367 H   0  0  0  0  0  0  0  0  0  0  0  0
    3.1367   -0.3318    3.6185 H   0  0  0  0  0  0  0  0  0  0  0  0
    0.7465   -2.2447    6.3007 N   0  0  0  0  0  0  0  0  0  0  0  0
   -0.1965   -2.4192    7.3807 C   0  0  0  0  0  0  0  0  0  0  0  0
    1.7230   -2.4540    6.4858 H   0  0  0  0  0  0  0  0  0  0  0  0
   -0.2814   -1.4814    7.9492 H   0  0  0  0  0  0  0  0  0  0  0  0
   -1.1802   -2.6883    6.9684 H   0  0  0  0  0  0  0  0  0  0  0  0
    0.1537   -3.2213    8.0470 H   0  0  0  0  0  0  0  0  0  0  0  0
  1  3  1  0  0  0  0
  1  7  1  0  0  0  0
  1  2  2  0  0  0  0
 32 33  1  0  0  0  0
 33 41  1  0  0  0  0
 33 34  2  0  0  0  0
  8  9  1  0  0  0  0
  9 17  1  0  0  0  0
  9 10  2  0  0  0  0
 18 19  1  0  0  0  0
 19 31  1  0  0  0  0
 19 20  2  0  0  0  0
 32 35  1  0  0  0  0
  8 11  1  0  0  0  0
 21 23  1  0  0  0  0
 41 42  1  0  0  0  0
 31 32  1  0  0  0  0
  7  8  1  0  0  0  0
 18 21  1  0  0  0  0
 17 18  1  0  0  0  0
 21 22  1  0  0  0  0
  3  4  1  0  0  0  0
  3  5  1  0  0  0  0
  3  6  1  0  0  0  0
 35 38  1  0  0  0  0
 35 39  1  0  0  0  0
 35 40  1  0  0  0  0
 11 14  1  0  0  0  0
 11 15  1  0  0  0  0
 11 16  1  0  0  0  0
 23 28  1  0  0  0  0
 23 29  1  0  0  0  0
 23 30  1  0  0  0  0
 42 44  1  0  0  0  0
 42 45  1  0  0  0  0
 42 46  1  0  0  0  0
 32 37  1  0  0  0  0
  8 13  1  0  0  0  0
 18 25  1  0  0  0  0
 21 26  1  0  0  0  0
 41 43  1  0  0  0  0
  7 12  1  0  0  0  0
 31 36  1  0  0  0  0
 17 24  1  0  0  0  0
 22 27  1  0  0  0  0
M  END
$$$$

  -OEChem-05262214473D

 46 45  0     1  0  0  0  0  0999 V2000
   -4.6700    2.7214    1.5150 C   0  0  0  0  0  0  0  0  0  0  0  0
   -5.4532    2.5715    0.5845 O   0  0  0  0  0  0  0  0  0  0  0  0
   -5.0996    3.4865    2.7226 C   0  0  0  0  0  0  0  0  0  0  0  0
   -4.8796    4.5629    2.6387 H   0  0  0  0  0  0  0  0  0  0  0  0
   -6.1861    3.4241    2.8954 H   0  0  0  0  0  0  0  0  0  0  0  0
   -4.6369    3.1693    3.6708 H   0  0  0  0  0  0  0  0  0  0  0  0
   -3.3731    2.2391    1.5790 N   0  0  0  0  0  0  0  0  0  0  0  0
   -2.7599    1.4751    0.5247 C   0  0  2  0  0  0  0  0  0  0  0  0
   -1.5143    0.8067    1.0915 C   0  0  0  0  0  0  0  0  0  0  0  0
   -0.9247    1.2213    2.0872 O   0  0  0  0  0  0  0  0  0  0  0  0
   -2.4106    2.3553   -0.6653 C   0  0  0  0  0  0  0  0  0  0  0  0
   -2.8254    2.4352    2.4150 H   0  0  0  0  0  0  0  0  0  0  0  0
   -3.4836    0.7082    0.2278 H   0  0  0  0  0  0  0  0  0  0  0  0
   -1.6866    3.1298   -0.3871 H   0  0  0  0  0  0  0  0  0  0  0  0
   -1.9704    1.7677   -1.4777 H   0  0  0  0  0  0  0  0  0  0  0  0
   -3.3030    2.8584   -1.0531 H   0  0  0  0  0  0  0  0  0  0  0  0
   -1.1107   -0.2839    0.3303 N   0  0  0  0  0  0  0  0  0  0  0  0
    0.0490   -1.0750    0.6539 C   0  0  2  0  0  0  0  0  0  0  0  0
    0.4496   -0.7401    2.0877 C   0  0  0  0  0  0  0  0  0  0  0  0
    0.0572    0.2656    2.6758 O   0  0  0  0  0  0  0  0  0  0  0  0
    1.2121   -0.8530   -0.3239 C   0  0  2  0  0  0  0  0  0  0  0  0
    1.6369    0.5089   -0.3022 O   0  0  0  0  0  0  0  0  0  0  0  0
    0.8333   -1.1998   -1.7587 C   0  0  0  0  0  0  0  0  0  0  0  0
   -1.6733   -0.5660   -0.4691 H   0  0  0  0  0  0  0  0  0  0  0  0
   -0.2717   -2.1234    0.6215 H   0  0  0  0  0  0  0  0  0  0  0  0
    2.0734   -1.4667   -0.0356 H   0  0  0  0  0  0  0  0  0  0  0  0
    2.3987    0.5685   -0.8986 H   0  0  0  0  0  0  0  0  0  0  0  0
   -0.0263   -0.6120   -2.0988 H   0  0  0  0  0  0  0  0  0  0  0  0
    0.5976   -2.2632   -1.8619 H   0  0  0  0  0  0  0  0  0  0  0  0
    1.6599   -0.9600   -2.4366 H   0  0  0  0  0  0  0  0  0  0  0  0
    1.3349   -1.6700    2.6145 N   0  0  0  0  0  0  0  0  0  0  0  0
    1.8842   -1.5532    3.9448 C   0  0  2  0  0  0  0  0  0  0  0  0
    0.8249   -2.0214    4.9338 C   0  0  0  0  0  0  0  0  0  0  0  0
   -0.3763   -2.0364    4.6731 O   0  0  0  0  0  0  0  0  0  0  0  0
    2.3128   -0.1249    4.2431 C   0  0  0  0  0  0  0  0  0  0  0  0
    1.6070   -2.4637    2.0419 H   0  0  0  0  0  0  0  0  0  0  0  0
    2.7489   -2.2243    3.9900 H   0  0  0  0  0  0  0  0  0  0  0  0
    1.4597    0.5621    4.2024 H   0  0  0  0  0  0  0  0  0  0  0  0
    2.7553   -0.0437    5.2414 H   0  0  0  0  0  0  0  0  0  0  0  0
    3.0527    0.2205    3.5130 H   0  0  0  0  0  0  0  0  0  0  0  0
    1.3747   -2.3798    6.1567 N   0  0  0  0  0  0  0  0  0  0  0  0
    0.5742   -2.8457    7.2649 C   0  0  0  0  0  0  0  0  0  0  0  0
    2.3828   -2.3541    6.2781 H   0  0  0  0  0  0  0  0  0  0  0  0
    0.3028   -1.9937    7.9056 H   0  0  0  0  0  0  0  0  0  0  0  0
   -0.3403   -3.3221    6.8818 H   0  0  0  0  0  0  0  0  0  0  0  0
    1.1502   -3.5765    7.8515 H   0  0  0  0  0  0  0  0  0  0  0  0
  1  3  1  0  0  0  0
  1  7  1  0  0  0  0
  1  2  2  0  0  0  0
 32 33  1  0  0  0  0
 33 41  1  0  0  0  0
 33 34  2  0  0  0  0
  8  9  1  0  0  0  0
  9 17  1  0  0  0  0
  9 10  2  0  0  0  0
 18 19  1  0  0  0  0
 19 31  1  0  0  0  0
 19 20  2  0  0  0  0
 32 35  1  0  0  0  0
  8 11  1  0  0  0  0
 21 23  1  0  0  0  0
 41 42  1  0  0  0  0
 31 32  1  0  0  0  0
  7  8  1  0  0  0  0
 18 21  1  0  0  0  0
 17 18  1  0  0  0  0
 21 22  1  0  0  0  0
  3  4  1  0  0  0  0
  3  5  1  0  0  0  0
  3  6  1  0  0  0  0
 35 38  1  0  0  0  0
 35 39  1  0  0  0  0
 35 40  1  0  0  0  0
 11 14  1  0  0  0  0
 11 15  1  0  0  0  0
 11 16  1  0  0  0  0
 23 28  1  0  0  0  0
 23 29  1  0  0  0  0
 23 30  1  0  0  0  0
 42 44  1  0  0  0  0
 42 45  1  0  0  0  0
 42 46  1  0  0  0  0
 32 37  1  0  0  0  0
  8 13  1  0  0  0  0
 18 25  1  0  0  0  0
 21 26  1  0  0  0  0
 41 43  1  0  0  0  0
  7 12  1  0  0  0  0
 31 36  1  0  0  0  0
 17 24  1  0  0  0  0
 22 27  1  0  0  0  0
M  END
$$$$

  -OEChem-05262214473D

 46 45  0     1  0  0  0  0  0999 V2000
   -4.6700    2.7214    1.5150 C   0  0  0  0  0  0  0  0  0  0  0  0
   -5.4532    2.5715    0.5845 O   0  0  0  0  0  0  0  0  0  0  0  0
   -5.0996    3.4865    2.7226 C   0  0  0  0  0  0  0  0  0  0  0  0
   -4.8796    4.5629    2.6387 H   0  0  0  0  0  0  0  0  0  0  0  0
   -6.1861    3.4241    2.8954 H   0  0  0  0  0  0  0  0  0  0  0  0
   -4.6369    3.1693    3.6708 H   0  0  0  0  0  0  0  0  0  0  0  0
   -3.3731    2.2391    1.5790 N   0  0  0  0  0  0  0  0  0  0  0  0
   -2.7599    1.4751    0.5247 C   0  0  2  0  0  0  0  0  0  0  0  0
   -1.5143    0.8067    1.0915 C   0  0  0  0  0  0  0  0  0  0  0  0
   -0.9247    1.2213    2.0872 O   0  0  0  0  0  0  0  0  0  0  0  0
   -2.4106    2.3553   -0.6653 C   0  0  0  0  0  0  0  0  0  0  0  0
   -2.8254    2.4352    2.4150 H   0  0  0  0  0  0  0  0  0  0  0  0
   -3.4836    0.7082    0.2278 H   0  0  0  0  0  0  0  0  0  0  0  0
   -1.6866    3.1298   -0.3871 H   0  0  0  0  0  0  0  0  0  0  0  0
   -1.9704    1.7677   -1.4777 H   0  0  0  0  0  0  0  0  0  0  0  0
   -3.3030    2.8584   -1.0531 H   0  0  0  0  0  0  0  0  0  0  0  0
   -1.1107   -0.2839    0.3303 N   0  0  0  0  0  0  0  0  0  0  0  0
    0.0490   -1.0750    0.6539 C   0  0  2  0  0  0  0  0  0  0  0  0
    0.2254   -1.0356    2.1691 C   0  0  0  0  0  0  0  0  0  0  0  0
   -0.5059   -0.3843    2.9123 O   0  0  0  0  0  0  0  0  0  0  0  0
    1.3148   -0.6004   -0.0745 C   0  0  2  0  0  0  0  0  0  0  0  0
    1.6319    0.7428    0.2876 O   0  0  0  0  0  0  0  0  0  0  0  0
    1.1610   -0.6502   -1.5898 C   0  0  0  0  0  0  0  0  0  0  0  0
   -1.6733   -0.5660   -0.4691 H   0  0  0  0  0  0  0  0  0  0  0  0
   -0.1867   -2.1054    0.3610 H   0  0  0  0  0  0  0  0  0  0  0  0
    2.1715   -1.2237    0.2070 H   0  0  0  0  0  0  0  0  0  0  0  0
    2.4613    0.9606   -0.1644 H   0  0  0  0  0  0  0  0  0  0  0  0
    0.3150   -0.0412   -1.9264 H   0  0  0  0  0  0  0  0  0  0  0  0
    1.0201   -1.6766   -1.9417 H   0  0  0  0  0  0  0  0  0  0  0  0
    2.0523   -0.2365   -2.0743 H   0  0  0  0  0  0  0  0  0  0  0  0
    1.3241   -1.7729    2.5874 N   0  0  0  0  0  0  0  0  0  0  0  0
    1.7176   -1.8627    3.9739 C   0  0  2  0  0  0  0  0  0  0  0  0
    0.7999   -2.8666    4.6591 C   0  0  0  0  0  0  0  0  0  0  0  0
   -0.3134   -3.1603    4.2287 O   0  0  0  0  0  0  0  0  0  0  0  0
    1.6468   -0.5064    4.6581 C   0  0  0  0  0  0  0  0  0  0  0  0
    1.8729   -2.2688    1.8911 H   0  0  0  0  0  0  0  0  0  0  0  0
    2.7462   -2.2391    3.9870 H   0  0  0  0  0  0  0  0  0  0  0  0
    0.6236   -0.1131    4.6548 H   0  0  0  0  0  0  0  0  0  0  0  0
    1.9727   -0.5708    5.7015 H   0  0  0  0  0  0  0  0  0  0  0  0
    2.2845    0.2222    4.1460 H   0  0  0  0  0  0  0  0  0  0  0  0
    1.3527   -3.3637    5.8311 N   0  0  0  0  0  0  0  0  0  0  0  0
    0.6710   -4.3221    6.6694 C   0  0  0  0  0  0  0  0  0  0  0  0
    2.2895   -3.0790    6.1017 H   0  0  0  0  0  0  0  0  0  0  0  0
    0.0997   -3.7908    7.4449 H   0  0  0  0  0  0  0  0  0  0  0  0
   -0.0158   -4.9231    6.0553 H   0  0  0  0  0  0  0  0  0  0  0  0
    1.4099   -4.9827    7.1465 H   0  0  0  0  0  0  0  0  0  0  0  0
  1  3  1  0  0  0  0
  1  7  1  0  0  0  0
  1  2  2  0  0  0  0
 32 33  1  0  0  0  0
 33 41  1  0  0  0  0
 33 34  2  0  0  0  0
  8  9  1  0  0  0  0
  9 17  1  0  0  0  0
  9 10  2  0  0  0  0
 18 19  1  0  0  0  0
 19 31  1  0  0  0  0
 19 20  2  0  0  0  0
 32 35  1  0  0  0  0
  8 11  1  0  0  0  0
 21 23  1  0  0  0  0
 41 42  1  0  0  0  0
 31 32  1  0  0  0  0
  7  8  1  0  0  0  0
 18 21  1  0  0  0  0
 17 18  1  0  0  0  0
 21 22  1  0  0  0  0
  3  4  1  0  0  0  0
  3  5  1  0  0  0  0
  3  6  1  0  0  0  0
 35 38  1  0  0  0  0
 35 39  1  0  0  0  0
 35 40  1  0  0  0  0
 11 14  1  0  0  0  0
 11 15  1  0  0  0  0
 11 16  1  0  0  0  0
 23 28  1  0  0  0  0
 23 29  1  0  0  0  0
 23 30  1  0  0  0  0
 42 44  1  0  0  0  0
 42 45  1  0  0  0  0
 42 46  1  0  0  0  0
 32 37  1  0  0  0  0
  8 13  1  0  0  0  0
 18 25  1  0  0  0  0
 21 26  1  0  0  0  0
 41 43  1  0  0  0  0
  7 12  1  0  0  0  0
 31 36  1  0  0  0  0
 17 24  1  0  0  0  0
 22 27  1  0  0  0  0
M  END
$$$$

  -OEChem-05262214473D

 46 45  0     1  0  0  0  0  0999 V2000
   -4.6700    2.7214    1.5150 C   0  0  0  0  0  0  0  0  0  0  0  0
   -5.4532    2.5715    0.5845 O   0  0  0  0  0  0  0  0  0  0  0  0
   -5.0996    3.4865    2.7226 C   0  0  0  0  0  0  0  0  0  0  0  0
   -4.8796    4.5629    2.6387 H   0  0  0  0  0  0  0  0  0  0  0  0
   -6.1861    3.4241    2.8954 H   0  0  0  0  0  0  0  0  0  0  0  0
   -4.6369    3.1693    3.6708 H   0  0  0  0  0  0  0  0  0  0  0  0
   -3.3731    2.2391    1.5790 N   0  0  0  0  0  0  0  0  0  0  0  0
   -2.7599    1.4751    0.5247 C   0  0  2  0  0  0  0  0  0  0  0  0
   -1.5143    0.8067    1.0915 C   0  0  0  0  0  0  0  0  0  0  0  0
   -0.9247    1.2213    2.0872 O   0  0  0  0  0  0  0  0  0  0  0  0
   -2.4106    2.3553   -0.6653 C   0  0  0  0  0  0  0  0  0  0  0  0
   -2.8254    2.4352    2.4150 H   0  0  0  0  0  0  0  0  0  0  0  0
   -3.4836    0.7082    0.2278 H   0  0  0  0  0  0  0  0  0  0  0  0
   -1.6866    3.1298   -0.3871 H   0  0  0  0  0  0  0  0  0  0  0  0
   -1.9704    1.7677   -1.4777 H   0  0  0  0  0  0  0  0  0  0  0  0
   -3.3030    2.8584   -1.0531 H   0  0  0  0  0  0  0  0  0  0  0  0
   -1.1107   -0.2839    0.3303 N   0  0  0  0  0  0  0  0  0  0  0  0
    0.0490   -1.0750    0.6539 C   0  0  2  0  0  0  0  0  0  0  0  0
    0.2254   -1.0356    2.1691 C   0  0  0  0  0  0  0  0  0  0  0  0
   -0.6407   -0.6161    2.9340 O   0  0  0  0  0  0  0  0  0  0  0  0
    1.3148   -0.6004   -0.0745 C   0  0  2  0  0  0  0  0  0  0  0  0
    1.6319    0.7428    0.2876 O   0  0  0  0  0  0  0  0  0  0  0  0
    1.1610   -0.6502   -1.5898 C   0  0  0  0  0  0  0  0  0  0  0  0
   -1.6733   -0.5660   -0.4691 H   0  0  0  0  0  0  0  0  0  0  0  0
   -0.1867   -2.1054    0.3610 H   0  0  0  0  0  0  0  0  0  0  0  0
    2.1715   -1.2237    0.2070 H   0  0  0  0  0  0  0  0  0  0  0  0
    2.4613    0.9606   -0.1644 H   0  0  0  0  0  0  0  0  0  0  0  0
    0.3150   -0.0412   -1.9264 H   0  0  0  0  0  0  0  0  0  0  0  0
    1.0201   -1.6766   -1.9417 H   0  0  0  0  0  0  0  0  0  0  0  0
    2.0523   -0.2365   -2.0743 H   0  0  0  0  0  0  0  0  0  0  0  0
    1.4810   -1.4775    2.5614 N   0  0  0  0  0  0  0  0  0  0  0  0
    1.8990   -1.5033    3.9434 C   0  0  2  0  0  0  0  0  0  0  0  0
    1.2773   -2.7289    4.6000 C   0  0  0  0  0  0  0  0  0  0  0  0
    0.2723   -3.2863    4.1638 O   0  0  0  0  0  0  0  0  0  0  0  0
    1.4894   -0.2312    4.6693 C   0  0  0  0  0  0  0  0  0  0  0  0
    2.1314   -1.7951    1.8487 H   0  0  0  0  0  0  0  0  0  0  0  0
    2.9899   -1.6028    3.9421 H   0  0  0  0  0  0  0  0  0  0  0  0
    0.3996   -0.1144    4.6809 H   0  0  0  0  0  0  0  0  0  0  0  0
    1.8319   -0.2400    5.7093 H   0  0  0  0  0  0  0  0  0  0  0  0
    1.9131    0.6514    4.1781 H   0  0  0  0  0  0  0  0  0  0  0  0
    1.9517   -3.1009    5.7545 N   0  0  0  0  0  0  0  0  0  0  0  0
    1.5480   -4.2263    6.5648 C   0  0  0  0  0  0  0  0  0  0  0  0
    2.7867   -2.5930    6.0312 H   0  0  0  0  0  0  0  0  0  0  0  0
    0.8676   -3.8825    7.3579 H   0  0  0  0  0  0  0  0  0  0  0  0
    1.0322   -4.9656    5.9345 H   0  0  0  0  0  0  0  0  0  0  0  0
    2.4368   -4.6883    7.0193 H   0  0  0  0  0  0  0  0  0  0  0  0
  1  3  1  0  0  0  0
  1  7  1  0  0  0  0
  1  2  2  0  0  0  0
 32 33  1  0  0  0  0
 33 41  1  0  0  0  0
 33 34  2  0  0  0  0
  8  9  1  0  0  0  0
  9 17  1  0  0  0  0
  9 10  2  0  0  0  0
 18 19  1  0  0  0  0
 19 31  1  0  0  0  0
 19 20  2  0  0  0  0
 32 35  1  0  0  0  0
  8 11  1  0  0  0  0
 21 23  1  0  0  0  0
 41 42  1  0  0  0  0
 31 32  1  0  0  0  0
  7  8  1  0  0  0  0
 18 21  1  0  0  0  0
 17 18  1  0  0  0  0
 21 22  1  0  0  0  0
  3  4  1  0  0  0  0
  3  5  1  0  0  0  0
  3  6  1  0  0  0  0
 35 38  1  0  0  0  0
 35 39  1  0  0  0  0
 35 40  1  0  0  0  0
 11 14  1  0  0  0  0
 11 15  1  0  0  0  0
 11 16  1  0  0  0  0
 23 28  1  0  0  0  0
 23 29  1  0  0  0  0
 23 30  1  0  0  0  0
 42 44  1  0  0  0  0
 42 45  1  0  0  0  0
 42 46  1  0  0  0  0
 32 37  1  0  0  0  0
  8 13  1  0  0  0  0
 18 25  1  0  0  0  0
 21 26  1  0  0  0  0
 41 43  1  0  0  0  0
  7 12  1  0  0  0  0
 31 36  1  0  0  0  0
 17 24  1  0  0  0  0
 22 27  1  0  0  0  0
M  END
$$$$

  -OEChem-05262214473D

 46 45  0     1  0  0  0  0  0999 V2000
   -4.6700    2.7214    1.5150 C   0  0  0  0  0  0  0  0  0  0  0  0
   -5.4532    2.5715    0.5845 O   0  0  0  0  0  0  0  0  0  0  0  0
   -5.0996    3.4865    2.7226 C   0  0  0  0  0  0  0  0  0  0  0  0
   -4.8796    4.5629    2.6387 H   0  0  0  0  0  0  0  0  0  0  0  0
   -6.1861    3.4241    2.8954 H   0  0  0  0  0  0  0  0  0  0  0  0
   -4.6369    3.1693    3.6708 H   0  0  0  0  0  0  0  0  0  0  0  0
   -3.3731    2.2391    1.5790 N   0  0  0  0  0  0  0  0  0  0  0  0
   -2.7599    1.4751    0.5247 C   0  0  2  0  0  0  0  0  0  0  0  0
   -1.5143    0.8067    1.0915 C   0  0  0  0  0  0  0  0  0  0  0  0
   -0.9247    1.2213    2.0872 O   0  0  0  0  0  0  0  0  0  0  0  0
   -2.4106    2.3553   -0.6653 C   0  0  0  0  0  0  0  0  0  0  0  0
   -2.8254    2.4352    2.4150 H   0  0  0  0  0  0  0  0  0  0  0  0
   -3.4836    0.7082    0.2278 H   0  0  0  0  0  0  0  0  0  0  0  0
   -1.6866    3.1298   -0.3871 H   0  0  0  0  0  0  0  0  0  0  0  0
   -1.9704    1.7677   -1.4777 H   0  0  0  0  0  0  0  0  0  0  0  0
   -3.3030    2.8584   -1.0531 H   0  0  0  0  0  0  0  0  0  0  0  0
   -1.1107   -0.2839    0.3303 N   0  0  0  0  0  0  0  0  0  0  0  0
    0.0490   -1.0750    0.6539 C   0  0  2  0  0  0  0  0  0  0  0  0
    0.2254   -1.0356    2.1691 C   0  0  0  0  0  0  0  0  0  0  0  0
   -0.7113   -0.8752    2.9490 O   0  0  0  0  0  0  0  0  0  0  0  0
    1.3148   -0.6004   -0.0745 C   0  0  2  0  0  0  0  0  0  0  0  0
    1.6319    0.7428    0.2876 O   0  0  0  0  0  0  0  0  0  0  0  0
    1.1610   -0.6502   -1.5898 C   0  0  0  0  0  0  0  0  0  0  0  0
   -1.6733   -0.5660   -0.4691 H   0  0  0  0  0  0  0  0  0  0  0  0
   -0.1867   -2.1054    0.3610 H   0  0  0  0  0  0  0  0  0  0  0  0
    2.1715   -1.2237    0.2070 H   0  0  0  0  0  0  0  0  0  0  0  0
    2.4613    0.9606   -0.1644 H   0  0  0  0  0  0  0  0  0  0  0  0
    0.3150   -0.0412   -1.9264 H   0  0  0  0  0  0  0  0  0  0  0  0
    1.0201   -1.6766   -1.9417 H   0  0  0  0  0  0  0  0  0  0  0  0
    2.0523   -0.2365   -2.0743 H   0  0  0  0  0  0  0  0  0  0  0  0
    1.5564   -1.1510    2.5442 N   0  0  0  0  0  0  0  0  0  0  0  0
    1.9817   -1.1086    3.9235 C   0  0  2  0  0  0  0  0  0  0  0  0
    1.7027   -2.4713    4.5438 C   0  0  0  0  0  0  0  0  0  0  0  0
    0.8701   -3.2555    4.0934 O   0  0  0  0  0  0  0  0  0  0  0  0
    1.2667   -0.0063    4.6893 C   0  0  0  0  0  0  0  0  0  0  0  0
    2.2590   -1.2699    1.8202 H   0  0  0  0  0  0  0  0  0  0  0  0
    3.0615   -0.9242    3.9161 H   0  0  0  0  0  0  0  0  0  0  0  0
    0.1837   -0.1739    4.7076 H   0  0  0  0  0  0  0  0  0  0  0  0
    1.6110    0.0431    5.7276 H   0  0  0  0  0  0  0  0  0  0  0  0
    1.4442    0.9695    4.2244 H   0  0  0  0  0  0  0  0  0  0  0  0
    2.4622   -2.6909    5.6845 N   0  0  0  0  0  0  0  0  0  0  0  0
    2.3698   -3.9053    6.4608 C   0  0  0  0  0  0  0  0  0  0  0  0
    3.1415   -1.9936    5.9743 H   0  0  0  0  0  0  0  0  0  0  0  0
    1.6324   -3.7711    7.2660 H   0  0  0  0  0  0  0  0  0  0  0  0
    2.0545   -4.7337    5.8094 H   0  0  0  0  0  0  0  0  0  0  0  0
    3.3522   -4.1362    6.8984 H   0  0  0  0  0  0  0  0  0  0  0  0
  1  3  1  0  0  0  0
  1  7  1  0  0  0  0
  1  2  2  0  0  0  0
 32 33  1  0  0  0  0
 33 41  1  0  0  0  0
 33 34  2  0  0  0  0
  8  9  1  0  0  0  0
  9 17  1  0  0  0  0
  9 10  2  0  0  0  0
 18 19  1  0  0  0  0
 19 31  1  0  0  0  0
 19 20  2  0  0  0  0
 32 35  1  0  0  0  0
  8 11  1  0  0  0  0
 21 23  1  0  0  0  0
 41 42  1  0  0  0  0
 31 32  1  0  0  0  0
  7  8  1  0  0  0  0
 18 21  1  0  0  0  0
 17 18  1  0  0  0  0
 21 22  1  0  0  0  0
  3  4  1  0  0  0  0
  3  5  1  0  0  0  0
  3  6  1  0  0  0  0
 35 38  1  0  0  0  0
 35 39  1  0  0  0  0
 35 40  1  0  0  0  0
 11 14  1  0  0  0  0
 11 15  1  0  0  0  0
 11 16  1  0  0  0  0
 23 28  1  0  0  0  0
 23 29  1  0  0  0  0
 23 30  1  0  0  0  0
 42 44  1  0  0  0  0
 42 45  1  0  0  0  0
 42 46  1  0  0  0  0
 32 37  1  0  0  0  0
  8 13  1  0  0  0  0
 18 25  1  0  0  0  0
 21 26  1  0  0  0  0
 41 43  1  0  0  0  0
  7 12  1  0  0  0  0
 31 36  1  0  0  0  0
 17 24  1  0  0  0  0
 22 27  1  0  0  0  0
M  END
$$$$

  -OEChem-05262214473D

 46 45  0     1  0  0  0  0  0999 V2000
   -4.6700    2.7214    1.5150 C   0  0  0  0  0  0  0  0  0  0  0  0
   -5.4532    2.5715    0.5845 O   0  0  0  0  0  0  0  0  0  0  0  0
   -5.0996    3.4865    2.7226 C   0  0  0  0  0  0  0  0  0  0  0  0
   -4.8796    4.5629    2.6387 H   0  0  0  0  0  0  0  0  0  0  0  0
   -6.1861    3.4241    2.8954 H   0  0  0  0  0  0  0  0  0  0  0  0
   -4.6369    3.1693    3.6708 H   0  0  0  0  0  0  0  0  0  0  0  0
   -3.3731    2.2391    1.5790 N   0  0  0  0  0  0  0  0  0  0  0  0
   -2.7599    1.4751    0.5247 C   0  0  2  0  0  0  0  0  0  0  0  0
   -1.5143    0.8067    1.0915 C   0  0  0  0  0  0  0  0  0  0  0  0
   -0.9247    1.2213    2.0872 O   0  0  0  0  0  0  0  0  0  0  0  0
   -2.4106    2.3553   -0.6653 C   0  0  0  0  0  0  0  0  0  0  0  0
   -2.8254    2.4352    2.4150 H   0  0  0  0  0  0  0  0  0  0  0  0
   -3.4836    0.7082    0.2278 H   0  0  0  0  0  0  0  0  0  0  0  0
   -1.6866    3.1298   -0.3871 H   0  0  0  0  0  0  0  0  0  0  0  0
   -1.9704    1.7677   -1.4777 H   0  0  0  0  0  0  0  0  0  0  0  0
   -3.3030    2.8584   -1.0531 H   0  0  0  0  0  0  0  0  0  0  0  0
   -1.1107   -0.2839    0.3303 N   0  0  0  0  0  0  0  0  0  0  0  0
    0.0490   -1.0750    0.6539 C   0  0  2  0  0  0  0  0  0  0  0  0
    0.2254   -1.0356    2.1691 C   0  0  0  0  0  0  0  0  0  0  0  0
   -0.7127   -1.1442    2.9562 O   0  0  0  0  0  0  0  0  0  0  0  0
    1.3148   -0.6004   -0.0745 C   0  0  2  0  0  0  0  0  0  0  0  0
    1.6319    0.7428    0.2876 O   0  0  0  0  0  0  0  0  0  0  0  0
    1.1610   -0.6502   -1.5898 C   0  0  0  0  0  0  0  0  0  0  0  0
   -1.6733   -0.5660   -0.4691 H   0  0  0  0  0  0  0  0  0  0  0  0
   -0.1867   -2.1054    0.3610 H   0  0  0  0  0  0  0  0  0  0  0  0
    2.1715   -1.2237    0.2070 H   0  0  0  0  0  0  0  0  0  0  0  0
    2.4613    0.9606   -0.1644 H   0  0  0  0  0  0  0  0  0  0  0  0
    0.3150   -0.0412   -1.9264 H   0  0  0  0  0  0  0  0  0  0  0  0
    1.0201   -1.6766   -1.9417 H   0  0  0  0  0  0  0  0  0  0  0  0
    2.0523   -0.2365   -2.0743 H   0  0  0  0  0  0  0  0  0  0  0  0
    1.5453   -0.8158    2.5367 N   0  0  0  0  0  0  0  0  0  0  0  0
    1.9600   -0.7055    3.9156 C   0  0  2  0  0  0  0  0  0  0  0  0
    2.0470   -2.1116    4.4943 C   0  0  0  0  0  0  0  0  0  0  0  0
    1.4391   -3.0701    4.0224 O   0  0  0  0  0  0  0  0  0  0  0  0
    0.9940    0.1532    4.7169 C   0  0  0  0  0  0  0  0  0  0  0  0
    2.2471   -0.7290    1.8075 H   0  0  0  0  0  0  0  0  0  0  0  0
    2.9560   -0.2496    3.9108 H   0  0  0  0  0  0  0  0  0  0  0  0
   -0.0094   -0.2877    4.7330 H   0  0  0  0  0  0  0  0  0  0  0  0
    1.3250    0.2593    5.7553 H   0  0  0  0  0  0  0  0  0  0  0  0
    0.9099    1.1549    4.2818 H   0  0  0  0  0  0  0  0  0  0  0  0
    2.8495   -2.1615    5.6256 N   0  0  0  0  0  0  0  0  0  0  0  0
    3.0803   -3.3809    6.3645 C   0  0  0  0  0  0  0  0  0  0  0  0
    3.3299   -1.3217    5.9349 H   0  0  0  0  0  0  0  0  0  0  0  0
    2.3418   -3.4642    7.1754 H   0  0  0  0  0  0  0  0  0  0  0  0
    2.9816   -4.2432    5.6887 H   0  0  0  0  0  0  0  0  0  0  0  0
    4.0937   -3.3641    6.7920 H   0  0  0  0  0  0  0  0  0  0  0  0
  1  3  1  0  0  0  0
  1  7  1  0  0  0  0
  1  2  2  0  0  0  0
 32 33  1  0  0  0  0
 33 41  1  0  0  0  0
 33 34  2  0  0  0  0
  8  9  1  0  0  0  0
  9 17  1  0  0  0  0
  9 10  2  0  0  0  0
 18 19  1  0  0  0  0
 19 31  1  0  0  0  0
 19 20  2  0  0  0  0
 32 35  1  0  0  0  0
  8 11  1  0  0  0  0
 21 23  1  0  0  0  0
 41 42  1  0  0  0  0
 31 32  1  0  0  0  0
  7  8  1  0  0  0  0
 18 21  1  0  0  0  0
 17 18  1  0  0  0  0
 21 22  1  0  0  0  0
  3  4  1  0  0  0  0
  3  5  1  0  0  0  0
  3  6  1  0  0  0  0
 35 38  1  0  0  0  0
 35 39  1  0  0  0  0
 35 40  1  0  0  0  0
 11 14  1  0  0  0  0
 11 15  1  0  0  0  0
 11 16  1  0  0  0  0
 23 28  1  0  0  0  0
 23 29  1  0  0  0  0
 23 30  1  0  0  0  0
 42 44  1  0  0  0  0
 42 45  1  0  0  0  0
 42 46  1  0  0  0  0
 32 37  1  0  0  0  0
  8 13  1  0  0  0  0
 18 25  1  0  0  0  0
 21 26  1  0  0  0  0
 41 43  1  0  0  0  0
  7 12  1  0  0  0  0
 31 36  1  0  0  0  0
 17 24  1  0  0  0  0
 22 27  1  0  0  0  0
M  END
$$$$

  -OEChem-05262214473D

 46 45  0     1  0  0  0  0  0999 V2000
   -4.6700    2.7214    1.5150 C   0  0  0  0  0  0  0  0  0  0  0  0
   -5.4532    2.5715    0.5845 O   0  0  0  0  0  0  0  0  0  0  0  0
   -5.0996    3.4865    2.7226 C   0  0  0  0  0  0  0  0  0  0  0  0
   -4.8796    4.5629    2.6387 H   0  0  0  0  0  0  0  0  0  0  0  0
   -6.1861    3.4241    2.8954 H   0  0  0  0  0  0  0  0  0  0  0  0
   -4.6369    3.1693    3.6708 H   0  0  0  0  0  0  0  0  0  0  0  0
   -3.3731    2.2391    1.5790 N   0  0  0  0  0  0  0  0  0  0  0  0
   -2.7599    1.4751    0.5247 C   0  0  2  0  0  0  0  0  0  0  0  0
   -1.5143    0.8067    1.0915 C   0  0  0  0  0  0  0  0  0  0  0  0
   -0.9247    1.2213    2.0872 O   0  0  0  0  0  0  0  0  0  0  0  0
   -2.4106    2.3553   -0.6653 C   0  0  0  0  0  0  0  0  0  0  0  0
   -2.8254    2.4352    2.4150 H   0  0  0  0  0  0  0  0  0  0  0  0
   -3.4836    0.7082    0.2278 H   0  0  0  0  0  0  0  0  0  0  0  0
   -1.6866    3.1298   -0.3871 H   0  0  0  0  0  0  0  0  0  0  0  0
   -1.9704    1.7677   -1.4777 H   0  0  0  0  0  0  0  0  0  0  0  0
   -3.3030    2.8584   -1.0531 H   0  0  0  0  0  0  0  0  0  0  0  0
   -1.1107   -0.2839    0.3303 N   0  0  0  0  0  0  0  0  0  0  0  0
    0.0490   -1.0750    0.6539 C   0  0  2  0  0  0  0  0  0  0  0  0
    0.2254   -1.0356    2.1691 C   0  0  0  0  0  0  0  0  0  0  0  0
   -0.6450   -1.4045    2.9550 O   0  0  0  0  0  0  0  0  0  0  0  0
    1.3148   -0.6004   -0.0745 C   0  0  2  0  0  0  0  0  0  0  0  0
    1.6319    0.7428    0.2876 O   0  0  0  0  0  0  0  0  0  0  0  0
    1.1610   -0.6502   -1.5898 C   0  0  0  0  0  0  0  0  0  0  0  0
   -1.6733   -0.5660   -0.4691 H   0  0  0  0  0  0  0  0  0  0  0  0
   -0.1867   -2.1054    0.3610 H   0  0  0  0  0  0  0  0  0  0  0  0
    2.1715   -1.2237    0.2070 H   0  0  0  0  0  0  0  0  0  0  0  0
    2.4613    0.9606   -0.1644 H   0  0  0  0  0  0  0  0  0  0  0  0
    0.3150   -0.0412   -1.9264 H   0  0  0  0  0  0  0  0  0  0  0  0
    1.0201   -1.6766   -1.9417 H   0  0  0  0  0  0  0  0  0  0  0  0
    2.0523   -0.2365   -2.0743 H   0  0  0  0  0  0  0  0  0  0  0  0
    1.4483   -0.4946    2.5397 N   0  0  0  0  0  0  0  0  0  0  0  0
    1.8353   -0.3215    3.9201 C   0  0  2  0  0  0  0  0  0  0  0  0
    2.2868   -1.6741    4.4550 C   0  0  0  0  0  0  0  0  0  0  0  0
    1.9405   -2.7426    3.9555 O   0  0  0  0  0  0  0  0  0  0  0  0
    0.6897    0.2364    4.7502 C   0  0  0  0  0  0  0  0  0  0  0  0
    2.0966   -0.2091    1.8115 H   0  0  0  0  0  0  0  0  0  0  0  0
    2.6807    0.3751    3.9266 H   0  0  0  0  0  0  0  0  0  0  0  0
   -0.1665   -0.4480    4.7555 H   0  0  0  0  0  0  0  0  0  0  0  0
    0.9934    0.3938    5.7904 H   0  0  0  0  0  0  0  0  0  0  0  0
    0.3466    1.1949    4.3463 H   0  0  0  0  0  0  0  0  0  0  0  0
    3.0871   -1.5489    5.5820 N   0  0  0  0  0  0  0  0  0  0  0  0
    3.6313   -2.6888    6.2824 C   0  0  0  0  0  0  0  0  0  0  0  0
    3.3389   -0.6232    5.9157 H   0  0  0  0  0  0  0  0  0  0  0  0
    2.9476   -2.9828    7.0924 H   0  0  0  0  0  0  0  0  0  0  0  0
    3.7503   -3.5276    5.5807 H   0  0  0  0  0  0  0  0  0  0  0  0
    4.6108   -2.4245    6.7073 H   0  0  0  0  0  0  0  0  0  0  0  0
  1  3  1  0  0  0  0
  1  7  1  0  0  0  0
  1  2  2  0  0  0  0
 32 33  1  0  0  0  0
 33 41  1  0  0  0  0
 33 34  2  0  0  0  0
  8  9  1  0  0  0  0
  9 17  1  0  0  0  0
  9 10  2  0  0  0  0
 18 19  1  0  0  0  0
 19 31  1  0  0  0  0
 19 20  2  0  0  0  0
 32 35  1  0  0  0  0
  8 11  1  0  0  0  0
 21 23  1  0  0  0  0
 41 42  1  0  0  0  0
 31 32  1  0  0  0  0
  7  8  1  0  0  0  0
 18 21  1  0  0  0  0
 17 18  1  0  0  0  0
 21 22  1  0  0  0  0
  3  4  1  0  0  0  0
  3  5  1  0  0  0  0
  3  6  1  0  0  0  0
 35 38  1  0  0  0  0
 35 39  1  0  0  0  0
 35 40  1  0  0  0  0
 11 14  1  0  0  0  0
 11 15  1  0  0  0  0
 11 16  1  0  0  0  0
 23 28  1  0  0  0  0
 23 29  1  0  0  0  0
 23 30  1  0  0  0  0
 42 44  1  0  0  0  0
 42 45  1  0  0  0  0
 42 46  1  0  0  0  0
 32 37  1  0  0  0  0
  8 13  1  0  0  0  0
 18 25  1  0  0  0  0
 21 26  1  0  0  0  0
 41 43  1  0  0  0  0
  7 12  1  0  0  0  0
 31 36  1  0  0  0  0
 17 24  1  0  0  0  0
 22 27  1  0  0  0  0
M  END
$$$$

  -OEChem-05262214473D

 46 45  0     1  0  0  0  0  0999 V2000
   -4.6700    2.7214    1.5150 C   0  0  0  0  0  0  0  0  0  0  0  0
   -5.4532    2.5715    0.5845 O   0  0  0  0  0  0  0  0  0  0  0  0
   -5.0996    3.4865    2.7226 C   0  0  0  0  0  0  0  0  0  0  0  0
   -4.8796    4.5629    2.6387 H   0  0  0  0  0  0  0  0  0  0  0  0
   -6.1861    3.4241    2.8954 H   0  0  0  0  0  0  0  0  0  0  0  0
   -4.6369    3.1693    3.6708 H   0  0  0  0  0  0  0  0  0  0  0  0
   -3.3731    2.2391    1.5790 N   0  0  0  0  0  0  0  0  0  0  0  0
   -2.7599    1.4751    0.5247 C   0  0  2  0  0  0  0  0  0  0  0  0
   -1.5143    0.8067    1.0915 C   0  0  0  0  0  0  0  0  0  0  0  0
   -0.9247    1.2213    2.0872 O   0  0  0  0  0  0  0  0  0  0  0  0
   -2.4106    2.3553   -0.6653 C   0  0  0  0  0  0  0  0  0  0  0  0
   -2.8254    2.4352    2.4150 H   0  0  0  0  0  0  0  0  0  0  0  0
   -3.4836    0.7082    0.2278 H   0  0  0  0  0  0  0  0  0  0  0  0
   -1.6866    3.1298   -0.3871 H   0  0  0  0  0  0  0  0  0  0  0  0
   -1.9704    1.7677   -1.4777 H   0  0  0  0  0  0  0  0  0  0  0  0
   -3.3030    2.8584   -1.0531 H   0  0  0  0  0  0  0  0  0  0  0  0
   -1.1107   -0.2839    0.3303 N   0  0  0  0  0  0  0  0  0  0  0  0
    0.0490   -1.0750    0.6539 C   0  0  2  0  0  0  0  0  0  0  0  0
    0.2254   -1.0356    2.1691 C   0  0  0  0  0  0  0  0  0  0  0  0
   -0.5126   -1.6385    2.9457 O   0  0  0  0  0  0  0  0  0  0  0  0
    1.3148   -0.6004   -0.0745 C   0  0  2  0  0  0  0  0  0  0  0  0
    1.6319    0.7428    0.2876 O   0  0  0  0  0  0  0  0  0  0  0  0
    1.1610   -0.6502   -1.5898 C   0  0  0  0  0  0  0  0  0  0  0  0
   -1.6733   -0.5660   -0.4691 H   0  0  0  0  0  0  0  0  0  0  0  0
   -0.1867   -2.1054    0.3610 H   0  0  0  0  0  0  0  0  0  0  0  0
    2.1715   -1.2237    0.2070 H   0  0  0  0  0  0  0  0  0  0  0  0
    2.4613    0.9606   -0.1644 H   0  0  0  0  0  0  0  0  0  0  0  0
    0.3150   -0.0412   -1.9264 H   0  0  0  0  0  0  0  0  0  0  0  0
    1.0201   -1.6766   -1.9417 H   0  0  0  0  0  0  0  0  0  0  0  0
    2.0523   -0.2365   -2.0743 H   0  0  0  0  0  0  0  0  0  0  0  0
    1.2722   -0.2093    2.5528 N   0  0  0  0  0  0  0  0  0  0  0  0
    1.6163    0.0172    3.9368 C   0  0  2  0  0  0  0  0  0  0  0  0
    2.4058   -1.1888    4.4286 C   0  0  0  0  0  0  0  0  0  0  0  0
    2.3403   -2.2954    3.8973 O   0  0  0  0  0  0  0  0  0  0  0  0
    0.3747    0.2375    4.7868 C   0  0  0  0  0  0  0  0  0  0  0  0
    1.8176    0.2542    1.8320 H   0  0  0  0  0  0  0  0  0  0  0  0
    2.2544    0.9073    3.9624 H   0  0  0  0  0  0  0  0  0  0  0  0
   -0.2769   -0.6438    4.7734 H   0  0  0  0  0  0  0  0  0  0  0  0
    0.6387    0.4374    5.8305 H   0  0  0  0  0  0  0  0  0  0  0  0
   -0.2075    1.0869    4.4136 H   0  0  0  0  0  0  0  0  0  0  0  0
    3.1589   -0.8948    5.5566 N   0  0  0  0  0  0  0  0  0  0  0  0
    3.9850   -1.8763    6.2201 C   0  0  0  0  0  0  0  0  0  0  0  0
    3.1680    0.0545    5.9180 H   0  0  0  0  0  0  0  0  0  0  0  0
    3.4084   -2.3596    7.0225 H   0  0  0  0  0  0  0  0  0  0  0  0
    4.3081   -2.6355    5.4925 H   0  0  0  0  0  0  0  0  0  0  0  0
    4.8683   -1.3815    6.6502 H   0  0  0  0  0  0  0  0  0  0  0  0
  1  3  1  0  0  0  0
  1  7  1  0  0  0  0
  1  2  2  0  0  0  0
 32 33  1  0  0  0  0
 33 41  1  0  0  0  0
 33 34  2  0  0  0  0
  8  9  1  0  0  0  0
  9 17  1  0  0  0  0
  9 10  2  0  0  0  0
 18 19  1  0  0  0  0
 19 31  1  0  0  0  0
 19 20  2  0  0  0  0
 32 35  1  0  0  0  0
  8 11  1  0  0  0  0
 21 23  1  0  0  0  0
 41 42  1  0  0  0  0
 31 32  1  0  0  0  0
  7  8  1  0  0  0  0
 18 21  1  0  0  0  0
 17 18  1  0  0  0  0
 21 22  1  0  0  0  0
  3  4  1  0  0  0  0
  3  5  1  0  0  0  0
  3  6  1  0  0  0  0
 35 38  1  0  0  0  0
 35 39  1  0  0  0  0
 35 40  1  0  0  0  0
 11 14  1  0  0  0  0
 11 15  1  0  0  0  0
 11 16  1  0  0  0  0
 23 28  1  0  0  0  0
 23 29  1  0  0  0  0
 23 30  1  0  0  0  0
 42 44  1  0  0  0  0
 42 45  1  0  0  0  0
 42 46  1  0  0  0  0
 32 37  1  0  0  0  0
  8 13  1  0  0  0  0
 18 25  1  0  0  0  0
 21 26  1  0  0  0  0
 41 43  1  0  0  0  0
  7 12  1  0  0  0  0
 31 36  1  0  0  0  0
 17 24  1  0  0  0  0
 22 27  1  0  0  0  0
M  END
$$$$

  -OEChem-05262214473D

 46 45  0     1  0  0  0  0  0999 V2000
   -4.6700    2.7214    1.5150 C   0  0  0  0  0  0  0  0  0  0  0  0
   -5.4532    2.5715    0.5845 O   0  0  0  0  0  0  0  0  0  0  0  0
   -5.0996    3.4865    2.7226 C   0  0  0  0  0  0  0  0  0  0  0  0
   -4.8796    4.5629    2.6387 H   0  0  0  0  0  0  0  0  0  0  0  0
   -6.1861    3.4241    2.8954 H   0  0  0  0  0  0  0  0  0  0  0  0
   -4.6369    3.1693    3.6708 H   0  0  0  0  0  0  0  0  0  0  0  0
   -3.3731    2.2391    1.5790 N   0  0  0  0  0  0  0  0  0  0  0  0
   -2.7599    1.4751    0.5247 C   0  0  2  0  0  0  0  0  0  0  0  0
   -1.5143    0.8067    1.0915 C   0  0  0  0  0  0  0  0  0  0  0  0
   -0.9247    1.2213    2.0872 O   0  0  0  0  0  0  0  0  0  0  0  0
   -2.4106    2.3553   -0.6653 C   0  0  0  0  0  0  0  0  0  0  0  0
   -2.8254    2.4352    2.4150 H   0  0  0  0  0  0  0  0  0  0  0  0
   -3.4836    0.7082    0.2278 H   0  0  0  0  0  0  0  0  0  0  0  0
   -1.6866    3.1298   -0.3871 H   0  0  0  0  0  0  0  0  0  0  0  0
   -1.9704    1.7677   -1.4777 H   0  0  0  0  0  0  0  0  0  0  0  0
   -3.3030    2.8584   -1.0531 H   0  0  0  0  0  0  0  0  0  0  0  0
   -1.1107   -0.2839    0.3303 N   0  0  0  0  0  0  0  0  0  0  0  0
    0.0490   -1.0750    0.6539 C   0  0  2  0  0  0  0  0  0  0  0  0
    0.2254   -1.0356    2.1691 C   0  0  0  0  0  0  0  0  0  0  0  0
   -0.3247   -1.8303    2.9288 O   0  0  0  0  0  0  0  0  0  0  0  0
    1.3148   -0.6004   -0.0745 C   0  0  2  0  0  0  0  0  0  0  0  0
    1.6319    0.7428    0.2876 O   0  0  0  0  0  0  0  0  0  0  0  0
    1.1610   -0.6502   -1.5898 C   0  0  0  0  0  0  0  0  0  0  0  0
   -1.6733   -0.5660   -0.4691 H   0  0  0  0  0  0  0  0  0  0  0  0
   -0.1867   -2.1054    0.3610 H   0  0  0  0  0  0  0  0  0  0  0  0
    2.1715   -1.2237    0.2070 H   0  0  0  0  0  0  0  0  0  0  0  0
    2.4613    0.9606   -0.1644 H   0  0  0  0  0  0  0  0  0  0  0  0
    0.3150   -0.0412   -1.9264 H   0  0  0  0  0  0  0  0  0  0  0  0
    1.0201   -1.6766   -1.9417 H   0  0  0  0  0  0  0  0  0  0  0  0
    2.0523   -0.2365   -2.0743 H   0  0  0  0  0  0  0  0  0  0  0  0
    1.0288    0.0205    2.5751 N   0  0  0  0  0  0  0  0  0  0  0  0
    1.3178    0.2876    3.9645 C   0  0  2  0  0  0  0  0  0  0  0  0
    2.3958   -0.6886    4.4167 C   0  0  0  0  0  0  0  0  0  0  0  0
    2.6111   -1.7589    3.8519 O   0  0  0  0  0  0  0  0  0  0  0  0
    0.0704    0.1565    4.8244 C   0  0  0  0  0  0  0  0  0  0  0  0
    1.4291    0.6294    1.8674 H   0  0  0  0  0  0  0  0  0  0  0  0
    1.7061    1.3107    4.0158 H   0  0  0  0  0  0  0  0  0  0  0  0
   -0.3331   -0.8620    4.7856 H   0  0  0  0  0  0  0  0  0  0  0  0
    0.2852    0.3872    5.8730 H   0  0  0  0  0  0  0  0  0  0  0  0
   -0.7144    0.8382    4.4791 H   0  0  0  0  0  0  0  0  0  0  0  0
    3.0600   -0.2438    5.5512 N   0  0  0  0  0  0  0  0  0  0  0  0
    4.1175   -0.9987    6.1818 C   0  0  0  0  0  0  0  0  0  0  0  0
    2.8288    0.6650    5.9416 H   0  0  0  0  0  0  0  0  0  0  0  0
    3.6929   -1.6371    6.9706 H   0  0  0  0  0  0  0  0  0  0  0  0
    4.6170   -1.6279    5.4304 H   0  0  0  0  0  0  0  0  0  0  0  0
    4.8485   -0.3062    6.6246 H   0  0  0  0  0  0  0  0  0  0  0  0
  1  3  1  0  0  0  0
  1  7  1  0  0  0  0
  1  2  2  0  0  0  0
 32 33  1  0  0  0  0
 33 41  1  0  0  0  0
 33 34  2  0  0  0  0
  8  9  1  0  0  0  0
  9 17  1  0  0  0  0
  9 10  2  0  0  0  0
 18 19  1  0  0  0  0
 19 31  1  0  0  0  0
 19 20  2  0  0  0  0
 32 35  1  0  0  0  0
  8 11  1  0  0  0  0
 21 23  1  0  0  0  0
 41 42  1  0  0  0  0
 31 32  1  0  0  0  0
  7  8  1  0  0  0  0
 18 21  1  0  0  0  0
 17 18  1  0  0  0  0
 21 22  1  0  0  0  0
  3  4  1  0  0  0  0
  3  5  1  0  0  0  0
  3  6  1  0  0  0  0
 35 38  1  0  0  0  0
 35 39  1  0  0  0  0
 35 40  1  0  0  0  0
 11 14  1  0  0  0  0
 11 15  1  0  0  0  0
 11 16  1  0  0  0  0
 23 28  1  0  0  0  0
 23 29  1  0  0  0  0
 23 30  1  0  0  0  0
 42 44  1  0  0  0  0
 42 45  1  0  0  0  0
 42 46  1  0  0  0  0
 32 37  1  0  0  0  0
  8 13  1  0  0  0  0
 18 25  1  0  0  0  0
 21 26  1  0  0  0  0
 41 43  1  0  0  0  0
  7 12  1  0  0  0  0
 31 36  1  0  0  0  0
 17 24  1  0  0  0  0
 22 27  1  0  0  0  0
M  END
$$$$

  -OEChem-05262214473D

 46 45  0     1  0  0  0  0  0999 V2000
   -4.6700    2.7214    1.5150 C   0  0  0  0  0  0  0  0  0  0  0  0
   -5.4532    2.5715    0.5845 O   0  0  0  0  0  0  0  0  0  0  0  0
   -5.0996    3.4865    2.7226 C   0  0  0  0  0  0  0  0  0  0  0  0
   -4.8796    4.5629    2.6387 H   0  0  0  0  0  0  0  0  0  0  0  0
   -6.1861    3.4241    2.8954 H   0  0  0  0  0  0  0  0  0  0  0  0
   -4.6369    3.1693    3.6708 H   0  0  0  0  0  0  0  0  0  0  0  0
   -3.3731    2.2391    1.5790 N   0  0  0  0  0  0  0  0  0  0  0  0
   -2.7599    1.4751    0.5247 C   0  0  2  0  0  0  0  0  0  0  0  0
   -1.5143    0.8067    1.0915 C   0  0  0  0  0  0  0  0  0  0  0  0
   -0.9247    1.2213    2.0872 O   0  0  0  0  0  0  0  0  0  0  0  0
   -2.4106    2.3553   -0.6653 C   0  0  0  0  0  0  0  0  0  0  0  0
   -2.8254    2.4352    2.4150 H   0  0  0  0  0  0  0  0  0  0  0  0
   -3.4836    0.7082    0.2278 H   0  0  0  0  0  0  0  0  0  0  0  0
   -1.6866    3.1298   -0.3871 H   0  0  0  0  0  0  0  0  0  0  0  0
   -1.9704    1.7677   -1.4777 H   0  0  0  0  0  0  0  0  0  0  0  0
   -3.3030    2.8584   -1.0531 H   0  0  0  0  0  0  0  0  0  0  0  0
   -1.1107   -0.2839    0.3303 N   0  0  0  0  0  0  0  0  0  0  0  0
    0.0490   -1.0750    0.6539 C   0  0  2  0  0  0  0  0  0  0  0  0
    0.2254   -1.0356    2.1691 C   0  0  0  0  0  0  0  0  0  0  0  0
   -0.0940   -1.9667    2.9055 O   0  0  0  0  0  0  0  0  0  0  0  0
    1.3148   -0.6004   -0.0745 C   0  0  2  0  0  0  0  0  0  0  0  0
    1.6319    0.7428    0.2876 O   0  0  0  0  0  0  0  0  0  0  0  0
    1.1610   -0.6502   -1.5898 C   0  0  0  0  0  0  0  0  0  0  0  0
   -1.6733   -0.5660   -0.4691 H   0  0  0  0  0  0  0  0  0  0  0  0
   -0.1867   -2.1054    0.3610 H   0  0  0  0  0  0  0  0  0  0  0  0
    2.1715   -1.2237    0.2070 H   0  0  0  0  0  0  0  0  0  0  0  0
    2.4613    0.9606   -0.1644 H   0  0  0  0  0  0  0  0  0  0  0  0
    0.3150   -0.0412   -1.9264 H   0  0  0  0  0  0  0  0  0  0  0  0
    1.0201   -1.6766   -1.9417 H   0  0  0  0  0  0  0  0  0  0  0  0
    2.0523   -0.2365   -2.0743 H   0  0  0  0  0  0  0  0  0  0  0  0
    0.7347    0.1793    2.6052 N   0  0  0  0  0  0  0  0  0  0  0  0
    0.9602    0.4713    4.0014 C   0  0  2  0  0  0  0  0  0  0  0  0
    2.2575   -0.2077    4.4203 C   0  0  0  0  0  0  0  0  0  0  0  0
    2.7346   -1.1698    3.8222 O   0  0  0  0  0  0  0  0  0  0  0  0
   -0.2026   -0.0011    4.8602 C   0  0  0  0  0  0  0  0  0  0  0  0
    0.9577    0.8910    1.9155 H   0  0  0  0  0  0  0  0  0  0  0  0
    1.0731    1.5579    4.0830 H   0  0  0  0  0  0  0  0  0  0  0  0
   -0.3312   -1.0874    4.7913 H   0  0  0  0  0  0  0  0  0  0  0  0
   -0.0431    0.2465    5.9149 H   0  0  0  0  0  0  0  0  0  0  0  0
   -1.1397    0.4657    4.5383 H   0  0  0  0  0  0  0  0  0  0  0  0
    2.7971    0.3598    5.5661 N   0  0  0  0  0  0  0  0  0  0  0  0
    4.0197   -0.1159    6.1702 C   0  0  0  0  0  0  0  0  0  0  0  0
    2.3443    1.1669    5.9849 H   0  0  0  0  0  0  0  0  0  0  0  0
    3.7818   -0.8645    6.9402 H   0  0  0  0  0  0  0  0  0  0  0  0
    4.6561   -0.5734    5.3984 H   0  0  0  0  0  0  0  0  0  0  0  0
    4.5529    0.7282    6.6321 H   0  0  0  0  0  0  0  0  0  0  0  0
  1  3  1  0  0  0  0
  1  7  1  0  0  0  0
  1  2  2  0  0  0  0
 32 33  1  0  0  0  0
 33 41  1  0  0  0  0
 33 34  2  0  0  0  0
  8  9  1  0  0  0  0
  9 17  1  0  0  0  0
  9 10  2  0  0  0  0
 18 19  1  0  0  0  0
 19 31  1  0  0  0  0
 19 20  2  0  0  0  0
 32 35  1  0  0  0  0
  8 11  1  0  0  0  0
 21 23  1  0  0  0  0
 41 42  1  0  0  0  0
 31 32  1  0  0  0  0
  7  8  1  0  0  0  0
 18 21  1  0  0  0  0
 17 18  1  0  0  0  0
 21 22  1  0  0  0  0
  3  4  1  0  0  0  0
  3  5  1  0  0  0  0
  3  6  1  0  0  0  0
 35 38  1  0  0  0  0
 35 39  1  0  0  0  0
 35 40  1  0  0  0  0
 11 14  1  0  0  0  0
 11 15  1  0  0  0  0
 11 16  1  0  0  0  0
 23 28  1  0  0  0  0
 23 29  1  0  0  0  0
 23 30  1  0  0  0  0
 42 44  1  0  0  0  0
 42 45  1  0  0  0  0
 42 46  1  0  0  0  0
 32 37  1  0  0  0  0
  8 13  1  0  0  0  0
 18 25  1  0  0  0  0
 21 26  1  0  0  0  0
 41 43  1  0  0  0  0
  7 12  1  0  0  0  0
 31 36  1  0  0  0  0
 17 24  1  0  0  0  0
 22 27  1  0  0  0  0
M  END
$$$$

  -OEChem-05262214473D

 46 45  0     1  0  0  0  0  0999 V2000
   -4.6700    2.7214    1.5150 C   0  0  0  0  0  0  0  0  0  0  0  0
   -5.4532    2.5715    0.5845 O   0  0  0  0  0  0  0  0  0  0  0  0
   -5.0996    3.4865    2.7226 C   0  0  0  0  0  0  0  0  0  0  0  0
   -4.8796    4.5629    2.6387 H   0  0  0  0  0  0  0  0  0  0  0  0
   -6.1861    3.4241    2.8954 H   0  0  0  0  0  0  0  0  0  0  0  0
   -4.6369    3.1693    3.6708 H   0  0  0  0  0  0  0  0  0  0  0  0
   -3.3731    2.2391    1.5790 N   0  0  0  0  0  0  0  0  0  0  0  0
   -2.7599    1.4751    0.5247 C   0  0  2  0  0  0  0  0  0  0  0  0
   -1.5143    0.8067    1.0915 C   0  0  0  0  0  0  0  0  0  0  0  0
   -0.9247    1.2213    2.0872 O   0  0  0  0  0  0  0  0  0  0  0  0
   -2.4106    2.3553   -0.6653 C   0  0  0  0  0  0  0  0  0  0  0  0
   -2.8254    2.4352    2.4150 H   0  0  0  0  0  0  0  0  0  0  0  0
   -3.4836    0.7082    0.2278 H   0  0  0  0  0  0  0  0  0  0  0  0
   -1.6866    3.1298   -0.3871 H   0  0  0  0  0  0  0  0  0  0  0  0
   -1.9704    1.7677   -1.4777 H   0  0  0  0  0  0  0  0  0  0  0  0
   -3.3030    2.8584   -1.0531 H   0  0  0  0  0  0  0  0  0  0  0  0
   -1.1107   -0.2839    0.3303 N   0  0  0  0  0  0  0  0  0  0  0  0
    0.0490   -1.0750    0.6539 C   0  0  2  0  0  0  0  0  0  0  0  0
    0.2254   -1.0356    2.1691 C   0  0  0  0  0  0  0  0  0  0  0  0
    0.1637   -2.0385    2.8774 O   0  0  0  0  0  0  0  0  0  0  0  0
    1.3148   -0.6004   -0.0745 C   0  0  2  0  0  0  0  0  0  0  0  0
    1.6319    0.7428    0.2876 O   0  0  0  0  0  0  0  0  0  0  0  0
    1.1610   -0.6502   -1.5898 C   0  0  0  0  0  0  0  0  0  0  0  0
   -1.6733   -0.5660   -0.4691 H   0  0  0  0  0  0  0  0  0  0  0  0
   -0.1867   -2.1054    0.3610 H   0  0  0  0  0  0  0  0  0  0  0  0
    2.1715   -1.2237    0.2070 H   0  0  0  0  0  0  0  0  0  0  0  0
    2.4613    0.9606   -0.1644 H   0  0  0  0  0  0  0  0  0  0  0  0
    0.3150   -0.0412   -1.9264 H   0  0  0  0  0  0  0  0  0  0  0  0
    1.0201   -1.6766   -1.9417 H   0  0  0  0  0  0  0  0  0  0  0  0
    2.0523   -0.2365   -2.0743 H   0  0  0  0  0  0  0  0  0  0  0  0
    0.4101    0.2562    2.6410 N   0  0  0  0  0  0  0  0  0  0  0  0
    0.5678    0.5557    4.0448 C   0  0  2  0  0  0  0  0  0  0  0  0
    2.0003    0.2212    4.4391 C   0  0  0  0  0  0  0  0  0  0  0  0
    2.7022   -0.5681    3.8103 O   0  0  0  0  0  0  0  0  0  0  0  0
   -0.4254   -0.2245    4.8920 C   0  0  0  0  0  0  0  0  0  0  0  0
    0.4355    1.0210    1.9729 H   0  0  0  0  0  0  0  0  0  0  0  0
    0.3986    1.6319    4.1596 H   0  0  0  0  0  0  0  0  0  0  0  0
   -0.2714   -1.3049    4.7899 H   0  0  0  0  0  0  0  0  0  0  0  0
   -0.3238    0.0251    5.9533 H   0  0  0  0  0  0  0  0  0  0  0  0
   -1.4544   -0.0052    4.5871 H   0  0  0  0  0  0  0  0  0  0  0  0
    2.3882    0.8748    5.6003 N   0  0  0  0  0  0  0  0  0  0  0  0
    3.6983    0.7121    6.1861 C   0  0  0  0  0  0  0  0  0  0  0  0
    1.7477    1.5258    6.0450 H   0  0  0  0  0  0  0  0  0  0  0  0
    3.6688   -0.0946    6.9333 H   0  0  0  0  0  0  0  0  0  0  0  0
    4.4226    0.4562    5.3988 H   0  0  0  0  0  0  0  0  0  0  0  0
    4.0016    1.6511    6.6723 H   0  0  0  0  0  0  0  0  0  0  0  0
  1  3  1  0  0  0  0
  1  7  1  0  0  0  0
  1  2  2  0  0  0  0
 32 33  1  0  0  0  0
 33 41  1  0  0  0  0
 33 34  2  0  0  0  0
  8  9  1  0  0  0  0
  9 17  1  0  0  0  0
  9 10  2  0  0  0  0
 18 19  1  0  0  0  0
 19 31  1  0  0  0  0
 19 20  2  0  0  0  0
 32 35  1  0  0  0  0
  8 11  1  0  0  0  0
 21 23  1  0  0  0  0
 41 42  1  0  0  0  0
 31 32  1  0  0  0  0
  7  8  1  0  0  0  0
 18 21  1  0  0  0  0
 17 18  1  0  0  0  0
 21 22  1  0  0  0  0
  3  4  1  0  0  0  0
  3  5  1  0  0  0  0
  3  6  1  0  0  0  0
 35 38  1  0  0  0  0
 35 39  1  0  0  0  0
 35 40  1  0  0  0  0
 11 14  1  0  0  0  0
 11 15  1  0  0  0  0
 11 16  1  0  0  0  0
 23 28  1  0  0  0  0
 23 29  1  0  0  0  0
 23 30  1  0  0  0  0
 42 44  1  0  0  0  0
 42 45  1  0  0  0  0
 42 46  1  0  0  0  0
 32 37  1  0  0  0  0
  8 13  1  0  0  0  0
 18 25  1  0  0  0  0
 21 26  1  0  0  0  0
 41 43  1  0  0  0  0
  7 12  1  0  0  0  0
 31 36  1  0  0  0  0
 17 24  1  0  0  0  0
 22 27  1  0  0  0  0
M  END
$$$$

  -OEChem-05262214473D

 46 45  0     1  0  0  0  0  0999 V2000
   -4.6700    2.7214    1.5150 C   0  0  0  0  0  0  0  0  0  0  0  0
   -5.4532    2.5715    0.5845 O   0  0  0  0  0  0  0  0  0  0  0  0
   -5.0996    3.4865    2.7226 C   0  0  0  0  0  0  0  0  0  0  0  0
   -4.8796    4.5629    2.6387 H   0  0  0  0  0  0  0  0  0  0  0  0
   -6.1861    3.4241    2.8954 H   0  0  0  0  0  0  0  0  0  0  0  0
   -4.6369    3.1693    3.6708 H   0  0  0  0  0  0  0  0  0  0  0  0
   -3.3731    2.2391    1.5790 N   0  0  0  0  0  0  0  0  0  0  0  0
   -2.7599    1.4751    0.5247 C   0  0  2  0  0  0  0  0  0  0  0  0
   -1.5143    0.8067    1.0915 C   0  0  0  0  0  0  0  0  0  0  0  0
   -0.9247    1.2213    2.0872 O   0  0  0  0  0  0  0  0  0  0  0  0
   -2.4106    2.3553   -0.6653 C   0  0  0  0  0  0  0  0  0  0  0  0
   -2.8254    2.4352    2.4150 H   0  0  0  0  0  0  0  0  0  0  0  0
   -3.4836    0.7082    0.2278 H   0  0  0  0  0  0  0  0  0  0  0  0
   -1.6866    3.1298   -0.3871 H   0  0  0  0  0  0  0  0  0  0  0  0
   -1.9704    1.7677   -1.4777 H   0  0  0  0  0  0  0  0  0  0  0  0
   -3.3030    2.8584   -1.0531 H   0  0  0  0  0  0  0  0  0  0  0  0
   -1.1107   -0.2839    0.3303 N   0  0  0  0  0  0  0  0  0  0  0  0
    0.0490   -1.0750    0.6539 C   0  0  2  0  0  0  0  0  0  0  0  0
    0.2254   -1.0356    2.1691 C   0  0  0  0  0  0  0  0  0  0  0  0
    0.4310   -2.0408    2.8464 O   0  0  0  0  0  0  0  0  0  0  0  0
    1.3148   -0.6004   -0.0745 C   0  0  2  0  0  0  0  0  0  0  0  0
    1.6319    0.7428    0.2876 O   0  0  0  0  0  0  0  0  0  0  0  0
    1.1610   -0.6502   -1.5898 C   0  0  0  0  0  0  0  0  0  0  0  0
   -1.6733   -0.5660   -0.4691 H   0  0  0  0  0  0  0  0  0  0  0  0
   -0.1867   -2.1054    0.3610 H   0  0  0  0  0  0  0  0  0  0  0  0
    2.1715   -1.2237    0.2070 H   0  0  0  0  0  0  0  0  0  0  0  0
    2.4613    0.9606   -0.1644 H   0  0  0  0  0  0  0  0  0  0  0  0
    0.3150   -0.0412   -1.9264 H   0  0  0  0  0  0  0  0  0  0  0  0
    1.0201   -1.6766   -1.9417 H   0  0  0  0  0  0  0  0  0  0  0  0
    2.0523   -0.2365   -2.0743 H   0  0  0  0  0  0  0  0  0  0  0  0
    0.0770    0.2460    2.6800 N   0  0  0  0  0  0  0  0  0  0  0  0
    0.1673    0.5351    4.0920 C   0  0  2  0  0  0  0  0  0  0  0  0
    1.6418    0.5688    4.4718 C   0  0  0  0  0  0  0  0  0  0  0  0
    2.5162    0.0051    3.8170 O   0  0  0  0  0  0  0  0  0  0  0  0
   -0.5831   -0.4985    4.9174 C   0  0  0  0  0  0  0  0  0  0  0  0
   -0.1020    1.0107    2.0357 H   0  0  0  0  0  0  0  0  0  0  0  0
   -0.2714    1.5278    4.2403 H   0  0  0  0  0  0  0  0  0  0  0  0
   -0.1577   -1.4996    4.7818 H   0  0  0  0  0  0  0  0  0  0  0  0
   -0.5377   -0.2621    5.9857 H   0  0  0  0  0  0  0  0  0  0  0  0
   -1.6370   -0.5424    4.6224 H   0  0  0  0  0  0  0  0  0  0  0  0
    1.8610    1.2662    5.6515 N   0  0  0  0  0  0  0  0  0  0  0  0
    3.1751    1.4289    6.2284 C   0  0  0  0  0  0  0  0  0  0  0  0
    1.0795    1.7174    6.1178 H   0  0  0  0  0  0  0  0  0  0  0  0
    3.3618    0.6203    6.9505 H   0  0  0  0  0  0  0  0  0  0  0  0
    3.9325    1.3907    5.4316 H   0  0  0  0  0  0  0  0  0  0  0  0
    3.2321    2.3997    6.7424 H   0  0  0  0  0  0  0  0  0  0  0  0
  1  3  1  0  0  0  0
  1  7  1  0  0  0  0
  1  2  2  0  0  0  0
 32 33  1  0  0  0  0
 33 41  1  0  0  0  0
 33 34  2  0  0  0  0
  8  9  1  0  0  0  0
  9 17  1  0  0  0  0
  9 10  2  0  0  0  0
 18 19  1  0  0  0  0
 19 31  1  0  0  0  0
 19 20  2  0  0  0  0
 32 35  1  0  0  0  0
  8 11  1  0  0  0  0
 21 23  1  0  0  0  0
 41 42  1  0  0  0  0
 31 32  1  0  0  0  0
  7  8  1  0  0  0  0
 18 21  1  0  0  0  0
 17 18  1  0  0  0  0
 21 22  1  0  0  0  0
  3  4  1  0  0  0  0
  3  5  1  0  0  0  0
  3  6  1  0  0  0  0
 35 38  1  0  0  0  0
 35 39  1  0  0  0  0
 35 40  1  0  0  0  0
 11 14  1  0  0  0  0
 11 15  1  0  0  0  0
 11 16  1  0  0  0  0
 23 28  1  0  0  0  0
 23 29  1  0  0  0  0
 23 30  1  0  0  0  0
 42 44  1  0  0  0  0
 42 45  1  0  0  0  0
 42 46  1  0  0  0  0
 32 37  1  0  0  0  0
  8 13  1  0  0  0  0
 18 25  1  0  0  0  0
 21 26  1  0  0  0  0
 41 43  1  0  0  0  0
  7 12  1  0  0  0  0
 31 36  1  0  0  0  0
 17 24  1  0  0  0  0
 22 27  1  0  0  0  0
M  END
$$$$

  -OEChem-05262214473D

 46 45  0     1  0  0  0  0  0999 V2000
   -4.6700    2.7214    1.5150 C   0  0  0  0  0  0  0  0  0  0  0  0
   -5.4532    2.5715    0.5845 O   0  0  0  0  0  0  0  0  0  0  0  0
   -5.0996    3.4865    2.7226 C   0  0  0  0  0  0  0  0  0  0  0  0
   -4.8796    4.5629    2.6387 H   0  0  0  0  0  0  0  0  0  0  0  0
   -6.1861    3.4241    2.8954 H   0  0  0  0  0  0  0  0  0  0  0  0
   -4.6369    3.1693    3.6708 H   0  0  0  0  0  0  0  0  0  0  0  0
   -3.3731    2.2391    1.5790 N   0  0  0  0  0  0  0  0  0  0  0  0
   -2.7599    1.4751    0.5247 C   0  0  2  0  0  0  0  0  0  0  0  0
   -1.5143    0.8067    1.0915 C   0  0  0  0  0  0  0  0  0  0  0  0
   -0.9247    1.2213    2.0872 O   0  0  0  0  0  0  0  0  0  0  0  0
   -2.4106    2.3553   -0.6653 C   0  0  0  0  0  0  0  0  0  0  0  0
   -2.8254    2.4352    2.4150 H   0  0  0  0  0  0  0  0  0  0  0  0
   -3.4836    0.7082    0.2278 H   0  0  0  0  0  0  0  0  0  0  0  0
   -1.6866    3.1298   -0.3871 H   0  0  0  0  0  0  0  0  0  0  0  0
   -1.9704    1.7677   -1.4777 H   0  0  0  0  0  0  0  0  0  0  0  0
   -3.3030    2.8584   -1.0531 H   0  0  0  0  0  0  0  0  0  0  0  0
   -1.1107   -0.2839    0.3303 N   0  0  0  0  0  0  0  0  0  0  0  0
    0.0490   -1.0750    0.6539 C   0  0  2  0  0  0  0  0  0  0  0  0
    0.2254   -1.0356    2.1691 C   0  0  0  0  0  0  0  0  0  0  0  0
    0.6894   -1.9734    2.8145 O   0  0  0  0  0  0  0  0  0  0  0  0
    1.3148   -0.6004   -0.0745 C   0  0  2  0  0  0  0  0  0  0  0  0
    1.6319    0.7428    0.2876 O   0  0  0  0  0  0  0  0  0  0  0  0
    1.1610   -0.6502   -1.5898 C   0  0  0  0  0  0  0  0  0  0  0  0
   -1.6733   -0.5660   -0.4691 H   0  0  0  0  0  0  0  0  0  0  0  0
   -0.1867   -2.1054    0.3610 H   0  0  0  0  0  0  0  0  0  0  0  0
    2.1715   -1.2237    0.2070 H   0  0  0  0  0  0  0  0  0  0  0  0
    2.4613    0.9606   -0.1644 H   0  0  0  0  0  0  0  0  0  0  0  0
    0.3150   -0.0412   -1.9264 H   0  0  0  0  0  0  0  0  0  0  0  0
    1.0201   -1.6766   -1.9417 H   0  0  0  0  0  0  0  0  0  0  0  0
    2.0523   -0.2365   -2.0743 H   0  0  0  0  0  0  0  0  0  0  0  0
   -0.2418    0.1494    2.7197 N   0  0  0  0  0  0  0  0  0  0  0  0
   -0.2139    0.4108    4.1396 C   0  0  2  0  0  0  0  0  0  0  0  0
    1.2064    0.8115    4.5162 C   0  0  0  0  0  0  0  0  0  0  0  0
    2.1893    0.5108    3.8419 O   0  0  0  0  0  0  0  0  0  0  0  0
   -0.6648   -0.8045    4.9349 C   0  0  0  0  0  0  0  0  0  0  0  0
   -0.6181    0.8607    2.0997 H   0  0  0  0  0  0  0  0  0  0  0  0
   -0.8913    1.2526    4.3196 H   0  0  0  0  0  0  0  0  0  0  0  0
    0.0020   -1.6582    4.7673 H   0  0  0  0  0  0  0  0  0  0  0  0
   -0.6703   -0.5955    6.0098 H   0  0  0  0  0  0  0  0  0  0  0  0
   -1.6751   -1.1093    4.6415 H   0  0  0  0  0  0  0  0  0  0  0  0
    1.2516    1.5072    5.7162 N   0  0  0  0  0  0  0  0  0  0  0  0
    2.4858    1.9854    6.2941 C   0  0  0  0  0  0  0  0  0  0  0  0
    0.3854    1.7286    6.1983 H   0  0  0  0  0  0  0  0  0  0  0  0
    2.8816    1.2314    6.9905 H   0  0  0  0  0  0  0  0  0  0  0  0
    3.2191    2.1665    5.4944 H   0  0  0  0  0  0  0  0  0  0  0  0
    2.2970    2.9230    6.8376 H   0  0  0  0  0  0  0  0  0  0  0  0
  1  3  1  0  0  0  0
  1  7  1  0  0  0  0
  1  2  2  0  0  0  0
 32 33  1  0  0  0  0
 33 41  1  0  0  0  0
 33 34  2  0  0  0  0
  8  9  1  0  0  0  0
  9 17  1  0  0  0  0
  9 10  2  0  0  0  0
 18 19  1  0  0  0  0
 19 31  1  0  0  0  0
 19 20  2  0  0  0  0
 32 35  1  0  0  0  0
  8 11  1  0  0  0  0
 21 23  1  0  0  0  0
 41 42  1  0  0  0  0
 31 32  1  0  0  0  0
  7  8  1  0  0  0  0
 18 21  1  0  0  0  0
 17 18  1  0  0  0  0
 21 22  1  0  0  0  0
  3  4  1  0  0  0  0
  3  5  1  0  0  0  0
  3  6  1  0  0  0  0
 35 38  1  0  0  0  0
 35 39  1  0  0  0  0
 35 40  1  0  0  0  0
 11 14  1  0  0  0  0
 11 15  1  0  0  0  0
 11 16  1  0  0  0  0
 23 28  1  0  0  0  0
 23 29  1  0  0  0  0
 23 30  1  0  0  0  0
 42 44  1  0  0  0  0
 42 45  1  0  0  0  0
 42 46  1  0  0  0  0
 32 37  1  0  0  0  0
  8 13  1  0  0  0  0
 18 25  1  0  0  0  0
 21 26  1  0  0  0  0
 41 43  1  0  0  0  0
  7 12  1  0  0  0  0
 31 36  1  0  0  0  0
 17 24  1  0  0  0  0
 22 27  1  0  0  0  0
M  END
$$$$

  -OEChem-05262214473D

 46 45  0     1  0  0  0  0  0999 V2000
   -4.6700    2.7214    1.5150 C   0  0  0  0  0  0  0  0  0  0  0  0
   -5.4532    2.5715    0.5845 O   0  0  0  0  0  0  0  0  0  0  0  0
   -5.0996    3.4865    2.7226 C   0  0  0  0  0  0  0  0  0  0  0  0
   -4.8796    4.5629    2.6387 H   0  0  0  0  0  0  0  0  0  0  0  0
   -6.1861    3.4241    2.8954 H   0  0  0  0  0  0  0  0  0  0  0  0
   -4.6369    3.1693    3.6708 H   0  0  0  0  0  0  0  0  0  0  0  0
   -3.3731    2.2391    1.5790 N   0  0  0  0  0  0  0  0  0  0  0  0
   -2.7599    1.4751    0.5247 C   0  0  2  0  0  0  0  0  0  0  0  0
   -1.5143    0.8067    1.0915 C   0  0  0  0  0  0  0  0  0  0  0  0
   -0.9247    1.2213    2.0872 O   0  0  0  0  0  0  0  0  0  0  0  0
   -2.4106    2.3553   -0.6653 C   0  0  0  0  0  0  0  0  0  0  0  0
   -2.8254    2.4352    2.4150 H   0  0  0  0  0  0  0  0  0  0  0  0
   -3.4836    0.7082    0.2278 H   0  0  0  0  0  0  0  0  0  0  0  0
   -1.6866    3.1298   -0.3871 H   0  0  0  0  0  0  0  0  0  0  0  0
   -1.9704    1.7677   -1.4777 H   0  0  0  0  0  0  0  0  0  0  0  0
   -3.3030    2.8584   -1.0531 H   0  0  0  0  0  0  0  0  0  0  0  0
   -1.1107   -0.2839    0.3303 N   0  0  0  0  0  0  0  0  0  0  0  0
    0.0490   -1.0750    0.6539 C   0  0  2  0  0  0  0  0  0  0  0  0
    0.2254   -1.0356    2.1691 C   0  0  0  0  0  0  0  0  0  0  0  0
    0.9216   -1.8409    2.7840 O   0  0  0  0  0  0  0  0  0  0  0  0
    1.3148   -0.6004   -0.0745 C   0  0  2  0  0  0  0  0  0  0  0  0
    1.6319    0.7428    0.2876 O   0  0  0  0  0  0  0  0  0  0  0  0
    1.1610   -0.6502   -1.5898 C   0  0  0  0  0  0  0  0  0  0  0  0
   -1.6733   -0.5660   -0.4691 H   0  0  0  0  0  0  0  0  0  0  0  0
   -0.1867   -2.1054    0.3610 H   0  0  0  0  0  0  0  0  0  0  0  0
    2.1715   -1.2237    0.2070 H   0  0  0  0  0  0  0  0  0  0  0  0
    2.4613    0.9606   -0.1644 H   0  0  0  0  0  0  0  0  0  0  0  0
    0.3150   -0.0412   -1.9264 H   0  0  0  0  0  0  0  0  0  0  0  0
    1.0201   -1.6766   -1.9417 H   0  0  0  0  0  0  0  0  0  0  0  0
    2.0523   -0.2365   -2.0743 H   0  0  0  0  0  0  0  0  0  0  0  0
   -0.5247   -0.0270    2.7572 N   0  0  0  0  0  0  0  0  0  0  0  0
   -0.5498    0.1914    4.1844 C   0  0  2  0  0  0  0  0  0  0  0  0
    0.7238    0.9326    4.5692 C   0  0  0  0  0  0  0  0  0  0  0  0
    1.7437    0.9145    3.8833 O   0  0  0  0  0  0  0  0  0  0  0  0
   -0.6649   -1.1215    4.9432 C   0  0  0  0  0  0  0  0  0  0  0  0
   -1.0776    0.5813    2.1605 H   0  0  0  0  0  0  0  0  0  0  0  0
   -1.4188    0.8252    4.3921 H   0  0  0  0  0  0  0  0  0  0  0  0
    0.1970   -1.7698    4.7475 H   0  0  0  0  0  0  0  0  0  0  0  0
   -0.7126   -0.9523    6.0240 H   0  0  0  0  0  0  0  0  0  0  0  0
   -1.5661   -1.6672    4.6434 H   0  0  0  0  0  0  0  0  0  0  0  0
    0.6014    1.5814    5.7899 N   0  0  0  0  0  0  0  0  0  0  0  0
    1.6774    2.3439    6.3789 C   0  0  0  0  0  0  0  0  0  0  0  0
   -0.2874    1.5586    6.2811 H   0  0  0  0  0  0  0  0  0  0  0  0
    2.2609    1.6971    7.0506 H   0  0  0  0  0  0  0  0  0  0  0  0
    2.3310    2.7305    5.5831 H   0  0  0  0  0  0  0  0  0  0  0  0
    1.2598    3.1852    6.9515 H   0  0  0  0  0  0  0  0  0  0  0  0
  1  3  1  0  0  0  0
  1  7  1  0  0  0  0
  1  2  2  0  0  0  0
 32 33  1  0  0  0  0
 33 41  1  0  0  0  0
 33 34  2  0  0  0  0
  8  9  1  0  0  0  0
  9 17  1  0  0  0  0
  9 10  2  0  0  0  0
 18 19  1  0  0  0  0
 19 31  1  0  0  0  0
 19 20  2  0  0  0  0
 32 35  1  0  0  0  0
  8 11  1  0  0  0  0
 21 23  1  0  0  0  0
 41 42  1  0  0  0  0
 31 32  1  0  0  0  0
  7  8  1  0  0  0  0
 18 21  1  0  0  0  0
 17 18  1  0  0  0  0
 21 22  1  0  0  0  0
  3  4  1  0  0  0  0
  3  5  1  0  0  0  0
  3  6  1  0  0  0  0
 35 38  1  0  0  0  0
 35 39  1  0  0  0  0
 35 40  1  0  0  0  0
 11 14  1  0  0  0  0
 11 15  1  0  0  0  0
 11 16  1  0  0  0  0
 23 28  1  0  0  0  0
 23 29  1  0  0  0  0
 23 30  1  0  0  0  0
 42 44  1  0  0  0  0
 42 45  1  0  0  0  0
 42 46  1  0  0  0  0
 32 37  1  0  0  0  0
  8 13  1  0  0  0  0
 18 25  1  0  0  0  0
 21 26  1  0  0  0  0
 41 43  1  0  0  0  0
  7 12  1  0  0  0  0
 31 36  1  0  0  0  0
 17 24  1  0  0  0  0
 22 27  1  0  0  0  0
M  END
$$$$

  -OEChem-05262214473D

 46 45  0     1  0  0  0  0  0999 V2000
   -4.6700    2.7214    1.5150 C   0  0  0  0  0  0  0  0  0  0  0  0
   -5.4532    2.5715    0.5845 O   0  0  0  0  0  0  0  0  0  0  0  0
   -5.0996    3.4865    2.7226 C   0  0  0  0  0  0  0  0  0  0  0  0
   -4.8796    4.5629    2.6387 H   0  0  0  0  0  0  0  0  0  0  0  0
   -6.1861    3.4241    2.8954 H   0  0  0  0  0  0  0  0  0  0  0  0
   -4.6369    3.1693    3.6708 H   0  0  0  0  0  0  0  0  0  0  0  0
   -3.3731    2.2391    1.5790 N   0  0  0  0  0  0  0  0  0  0  0  0
   -2.7599    1.4751    0.5247 C   0  0  2  0  0  0  0  0  0  0  0  0
   -1.5143    0.8067    1.0915 C   0  0  0  0  0  0  0  0  0  0  0  0
   -0.9247    1.2213    2.0872 O   0  0  0  0  0  0  0  0  0  0  0  0
   -2.4106    2.3553   -0.6653 C   0  0  0  0  0  0  0  0  0  0  0  0
   -2.8254    2.4352    2.4150 H   0  0  0  0  0  0  0  0  0  0  0  0
   -3.4836    0.7082    0.2278 H   0  0  0  0  0  0  0  0  0  0  0  0
   -1.6866    3.1298   -0.3871 H   0  0  0  0  0  0  0  0  0  0  0  0
   -1.9704    1.7677   -1.4777 H   0  0  0  0  0  0  0  0  0  0  0  0
   -3.3030    2.8584   -1.0531 H   0  0  0  0  0  0  0  0  0  0  0  0
   -1.1107   -0.2839    0.3303 N   0  0  0  0  0  0  0  0  0  0  0  0
    0.0490   -1.0750    0.6539 C   0  0  2  0  0  0  0  0  0  0  0  0
    0.2254   -1.0356    2.1691 C   0  0  0  0  0  0  0  0  0  0  0  0
    1.1116   -1.6523    2.7570 O   0  0  0  0  0  0  0  0  0  0  0  0
    1.3148   -0.6004   -0.0745 C   0  0  2  0  0  0  0  0  0  0  0  0
    1.6319    0.7428    0.2876 O   0  0  0  0  0  0  0  0  0  0  0  0
    1.1610   -0.6502   -1.5898 C   0  0  0  0  0  0  0  0  0  0  0  0
   -1.6733   -0.5660   -0.4691 H   0  0  0  0  0  0  0  0  0  0  0  0
   -0.1867   -2.1054    0.3610 H   0  0  0  0  0  0  0  0  0  0  0  0
    2.1715   -1.2237    0.2070 H   0  0  0  0  0  0  0  0  0  0  0  0
    2.4613    0.9606   -0.1644 H   0  0  0  0  0  0  0  0  0  0  0  0
    0.3150   -0.0412   -1.9264 H   0  0  0  0  0  0  0  0  0  0  0  0
    1.0201   -1.6766   -1.9417 H   0  0  0  0  0  0  0  0  0  0  0  0
    2.0523   -0.2365   -2.0743 H   0  0  0  0  0  0  0  0  0  0  0  0
   -0.7524   -0.2713    2.7900 N   0  0  0  0  0  0  0  0  0  0  0  0
   -0.8176   -0.1082    4.2234 C   0  0  2  0  0  0  0  0  0  0  0  0
    0.2268    0.9240    4.6273 C   0  0  0  0  0  0  0  0  0  0  0  0
    1.2099    1.1886    3.9383 O   0  0  0  0  0  0  0  0  0  0  0  0
   -0.5835   -1.4280    4.9417 C   0  0  0  0  0  0  0  0  0  0  0  0
   -1.4493    0.1915    2.2139 H   0  0  0  0  0  0  0  0  0  0  0  0
   -1.8180    0.2745    4.4529 H   0  0  0  0  0  0  0  0  0  0  0  0
    0.4138   -1.8270    4.7238 H   0  0  0  0  0  0  0  0  0  0  0  0
   -0.6616   -1.3082    6.0273 H   0  0  0  0  0  0  0  0  0  0  0  0
   -1.3174   -2.1781    4.6277 H   0  0  0  0  0  0  0  0  0  0  0  0
   -0.0452    1.4839    5.8678 N   0  0  0  0  0  0  0  0  0  0  0  0
    0.8050    2.4799    6.4769 C   0  0  0  0  0  0  0  0  0  0  0  0
   -0.8931    1.2190    6.3604 H   0  0  0  0  0  0  0  0  0  0  0  0
    1.5422    1.9856    7.1268 H   0  0  0  0  0  0  0  0  0  0  0  0
    1.3289    3.0445    5.6916 H   0  0  0  0  0  0  0  0  0  0  0  0
    0.1914    3.1685    7.0763 H   0  0  0  0  0  0  0  0  0  0  0  0
  1  3  1  0  0  0  0
  1  7  1  0  0  0  0
  1  2  2  0  0  0  0
 32 33  1  0  0  0  0
 33 41  1  0  0  0  0
 33 34  2  0  0  0  0
  8  9  1  0  0  0  0
  9 17  1  0  0  0  0
  9 10  2  0  0  0  0
 18 19  1  0  0  0  0
 19 31  1  0  0  0  0
 19 20  2  0  0  0  0
 32 35  1  0  0  0  0
  8 11  1  0  0  0  0
 21 23  1  0  0  0  0
 41 42  1  0  0  0  0
 31 32  1  0  0  0  0
  7  8  1  0  0  0  0
 18 21  1  0  0  0  0
 17 18  1  0  0  0  0
 21 22  1  0  0  0  0
  3  4  1  0  0  0  0
  3  5  1  0  0  0  0
  3  6  1  0  0  0  0
 35 38  1  0  0  0  0
 35 39  1  0  0  0  0
 35 40  1  0  0  0  0
 11 14  1  0  0  0  0
 11 15  1  0  0  0  0
 11 16  1  0  0  0  0
 23 28  1  0  0  0  0
 23 29  1  0  0  0  0
 23 30  1  0  0  0  0
 42 44  1  0  0  0  0
 42 45  1  0  0  0  0
 42 46  1  0  0  0  0
 32 37  1  0  0  0  0
  8 13  1  0  0  0  0
 18 25  1  0  0  0  0
 21 26  1  0  0  0  0
 41 43  1  0  0  0  0
  7 12  1  0  0  0  0
 31 36  1  0  0  0  0
 17 24  1  0  0  0  0
 22 27  1  0  0  0  0
M  END
$$$$

  -OEChem-05262214473D

 46 45  0     1  0  0  0  0  0999 V2000
   -4.6700    2.7214    1.5150 C   0  0  0  0  0  0  0  0  0  0  0  0
   -5.4532    2.5715    0.5845 O   0  0  0  0  0  0  0  0  0  0  0  0
   -5.0996    3.4865    2.7226 C   0  0  0  0  0  0  0  0  0  0  0  0
   -4.8796    4.5629    2.6387 H   0  0  0  0  0  0  0  0  0  0  0  0
   -6.1861    3.4241    2.8954 H   0  0  0  0  0  0  0  0  0  0  0  0
   -4.6369    3.1693    3.6708 H   0  0  0  0  0  0  0  0  0  0  0  0
   -3.3731    2.2391    1.5790 N   0  0  0  0  0  0  0  0  0  0  0  0
   -2.7599    1.4751    0.5247 C   0  0  2  0  0  0  0  0  0  0  0  0
   -1.5143    0.8067    1.0915 C   0  0  0  0  0  0  0  0  0  0  0  0
   -0.9247    1.2213    2.0872 O   0  0  0  0  0  0  0  0  0  0  0  0
   -2.4106    2.3553   -0.6653 C   0  0  0  0  0  0  0  0  0  0  0  0
   -2.8254    2.4352    2.4150 H   0  0  0  0  0  0  0  0  0  0  0  0
   -3.4836    0.7082    0.2278 H   0  0  0  0  0  0  0  0  0  0  0  0
   -1.6866    3.1298   -0.3871 H   0  0  0  0  0  0  0  0  0  0  0  0
   -1.9704    1.7677   -1.4777 H   0  0  0  0  0  0  0  0  0  0  0  0
   -3.3030    2.8584   -1.0531 H   0  0  0  0  0  0  0  0  0  0  0  0
   -1.1107   -0.2839    0.3303 N   0  0  0  0  0  0  0  0  0  0  0  0
    0.0490   -1.0750    0.6539 C   0  0  2  0  0  0  0  0  0  0  0  0
    0.2254   -1.0356    2.1691 C   0  0  0  0  0  0  0  0  0  0  0  0
    1.2464   -1.4206    2.7353 O   0  0  0  0  0  0  0  0  0  0  0  0
    1.3148   -0.6004   -0.0745 C   0  0  2  0  0  0  0  0  0  0  0  0
    1.6319    0.7428    0.2876 O   0  0  0  0  0  0  0  0  0  0  0  0
    1.1610   -0.6502   -1.5898 C   0  0  0  0  0  0  0  0  0  0  0  0
   -1.6733   -0.5660   -0.4691 H   0  0  0  0  0  0  0  0  0  0  0  0
   -0.1867   -2.1054    0.3610 H   0  0  0  0  0  0  0  0  0  0  0  0
    2.1715   -1.2237    0.2070 H   0  0  0  0  0  0  0  0  0  0  0  0
    2.4613    0.9606   -0.1644 H   0  0  0  0  0  0  0  0  0  0  0  0
    0.3150   -0.0412   -1.9264 H   0  0  0  0  0  0  0  0  0  0  0  0
    1.0201   -1.6766   -1.9417 H   0  0  0  0  0  0  0  0  0  0  0  0
    2.0523   -0.2365   -2.0743 H   0  0  0  0  0  0  0  0  0  0  0  0
   -0.9093   -0.5667    2.8160 N   0  0  0  0  0  0  0  0  0  0  0  0
   -0.9990   -0.4676    4.2538 C   0  0  2  0  0  0  0  0  0  0  0  0
   -0.2506    0.7863    4.6864 C   0  0  0  0  0  0  0  0  0  0  0  0
    0.6241    1.3146    4.0032 O   0  0  0  0  0  0  0  0  0  0  0  0
   -0.4262   -1.7032    4.9305 C   0  0  0  0  0  0  0  0  0  0  0  0
   -1.7078   -0.2822    2.2563 H   0  0  0  0  0  0  0  0  0  0  0  0
   -2.0617   -0.3618    4.4978 H   0  0  0  0  0  0  0  0  0  0  0  0
    0.6379   -1.8258    4.6977 H   0  0  0  0  0  0  0  0  0  0  0  0
   -0.5209   -1.6390    6.0195 H   0  0  0  0  0  0  0  0  0  0  0  0
   -0.9460   -2.6073    4.5956 H   0  0  0  0  0  0  0  0  0  0  0  0
   -0.6441    1.2211    5.9443 N   0  0  0  0  0  0  0  0  0  0  0  0
   -0.0719    2.3841    6.5815 C   0  0  0  0  0  0  0  0  0  0  0  0
   -1.3903    0.7330    6.4309 H   0  0  0  0  0  0  0  0  0  0  0  0
    0.7743    2.0773    7.2138 H   0  0  0  0  0  0  0  0  0  0  0  0
    0.2810    3.0870    5.8125 H   0  0  0  0  0  0  0  0  0  0  0  0
   -0.8355    2.8741    7.2035 H   0  0  0  0  0  0  0  0  0  0  0  0
  1  3  1  0  0  0  0
  1  7  1  0  0  0  0
  1  2  2  0  0  0  0
 32 33  1  0  0  0  0
 33 41  1  0  0  0  0
 33 34  2  0  0  0  0
  8  9  1  0  0  0  0
  9 17  1  0  0  0  0
  9 10  2  0  0  0  0
 18 19  1  0  0  0  0
 19 31  1  0  0  0  0
 19 20  2  0  0  0  0
 32 35  1  0  0  0  0
  8 11  1  0  0  0  0
 21 23  1  0  0  0  0
 41 42  1  0  0  0  0
 31 32  1  0  0  0  0
  7  8  1  0  0  0  0
 18 21  1  0  0  0  0
 17 18  1  0  0  0  0
 21 22  1  0  0  0  0
  3  4  1  0  0  0  0
  3  5  1  0  0  0  0
  3  6  1  0  0  0  0
 35 38  1  0  0  0  0
 35 39  1  0  0  0  0
 35 40  1  0  0  0  0
 11 14  1  0  0  0  0
 11 15  1  0  0  0  0
 11 16  1  0  0  0  0
 23 28  1  0  0  0  0
 23 29  1  0  0  0  0
 23 30  1  0  0  0  0
 42 44  1  0  0  0  0
 42 45  1  0  0  0  0
 42 46  1  0  0  0  0
 32 37  1  0  0  0  0
  8 13  1  0  0  0  0
 18 25  1  0  0  0  0
 21 26  1  0  0  0  0
 41 43  1  0  0  0  0
  7 12  1  0  0  0  0
 31 36  1  0  0  0  0
 17 24  1  0  0  0  0
 22 27  1  0  0  0  0
M  END
$$$$

  -OEChem-05262214473D

 46 45  0     1  0  0  0  0  0999 V2000
   -4.6700    2.7214    1.5150 C   0  0  0  0  0  0  0  0  0  0  0  0
   -5.4532    2.5715    0.5845 O   0  0  0  0  0  0  0  0  0  0  0  0
   -5.0996    3.4865    2.7226 C   0  0  0  0  0  0  0  0  0  0  0  0
   -4.8796    4.5629    2.6387 H   0  0  0  0  0  0  0  0  0  0  0  0
   -6.1861    3.4241    2.8954 H   0  0  0  0  0  0  0  0  0  0  0  0
   -4.6369    3.1693    3.6708 H   0  0  0  0  0  0  0  0  0  0  0  0
   -3.3731    2.2391    1.5790 N   0  0  0  0  0  0  0  0  0  0  0  0
   -2.7599    1.4751    0.5247 C   0  0  2  0  0  0  0  0  0  0  0  0
   -1.5143    0.8067    1.0915 C   0  0  0  0  0  0  0  0  0  0  0  0
   -0.9247    1.2213    2.0872 O   0  0  0  0  0  0  0  0  0  0  0  0
   -2.4106    2.3553   -0.6653 C   0  0  0  0  0  0  0  0  0  0  0  0
   -2.8254    2.4352    2.4150 H   0  0  0  0  0  0  0  0  0  0  0  0
   -3.4836    0.7082    0.2278 H   0  0  0  0  0  0  0  0  0  0  0  0
   -1.6866    3.1298   -0.3871 H   0  0  0  0  0  0  0  0  0  0  0  0
   -1.9704    1.7677   -1.4777 H   0  0  0  0  0  0  0  0  0  0  0  0
   -3.3030    2.8584   -1.0531 H   0  0  0  0  0  0  0  0  0  0  0  0
   -1.1107   -0.2839    0.3303 N   0  0  0  0  0  0  0  0  0  0  0  0
    0.0490   -1.0750    0.6539 C   0  0  2  0  0  0  0  0  0  0  0  0
    0.2254   -1.0356    2.1691 C   0  0  0  0  0  0  0  0  0  0  0  0
    1.3170   -1.1614    2.7203 O   0  0  0  0  0  0  0  0  0  0  0  0
    1.3148   -0.6004   -0.0745 C   0  0  2  0  0  0  0  0  0  0  0  0
    1.6319    0.7428    0.2876 O   0  0  0  0  0  0  0  0  0  0  0  0
    1.1610   -0.6502   -1.5898 C   0  0  0  0  0  0  0  0  0  0  0  0
   -1.6733   -0.5660   -0.4691 H   0  0  0  0  0  0  0  0  0  0  0  0
   -0.1867   -2.1054    0.3610 H   0  0  0  0  0  0  0  0  0  0  0  0
    2.1715   -1.2237    0.2070 H   0  0  0  0  0  0  0  0  0  0  0  0
    2.4613    0.9606   -0.1644 H   0  0  0  0  0  0  0  0  0  0  0  0
    0.3150   -0.0412   -1.9264 H   0  0  0  0  0  0  0  0  0  0  0  0
    1.0201   -1.6766   -1.9417 H   0  0  0  0  0  0  0  0  0  0  0  0
    2.0523   -0.2365   -2.0743 H   0  0  0  0  0  0  0  0  0  0  0  0
   -0.9847   -0.8932    2.8332 N   0  0  0  0  0  0  0  0  0  0  0  0
   -1.0817   -0.8623    4.2737 C   0  0  2  0  0  0  0  0  0  0  0  0
   -0.6760    0.5288    4.7426 C   0  0  0  0  0  0  0  0  0  0  0  0
    0.0264    1.2839    4.0736 O   0  0  0  0  0  0  0  0  0  0  0  0
   -0.2035   -1.9281    4.9104 C   0  0  0  0  0  0  0  0  0  0  0  0
   -1.8354   -0.8074    2.2848 H   0  0  0  0  0  0  0  0  0  0  0  0
   -2.1333   -1.0404    4.5238 H   0  0  0  0  0  0  0  0  0  0  0  0
    0.8538   -1.7663    4.6710 H   0  0  0  0  0  0  0  0  0  0  0  0
   -0.3000   -1.9222    6.0012 H   0  0  0  0  0  0  0  0  0  0  0  0
   -0.4772   -2.9254    4.5493 H   0  0  0  0  0  0  0  0  0  0  0  0
   -1.1546    0.8111    6.0144 N   0  0  0  0  0  0  0  0  0  0  0  0
   -0.8937    2.0631    6.6855 C   0  0  0  0  0  0  0  0  0  0  0  0
   -1.7452    0.1336    6.4878 H   0  0  0  0  0  0  0  0  0  0  0  0
    0.0096    1.9660    7.3057 H   0  0  0  0  0  0  0  0  0  0  0  0
   -0.7414    2.8551    5.9375 H   0  0  0  0  0  0  0  0  0  0  0  0
   -1.7509    2.3221    7.3244 H   0  0  0  0  0  0  0  0  0  0  0  0
  1  3  1  0  0  0  0
  1  7  1  0  0  0  0
  1  2  2  0  0  0  0
 32 33  1  0  0  0  0
 33 41  1  0  0  0  0
 33 34  2  0  0  0  0
  8  9  1  0  0  0  0
  9 17  1  0  0  0  0
  9 10  2  0  0  0  0
 18 19  1  0  0  0  0
 19 31  1  0  0  0  0
 19 20  2  0  0  0  0
 32 35  1  0  0  0  0
  8 11  1  0  0  0  0
 21 23  1  0  0  0  0
 41 42  1  0  0  0  0
 31 32  1  0  0  0  0
  7  8  1  0  0  0  0
 18 21  1  0  0  0  0
 17 18  1  0  0  0  0
 21 22  1  0  0  0  0
  3  4  1  0  0  0  0
  3  5  1  0  0  0  0
  3  6  1  0  0  0  0
 35 38  1  0  0  0  0
 35 39  1  0  0  0  0
 35 40  1  0  0  0  0
 11 14  1  0  0  0  0
 11 15  1  0  0  0  0
 11 16  1  0  0  0  0
 23 28  1  0  0  0  0
 23 29  1  0  0  0  0
 23 30  1  0  0  0  0
 42 44  1  0  0  0  0
 42 45  1  0  0  0  0
 42 46  1  0  0  0  0
 32 37  1  0  0  0  0
  8 13  1  0  0  0  0
 18 25  1  0  0  0  0
 21 26  1  0  0  0  0
 41 43  1  0  0  0  0
  7 12  1  0  0  0  0
 31 36  1  0  0  0  0
 17 24  1  0  0  0  0
 22 27  1  0  0  0  0
M  END
$$$$

  -OEChem-05262214473D

 46 45  0     1  0  0  0  0  0999 V2000
   -4.6700    2.7214    1.5150 C   0  0  0  0  0  0  0  0  0  0  0  0
   -5.4532    2.5715    0.5845 O   0  0  0  0  0  0  0  0  0  0  0  0
   -5.0996    3.4865    2.7226 C   0  0  0  0  0  0  0  0  0  0  0  0
   -4.8796    4.5629    2.6387 H   0  0  0  0  0  0  0  0  0  0  0  0
   -6.1861    3.4241    2.8954 H   0  0  0  0  0  0  0  0  0  0  0  0
   -4.6369    3.1693    3.6708 H   0  0  0  0  0  0  0  0  0  0  0  0
   -3.3731    2.2391    1.5790 N   0  0  0  0  0  0  0  0  0  0  0  0
   -2.7599    1.4751    0.5247 C   0  0  2  0  0  0  0  0  0  0  0  0
   -1.5143    0.8067    1.0915 C   0  0  0  0  0  0  0  0  0  0  0  0
   -0.9247    1.2213    2.0872 O   0  0  0  0  0  0  0  0  0  0  0  0
   -2.4106    2.3553   -0.6653 C   0  0  0  0  0  0  0  0  0  0  0  0
   -2.8254    2.4352    2.4150 H   0  0  0  0  0  0  0  0  0  0  0  0
   -3.4836    0.7082    0.2278 H   0  0  0  0  0  0  0  0  0  0  0  0
   -1.6866    3.1298   -0.3871 H   0  0  0  0  0  0  0  0  0  0  0  0
   -1.9704    1.7677   -1.4777 H   0  0  0  0  0  0  0  0  0  0  0  0
   -3.3030    2.8584   -1.0531 H   0  0  0  0  0  0  0  0  0  0  0  0
   -1.1107   -0.2839    0.3303 N   0  0  0  0  0  0  0  0  0  0  0  0
    0.0490   -1.0750    0.6539 C   0  0  2  0  0  0  0  0  0  0  0  0
    0.2254   -1.0356    2.1691 C   0  0  0  0  0  0  0  0  0  0  0  0
    1.3184   -0.8925    2.7132 O   0  0  0  0  0  0  0  0  0  0  0  0
    1.3148   -0.6004   -0.0745 C   0  0  2  0  0  0  0  0  0  0  0  0
    1.6319    0.7428    0.2876 O   0  0  0  0  0  0  0  0  0  0  0  0
    1.1610   -0.6502   -1.5898 C   0  0  0  0  0  0  0  0  0  0  0  0
   -1.6733   -0.5660   -0.4691 H   0  0  0  0  0  0  0  0  0  0  0  0
   -0.1867   -2.1054    0.3610 H   0  0  0  0  0  0  0  0  0  0  0  0
    2.1715   -1.2237    0.2070 H   0  0  0  0  0  0  0  0  0  0  0  0
    2.4613    0.9606   -0.1644 H   0  0  0  0  0  0  0  0  0  0  0  0
    0.3150   -0.0412   -1.9264 H   0  0  0  0  0  0  0  0  0  0  0  0
    1.0201   -1.6766   -1.9417 H   0  0  0  0  0  0  0  0  0  0  0  0
    2.0523   -0.2365   -2.0743 H   0  0  0  0  0  0  0  0  0  0  0  0
   -0.9736   -1.2284    2.8407 N   0  0  0  0  0  0  0  0  0  0  0  0
   -1.0600   -1.2653    4.2817 C   0  0  2  0  0  0  0  0  0  0  0  0
   -1.0203    0.1690    4.7921 C   0  0  0  0  0  0  0  0  0  0  0  0
   -0.5426    1.0984    4.1447 O   0  0  0  0  0  0  0  0  0  0  0  0
    0.0692   -2.0876    4.8828 C   0  0  0  0  0  0  0  0  0  0  0  0
   -1.8235   -1.3483    2.2975 H   0  0  0  0  0  0  0  0  0  0  0  0
   -2.0278   -1.7150    4.5291 H   0  0  0  0  0  0  0  0  0  0  0  0
    1.0469   -1.6525    4.6455 H   0  0  0  0  0  0  0  0  0  0  0  0
   -0.0140   -2.1384    5.9735 H   0  0  0  0  0  0  0  0  0  0  0  0
    0.0571   -3.1108    4.4920 H   0  0  0  0  0  0  0  0  0  0  0  0
   -1.5419    0.2817    6.0732 N   0  0  0  0  0  0  0  0  0  0  0  0
   -1.6043    1.5387    6.7819 C   0  0  0  0  0  0  0  0  0  0  0  0
   -1.9335   -0.5382    6.5272 H   0  0  0  0  0  0  0  0  0  0  0  0
   -0.6998    1.6591    7.3962 H   0  0  0  0  0  0  0  0  0  0  0  0
   -1.6685    2.3646    6.0582 H   0  0  0  0  0  0  0  0  0  0  0  0
   -2.4924    1.5499    7.4308 H   0  0  0  0  0  0  0  0  0  0  0  0
  1  3  1  0  0  0  0
  1  7  1  0  0  0  0
  1  2  2  0  0  0  0
 32 33  1  0  0  0  0
 33 41  1  0  0  0  0
 33 34  2  0  0  0  0
  8  9  1  0  0  0  0
  9 17  1  0  0  0  0
  9 10  2  0  0  0  0
 18 19  1  0  0  0  0
 19 31  1  0  0  0  0
 19 20  2  0  0  0  0
 32 35  1  0  0  0  0
  8 11  1  0  0  0  0
 21 23  1  0  0  0  0
 41 42  1  0  0  0  0
 31 32  1  0  0  0  0
  7  8  1  0  0  0  0
 18 21  1  0  0  0  0
 17 18  1  0  0  0  0
 21 22  1  0  0  0  0
  3  4  1  0  0  0  0
  3  5  1  0  0  0  0
  3  6  1  0  0  0  0
 35 38  1  0  0  0  0
 35 39  1  0  0  0  0
 35 40  1  0  0  0  0
 11 14  1  0  0  0  0
 11 15  1  0  0  0  0
 11 16  1  0  0  0  0
 23 28  1  0  0  0  0
 23 29  1  0  0  0  0
 23 30  1  0  0  0  0
 42 44  1  0  0  0  0
 42 45  1  0  0  0  0
 42 46  1  0  0  0  0
 32 37  1  0  0  0  0
  8 13  1  0  0  0  0
 18 25  1  0  0  0  0
 21 26  1  0  0  0  0
 41 43  1  0  0  0  0
  7 12  1  0  0  0  0
 31 36  1  0  0  0  0
 17 24  1  0  0  0  0
 22 27  1  0  0  0  0
M  END
$$$$

  -OEChem-05262214473D

 46 45  0     1  0  0  0  0  0999 V2000
   -4.6700    2.7214    1.5150 C   0  0  0  0  0  0  0  0  0  0  0  0
   -5.4532    2.5715    0.5845 O   0  0  0  0  0  0  0  0  0  0  0  0
   -5.0996    3.4865    2.7226 C   0  0  0  0  0  0  0  0  0  0  0  0
   -4.8796    4.5629    2.6387 H   0  0  0  0  0  0  0  0  0  0  0  0
   -6.1861    3.4241    2.8954 H   0  0  0  0  0  0  0  0  0  0  0  0
   -4.6369    3.1693    3.6708 H   0  0  0  0  0  0  0  0  0  0  0  0
   -3.3731    2.2391    1.5790 N   0  0  0  0  0  0  0  0  0  0  0  0
   -2.7599    1.4751    0.5247 C   0  0  2  0  0  0  0  0  0  0  0  0
   -1.5143    0.8067    1.0915 C   0  0  0  0  0  0  0  0  0  0  0  0
   -0.9247    1.2213    2.0872 O   0  0  0  0  0  0  0  0  0  0  0  0
   -2.4106    2.3553   -0.6653 C   0  0  0  0  0  0  0  0  0  0  0  0
   -2.8254    2.4352    2.4150 H   0  0  0  0  0  0  0  0  0  0  0  0
   -3.4836    0.7082    0.2278 H   0  0  0  0  0  0  0  0  0  0  0  0
   -1.6866    3.1298   -0.3871 H   0  0  0  0  0  0  0  0  0  0  0  0
   -1.9704    1.7677   -1.4777 H   0  0  0  0  0  0  0  0  0  0  0  0
   -3.3030    2.8584   -1.0531 H   0  0  0  0  0  0  0  0  0  0  0  0
   -1.1107   -0.2839    0.3303 N   0  0  0  0  0  0  0  0  0  0  0  0
    0.0490   -1.0750    0.6539 C   0  0  2  0  0  0  0  0  0  0  0  0
    0.2254   -1.0356    2.1691 C   0  0  0  0  0  0  0  0  0  0  0  0
    1.2507   -0.6321    2.7143 O   0  0  0  0  0  0  0  0  0  0  0  0
    1.3148   -0.6004   -0.0745 C   0  0  2  0  0  0  0  0  0  0  0  0
    1.6319    0.7428    0.2876 O   0  0  0  0  0  0  0  0  0  0  0  0
    1.1610   -0.6502   -1.5898 C   0  0  0  0  0  0  0  0  0  0  0  0
   -1.6733   -0.5660   -0.4691 H   0  0  0  0  0  0  0  0  0  0  0  0
   -0.1867   -2.1054    0.3610 H   0  0  0  0  0  0  0  0  0  0  0  0
    2.1715   -1.2237    0.2070 H   0  0  0  0  0  0  0  0  0  0  0  0
    2.4613    0.9606   -0.1644 H   0  0  0  0  0  0  0  0  0  0  0  0
    0.3150   -0.0412   -1.9264 H   0  0  0  0  0  0  0  0  0  0  0  0
    1.0201   -1.6766   -1.9417 H   0  0  0  0  0  0  0  0  0  0  0  0
    2.0523   -0.2365   -2.0743 H   0  0  0  0  0  0  0  0  0  0  0  0
   -0.8766   -1.5496    2.8377 N   0  0  0  0  0  0  0  0  0  0  0  0
   -0.9354   -1.6493    4.2772 C   0  0  2  0  0  0  0  0  0  0  0  0
   -1.2601   -0.2684    4.8314 C   0  0  0  0  0  0  0  0  0  0  0  0
   -1.0441    0.7709    4.2115 O   0  0  0  0  0  0  0  0  0  0  0  0
    0.3735   -2.1708    4.8496 C   0  0  0  0  0  0  0  0  0  0  0  0
   -1.6730   -1.8682    2.2935 H   0  0  0  0  0  0  0  0  0  0  0  0
   -1.7525   -2.3397    4.5133 H   0  0  0  0  0  0  0  0  0  0  0  0
    1.2040   -1.4922    4.6231 H   0  0  0  0  0  0  0  0  0  0  0  0
    0.3176   -2.2728    5.9384 H   0  0  0  0  0  0  0  0  0  0  0  0
    0.6205   -3.1508    4.4274 H   0  0  0  0  0  0  0  0  0  0  0  0
   -1.7796   -0.3309    6.1168 N   0  0  0  0  0  0  0  0  0  0  0  0
   -2.1552    0.8466    6.8640 C   0  0  0  0  0  0  0  0  0  0  0  0
   -1.9426   -1.2368    6.5464 H   0  0  0  0  0  0  0  0  0  0  0  0
   -1.3056    1.1777    7.4793 H   0  0  0  0  0  0  0  0  0  0  0  0
   -2.4371    1.6490    6.1663 H   0  0  0  0  0  0  0  0  0  0  0  0
   -3.0095    0.6103    7.5154 H   0  0  0  0  0  0  0  0  0  0  0  0
  1  3  1  0  0  0  0
  1  7  1  0  0  0  0
  1  2  2  0  0  0  0
 32 33  1  0  0  0  0
 33 41  1  0  0  0  0
 33 34  2  0  0  0  0
  8  9  1  0  0  0  0
  9 17  1  0  0  0  0
  9 10  2  0  0  0  0
 18 19  1  0  0  0  0
 19 31  1  0  0  0  0
 19 20  2  0  0  0  0
 32 35  1  0  0  0  0
  8 11  1  0  0  0  0
 21 23  1  0  0  0  0
 41 42  1  0  0  0  0
 31 32  1  0  0  0  0
  7  8  1  0  0  0  0
 18 21  1  0  0  0  0
 17 18  1  0  0  0  0
 21 22  1  0  0  0  0
  3  4  1  0  0  0  0
  3  5  1  0  0  0  0
  3  6  1  0  0  0  0
 35 38  1  0  0  0  0
 35 39  1  0  0  0  0
 35 40  1  0  0  0  0
 11 14  1  0  0  0  0
 11 15  1  0  0  0  0
 11 16  1  0  0  0  0
 23 28  1  0  0  0  0
 23 29  1  0  0  0  0
 23 30  1  0  0  0  0
 42 44  1  0  0  0  0
 42 45  1  0  0  0  0
 42 46  1  0  0  0  0
 32 37  1  0  0  0  0
  8 13  1  0  0  0  0
 18 25  1  0  0  0  0
 21 26  1  0  0  0  0
 41 43  1  0  0  0  0
  7 12  1  0  0  0  0
 31 36  1  0  0  0  0
 17 24  1  0  0  0  0
 22 27  1  0  0  0  0
M  END
$$$$

  -OEChem-05262214473D

 46 45  0     1  0  0  0  0  0999 V2000
   -4.6700    2.7214    1.5150 C   0  0  0  0  0  0  0  0  0  0  0  0
   -5.4532    2.5715    0.5845 O   0  0  0  0  0  0  0  0  0  0  0  0
   -5.0996    3.4865    2.7226 C   0  0  0  0  0  0  0  0  0  0  0  0
   -4.8796    4.5629    2.6387 H   0  0  0  0  0  0  0  0  0  0  0  0
   -6.1861    3.4241    2.8954 H   0  0  0  0  0  0  0  0  0  0  0  0
   -4.6369    3.1693    3.6708 H   0  0  0  0  0  0  0  0  0  0  0  0
   -3.3731    2.2391    1.5790 N   0  0  0  0  0  0  0  0  0  0  0  0
   -2.7599    1.4751    0.5247 C   0  0  2  0  0  0  0  0  0  0  0  0
   -1.5143    0.8067    1.0915 C   0  0  0  0  0  0  0  0  0  0  0  0
   -0.9247    1.2213    2.0872 O   0  0  0  0  0  0  0  0  0  0  0  0
   -2.4106    2.3553   -0.6653 C   0  0  0  0  0  0  0  0  0  0  0  0
   -2.8254    2.4352    2.4150 H   0  0  0  0  0  0  0  0  0  0  0  0
   -3.4836    0.7082    0.2278 H   0  0  0  0  0  0  0  0  0  0  0  0
   -1.6866    3.1298   -0.3871 H   0  0  0  0  0  0  0  0  0  0  0  0
   -1.9704    1.7677   -1.4777 H   0  0  0  0  0  0  0  0  0  0  0  0
   -3.3030    2.8584   -1.0531 H   0  0  0  0  0  0  0  0  0  0  0  0
   -1.1107   -0.2839    0.3303 N   0  0  0  0  0  0  0  0  0  0  0  0
    0.0490   -1.0750    0.6539 C   0  0  2  0  0  0  0  0  0  0  0  0
    0.2254   -1.0356    2.1691 C   0  0  0  0  0  0  0  0  0  0  0  0
    1.1183   -0.3981    2.7236 O   0  0  0  0  0  0  0  0  0  0  0  0
    1.3148   -0.6004   -0.0745 C   0  0  2  0  0  0  0  0  0  0  0  0
    1.6319    0.7428    0.2876 O   0  0  0  0  0  0  0  0  0  0  0  0
    1.1610   -0.6502   -1.5898 C   0  0  0  0  0  0  0  0  0  0  0  0
   -1.6733   -0.5660   -0.4691 H   0  0  0  0  0  0  0  0  0  0  0  0
   -0.1867   -2.1054    0.3610 H   0  0  0  0  0  0  0  0  0  0  0  0
    2.1715   -1.2237    0.2070 H   0  0  0  0  0  0  0  0  0  0  0  0
    2.4613    0.9606   -0.1644 H   0  0  0  0  0  0  0  0  0  0  0  0
    0.3150   -0.0412   -1.9264 H   0  0  0  0  0  0  0  0  0  0  0  0
    1.0201   -1.6766   -1.9417 H   0  0  0  0  0  0  0  0  0  0  0  0
    2.0523   -0.2365   -2.0743 H   0  0  0  0  0  0  0  0  0  0  0  0
   -0.7004   -1.8349    2.8246 N   0  0  0  0  0  0  0  0  0  0  0  0
   -0.7164   -1.9881    4.2605 C   0  0  2  0  0  0  0  0  0  0  0  0
   -1.3791   -0.7538    4.8578 C   0  0  0  0  0  0  0  0  0  0  0  0
   -1.4439    0.3237    4.2697 O   0  0  0  0  0  0  0  0  0  0  0  0
    0.6885   -2.1719    4.8129 C   0  0  0  0  0  0  0  0  0  0  0  0
   -1.3939   -2.3315    2.2730 H   0  0  0  0  0  0  0  0  0  0  0  0
   -1.3262   -2.8719    4.4775 H   0  0  0  0  0  0  0  0  0  0  0  0
    1.3144   -1.2963    4.6051 H   0  0  0  0  0  0  0  0  0  0  0  0
    0.6723   -2.3164    5.8982 H   0  0  0  0  0  0  0  0  0  0  0  0
    1.1745   -3.0428    4.3601 H   0  0  0  0  0  0  0  0  0  0  0  0
   -1.8514   -0.9850    6.1422 N   0  0  0  0  0  0  0  0  0  0  0  0
   -2.5090    0.0342    6.9263 C   0  0  0  0  0  0  0  0  0  0  0  0
   -1.7716   -1.9144    6.5442 H   0  0  0  0  0  0  0  0  0  0  0  0
   -1.7665    0.5545    7.5491 H   0  0  0  0  0  0  0  0  0  0  0  0
   -2.9949    0.7570    6.2544 H   0  0  0  0  0  0  0  0  0  0  0  0
   -3.2669   -0.4327    7.5725 H   0  0  0  0  0  0  0  0  0  0  0  0
  1  3  1  0  0  0  0
  1  7  1  0  0  0  0
  1  2  2  0  0  0  0
 32 33  1  0  0  0  0
 33 41  1  0  0  0  0
 33 34  2  0  0  0  0
  8  9  1  0  0  0  0
  9 17  1  0  0  0  0
  9 10  2  0  0  0  0
 18 19  1  0  0  0  0
 19 31  1  0  0  0  0
 19 20  2  0  0  0  0
 32 35  1  0  0  0  0
  8 11  1  0  0  0  0
 21 23  1  0  0  0  0
 41 42  1  0  0  0  0
 31 32  1  0  0  0  0
  7  8  1  0  0  0  0
 18 21  1  0  0  0  0
 17 18  1  0  0  0  0
 21 22  1  0  0  0  0
  3  4  1  0  0  0  0
  3  5  1  0  0  0  0
  3  6  1  0  0  0  0
 35 38  1  0  0  0  0
 35 39  1  0  0  0  0
 35 40  1  0  0  0  0
 11 14  1  0  0  0  0
 11 15  1  0  0  0  0
 11 16  1  0  0  0  0
 23 28  1  0  0  0  0
 23 29  1  0  0  0  0
 23 30  1  0  0  0  0
 42 44  1  0  0  0  0
 42 45  1  0  0  0  0
 42 46  1  0  0  0  0
 32 37  1  0  0  0  0
  8 13  1  0  0  0  0
 18 25  1  0  0  0  0
 21 26  1  0  0  0  0
 41 43  1  0  0  0  0
  7 12  1  0  0  0  0
 31 36  1  0  0  0  0
 17 24  1  0  0  0  0
 22 27  1  0  0  0  0
M  END
$$$$

  -OEChem-05262214473D

 46 45  0     1  0  0  0  0  0999 V2000
   -4.6700    2.7214    1.5150 C   0  0  0  0  0  0  0  0  0  0  0  0
   -5.4532    2.5715    0.5845 O   0  0  0  0  0  0  0  0  0  0  0  0
   -5.0996    3.4865    2.7226 C   0  0  0  0  0  0  0  0  0  0  0  0
   -4.8796    4.5629    2.6387 H   0  0  0  0  0  0  0  0  0  0  0  0
   -6.1861    3.4241    2.8954 H   0  0  0  0  0  0  0  0  0  0  0  0
   -4.6369    3.1693    3.6708 H   0  0  0  0  0  0  0  0  0  0  0  0
   -3.3731    2.2391    1.5790 N   0  0  0  0  0  0  0  0  0  0  0  0
   -2.7599    1.4751    0.5247 C   0  0  2  0  0  0  0  0  0  0  0  0
   -1.5143    0.8067    1.0915 C   0  0  0  0  0  0  0  0  0  0  0  0
   -0.9247    1.2213    2.0872 O   0  0  0  0  0  0  0  0  0  0  0  0
   -2.4106    2.3553   -0.6653 C   0  0  0  0  0  0  0  0  0  0  0  0
   -2.8254    2.4352    2.4150 H   0  0  0  0  0  0  0  0  0  0  0  0
   -3.4836    0.7082    0.2278 H   0  0  0  0  0  0  0  0  0  0  0  0
   -1.6866    3.1298   -0.3871 H   0  0  0  0  0  0  0  0  0  0  0  0
   -1.9704    1.7677   -1.4777 H   0  0  0  0  0  0  0  0  0  0  0  0
   -3.3030    2.8584   -1.0531 H   0  0  0  0  0  0  0  0  0  0  0  0
   -1.1107   -0.2839    0.3303 N   0  0  0  0  0  0  0  0  0  0  0  0
    0.0490   -1.0750    0.6539 C   0  0  2  0  0  0  0  0  0  0  0  0
    0.2254   -1.0356    2.1691 C   0  0  0  0  0  0  0  0  0  0  0  0
    0.9304   -0.2063    2.7405 O   0  0  0  0  0  0  0  0  0  0  0  0
    1.3148   -0.6004   -0.0745 C   0  0  2  0  0  0  0  0  0  0  0  0
    1.6319    0.7428    0.2876 O   0  0  0  0  0  0  0  0  0  0  0  0
    1.1610   -0.6502   -1.5898 C   0  0  0  0  0  0  0  0  0  0  0  0
   -1.6733   -0.5660   -0.4691 H   0  0  0  0  0  0  0  0  0  0  0  0
   -0.1867   -2.1054    0.3610 H   0  0  0  0  0  0  0  0  0  0  0  0
    2.1715   -1.2237    0.2070 H   0  0  0  0  0  0  0  0  0  0  0  0
    2.4613    0.9606   -0.1644 H   0  0  0  0  0  0  0  0  0  0  0  0
    0.3150   -0.0412   -1.9264 H   0  0  0  0  0  0  0  0  0  0  0  0
    1.0201   -1.6766   -1.9417 H   0  0  0  0  0  0  0  0  0  0  0  0
    2.0523   -0.2365   -2.0743 H   0  0  0  0  0  0  0  0  0  0  0  0
   -0.4570   -2.0647    2.8023 N   0  0  0  0  0  0  0  0  0  0  0  0
   -0.4179   -2.2585    4.2328 C   0  0  2  0  0  0  0  0  0  0  0  0
   -1.3690   -1.2540    4.8697 C   0  0  0  0  0  0  0  0  0  0  0  0
   -1.7147   -0.2128    4.3152 O   0  0  0  0  0  0  0  0  0  0  0  0
    0.9929   -2.0909    4.7754 C   0  0  0  0  0  0  0  0  0  0  0  0
   -1.0055   -2.7067    2.2376 H   0  0  0  0  0  0  0  0  0  0  0  0
   -0.7779   -3.2753    4.4241 H   0  0  0  0  0  0  0  0  0  0  0  0
    1.3705   -1.0782    4.5929 H   0  0  0  0  0  0  0  0  0  0  0  0
    1.0258   -2.2662    5.8558 H   0  0  0  0  0  0  0  0  0  0  0  0
    1.6815   -2.7941    4.2946 H   0  0  0  0  0  0  0  0  0  0  0  0
   -1.7525   -1.6361    6.1476 N   0  0  0  0  0  0  0  0  0  0  0  0
   -2.6415   -0.8434    6.9645 C   0  0  0  0  0  0  0  0  0  0  0  0
   -1.4324   -2.5250    6.5205 H   0  0  0  0  0  0  0  0  0  0  0  0
   -2.0510   -0.1680    7.6010 H   0  0  0  0  0  0  0  0  0  0  0  0
   -3.3039   -0.2507    6.3166 H   0  0  0  0  0  0  0  0  0  0  0  0
   -3.2472   -1.5080    7.5982 H   0  0  0  0  0  0  0  0  0  0  0  0
  1  3  1  0  0  0  0
  1  7  1  0  0  0  0
  1  2  2  0  0  0  0
 32 33  1  0  0  0  0
 33 41  1  0  0  0  0
 33 34  2  0  0  0  0
  8  9  1  0  0  0  0
  9 17  1  0  0  0  0
  9 10  2  0  0  0  0
 18 19  1  0  0  0  0
 19 31  1  0  0  0  0
 19 20  2  0  0  0  0
 32 35  1  0  0  0  0
  8 11  1  0  0  0  0
 21 23  1  0  0  0  0
 41 42  1  0  0  0  0
 31 32  1  0  0  0  0
  7  8  1  0  0  0  0
 18 21  1  0  0  0  0
 17 18  1  0  0  0  0
 21 22  1  0  0  0  0
  3  4  1  0  0  0  0
  3  5  1  0  0  0  0
  3  6  1  0  0  0  0
 35 38  1  0  0  0  0
 35 39  1  0  0  0  0
 35 40  1  0  0  0  0
 11 14  1  0  0  0  0
 11 15  1  0  0  0  0
 11 16  1  0  0  0  0
 23 28  1  0  0  0  0
 23 29  1  0  0  0  0
 23 30  1  0  0  0  0
 42 44  1  0  0  0  0
 42 45  1  0  0  0  0
 42 46  1  0  0  0  0
 32 37  1  0  0  0  0
  8 13  1  0  0  0  0
 18 25  1  0  0  0  0
 21 26  1  0  0  0  0
 41 43  1  0  0  0  0
  7 12  1  0  0  0  0
 31 36  1  0  0  0  0
 17 24  1  0  0  0  0
 22 27  1  0  0  0  0
M  END
$$$$

  -OEChem-05262214473D

 46 45  0     1  0  0  0  0  0999 V2000
   -4.6700    2.7214    1.5150 C   0  0  0  0  0  0  0  0  0  0  0  0
   -5.4532    2.5715    0.5845 O   0  0  0  0  0  0  0  0  0  0  0  0
   -5.0996    3.4865    2.7226 C   0  0  0  0  0  0  0  0  0  0  0  0
   -4.8796    4.5629    2.6387 H   0  0  0  0  0  0  0  0  0  0  0  0
   -6.1861    3.4241    2.8954 H   0  0  0  0  0  0  0  0  0  0  0  0
   -4.6369    3.1693    3.6708 H   0  0  0  0  0  0  0  0  0  0  0  0
   -3.3731    2.2391    1.5790 N   0  0  0  0  0  0  0  0  0  0  0  0
   -2.7599    1.4751    0.5247 C   0  0  2  0  0  0  0  0  0  0  0  0
   -1.5143    0.8067    1.0915 C   0  0  0  0  0  0  0  0  0  0  0  0
   -0.9247    1.2213    2.0872 O   0  0  0  0  0  0  0  0  0  0  0  0
   -2.4106    2.3553   -0.6653 C   0  0  0  0  0  0  0  0  0  0  0  0
   -2.8254    2.4352    2.4150 H   0  0  0  0  0  0  0  0  0  0  0  0
   -3.4836    0.7082    0.2278 H   0  0  0  0  0  0  0  0  0  0  0  0
   -1.6866    3.1298   -0.3871 H   0  0  0  0  0  0  0  0  0  0  0  0
   -1.9704    1.7677   -1.4777 H   0  0  0  0  0  0  0  0  0  0  0  0
   -3.3030    2.8584   -1.0531 H   0  0  0  0  0  0  0  0  0  0  0  0
   -1.1107   -0.2839    0.3303 N   0  0  0  0  0  0  0  0  0  0  0  0
    0.0490   -1.0750    0.6539 C   0  0  2  0  0  0  0  0  0  0  0  0
    0.2254   -1.0356    2.1691 C   0  0  0  0  0  0  0  0  0  0  0  0
    0.6997   -0.0699    2.7638 O   0  0  0  0  0  0  0  0  0  0  0  0
    1.3148   -0.6004   -0.0745 C   0  0  2  0  0  0  0  0  0  0  0  0
    1.6319    0.7428    0.2876 O   0  0  0  0  0  0  0  0  0  0  0  0
    1.1610   -0.6502   -1.5898 C   0  0  0  0  0  0  0  0  0  0  0  0
   -1.6733   -0.5660   -0.4691 H   0  0  0  0  0  0  0  0  0  0  0  0
   -0.1867   -2.1054    0.3610 H   0  0  0  0  0  0  0  0  0  0  0  0
    2.1715   -1.2237    0.2070 H   0  0  0  0  0  0  0  0  0  0  0  0
    2.4613    0.9606   -0.1644 H   0  0  0  0  0  0  0  0  0  0  0  0
    0.3150   -0.0412   -1.9264 H   0  0  0  0  0  0  0  0  0  0  0  0
    1.0201   -1.6766   -1.9417 H   0  0  0  0  0  0  0  0  0  0  0  0
    2.0523   -0.2365   -2.0743 H   0  0  0  0  0  0  0  0  0  0  0  0
   -0.1630   -2.2235    2.7722 N   0  0  0  0  0  0  0  0  0  0  0  0
   -0.0602   -2.4422    4.1959 C   0  0  2  0  0  0  0  0  0  0  0  0
   -1.2307   -1.7349    4.8661 C   0  0  0  0  0  0  0  0  0  0  0  0
   -1.8381   -0.8019    4.3449 O   0  0  0  0  0  0  0  0  0  0  0  0
    1.2658   -1.9333    4.7396 C   0  0  0  0  0  0  0  0  0  0  0  0
   -0.5341   -2.9683    2.1895 H   0  0  0  0  0  0  0  0  0  0  0  0
   -0.1449   -3.5224    4.3569 H   0  0  0  0  0  0  0  0  0  0  0  0
    1.3686   -0.8527    4.5873 H   0  0  0  0  0  0  0  0  0  0  0  0
    1.3541   -2.1256    5.8139 H   0  0  0  0  0  0  0  0  0  0  0  0
    2.1068   -2.4216    4.2354 H   0  0  0  0  0  0  0  0  0  0  0  0
   -1.4896   -2.2397    6.1327 N   0  0  0  0  0  0  0  0  0  0  0  0
   -2.5437   -1.7263    6.9761 C   0  0  0  0  0  0  0  0  0  0  0  0
   -0.9479   -3.0269    6.4772 H   0  0  0  0  0  0  0  0  0  0  0  0
   -2.1398   -0.9406    7.6315 H   0  0  0  0  0  0  0  0  0  0  0  0
   -3.3429   -1.3052    6.3485 H   0  0  0  0  0  0  0  0  0  0  0  0
   -2.9516   -2.5424    7.5907 H   0  0  0  0  0  0  0  0  0  0  0  0
  1  3  1  0  0  0  0
  1  7  1  0  0  0  0
  1  2  2  0  0  0  0
 32 33  1  0  0  0  0
 33 41  1  0  0  0  0
 33 34  2  0  0  0  0
  8  9  1  0  0  0  0
  9 17  1  0  0  0  0
  9 10  2  0  0  0  0
 18 19  1  0  0  0  0
 19 31  1  0  0  0  0
 19 20  2  0  0  0  0
 32 35  1  0  0  0  0
  8 11  1  0  0  0  0
 21 23  1  0  0  0  0
 41 42  1  0  0  0  0
 31 32  1  0  0  0  0
  7  8  1  0  0  0  0
 18 21  1  0  0  0  0
 17 18  1  0  0  0  0
 21 22  1  0  0  0  0
  3  4  1  0  0  0  0
  3  5  1  0  0  0  0
  3  6  1  0  0  0  0
 35 38  1  0  0  0  0
 35 39  1  0  0  0  0
 35 40  1  0  0  0  0
 11 14  1  0  0  0  0
 11 15  1  0  0  0  0
 11 16  1  0  0  0  0
 23 28  1  0  0  0  0
 23 29  1  0  0  0  0
 23 30  1  0  0  0  0
 42 44  1  0  0  0  0
 42 45  1  0  0  0  0
 42 46  1  0  0  0  0
 32 37  1  0  0  0  0
  8 13  1  0  0  0  0
 18 25  1  0  0  0  0
 21 26  1  0  0  0  0
 41 43  1  0  0  0  0
  7 12  1  0  0  0  0
 31 36  1  0  0  0  0
 17 24  1  0  0  0  0
 22 27  1  0  0  0  0
M  END
$$$$

  -OEChem-05262214473D

 46 45  0     1  0  0  0  0  0999 V2000
   -4.6700    2.7214    1.5150 C   0  0  0  0  0  0  0  0  0  0  0  0
   -5.4532    2.5715    0.5845 O   0  0  0  0  0  0  0  0  0  0  0  0
   -5.0996    3.4865    2.7226 C   0  0  0  0  0  0  0  0  0  0  0  0
   -4.8796    4.5629    2.6387 H   0  0  0  0  0  0  0  0  0  0  0  0
   -6.1861    3.4241    2.8954 H   0  0  0  0  0  0  0  0  0  0  0  0
   -4.6369    3.1693    3.6708 H   0  0  0  0  0  0  0  0  0  0  0  0
   -3.3731    2.2391    1.5790 N   0  0  0  0  0  0  0  0  0  0  0  0
   -2.7599    1.4751    0.5247 C   0  0  2  0  0  0  0  0  0  0  0  0
   -1.5143    0.8067    1.0915 C   0  0  0  0  0  0  0  0  0  0  0  0
   -0.9247    1.2213    2.0872 O   0  0  0  0  0  0  0  0  0  0  0  0
   -2.4106    2.3553   -0.6653 C   0  0  0  0  0  0  0  0  0  0  0  0
   -2.8254    2.4352    2.4150 H   0  0  0  0  0  0  0  0  0  0  0  0
   -3.4836    0.7082    0.2278 H   0  0  0  0  0  0  0  0  0  0  0  0
   -1.6866    3.1298   -0.3871 H   0  0  0  0  0  0  0  0  0  0  0  0
   -1.9704    1.7677   -1.4777 H   0  0  0  0  0  0  0  0  0  0  0  0
   -3.3030    2.8584   -1.0531 H   0  0  0  0  0  0  0  0  0  0  0  0
   -1.1107   -0.2839    0.3303 N   0  0  0  0  0  0  0  0  0  0  0  0
    0.0490   -1.0750    0.6539 C   0  0  2  0  0  0  0  0  0  0  0  0
    0.2254   -1.0356    2.1691 C   0  0  0  0  0  0  0  0  0  0  0  0
    0.4420    0.0019    2.7920 O   0  0  0  0  0  0  0  0  0  0  0  0
    1.3148   -0.6004   -0.0745 C   0  0  2  0  0  0  0  0  0  0  0  0
    1.6319    0.7428    0.2876 O   0  0  0  0  0  0  0  0  0  0  0  0
    1.1610   -0.6502   -1.5898 C   0  0  0  0  0  0  0  0  0  0  0  0
   -1.6733   -0.5660   -0.4691 H   0  0  0  0  0  0  0  0  0  0  0  0
   -0.1867   -2.1054    0.3610 H   0  0  0  0  0  0  0  0  0  0  0  0
    2.1715   -1.2237    0.2070 H   0  0  0  0  0  0  0  0  0  0  0  0
    2.4613    0.9606   -0.1644 H   0  0  0  0  0  0  0  0  0  0  0  0
    0.3150   -0.0412   -1.9264 H   0  0  0  0  0  0  0  0  0  0  0  0
    1.0201   -1.6766   -1.9417 H   0  0  0  0  0  0  0  0  0  0  0  0
    2.0523   -0.2365   -2.0743 H   0  0  0  0  0  0  0  0  0  0  0  0
    0.1616   -2.3004    2.7364 N   0  0  0  0  0  0  0  0  0  0  0  0
    0.3322   -2.5266    4.1524 C   0  0  2  0  0  0  0  0  0  0  0  0
   -0.9736   -2.1638    4.8473 C   0  0  0  0  0  0  0  0  0  0  0  0
   -1.8058   -1.4036    4.3568 O   0  0  0  0  0  0  0  0  0  0  0  0
    1.4886   -1.7099    4.7078 C   0  0  0  0  0  0  0  0  0  0  0  0
   -0.0119   -3.0983    2.1321 H   0  0  0  0  0  0  0  0  0  0  0  0
    0.5296   -3.5965    4.2803 H   0  0  0  0  0  0  0  0  0  0  0  0
    1.3088   -0.6353    4.5886 H   0  0  0  0  0  0  0  0  0  0  0  0
    1.6348   -1.9041    5.7755 H   0  0  0  0  0  0  0  0  0  0  0  0
    2.4215   -1.9507    4.1866 H   0  0  0  0  0  0  0  0  0  0  0  0
   -1.0806   -2.7547    6.0985 N   0  0  0  0  0  0  0  0  0  0  0  0
   -2.2222   -2.5543    6.9602 C   0  0  0  0  0  0  0  0  0  0  0  0
   -0.3513   -3.3858    6.4171 H   0  0  0  0  0  0  0  0  0  0  0  0
   -2.0268   -1.7105    7.6383 H   0  0  0  0  0  0  0  0  0  0  0  0
   -3.1095   -2.3348    6.3481 H   0  0  0  0  0  0  0  0  0  0  0  0
   -2.4003   -3.4653    7.5505 H   0  0  0  0  0  0  0  0  0  0  0  0
  1  3  1  0  0  0  0
  1  7  1  0  0  0  0
  1  2  2  0  0  0  0
 32 33  1  0  0  0  0
 33 41  1  0  0  0  0
 33 34  2  0  0  0  0
  8  9  1  0  0  0  0
  9 17  1  0  0  0  0
  9 10  2  0  0  0  0
 18 19  1  0  0  0  0
 19 31  1  0  0  0  0
 19 20  2  0  0  0  0
 32 35  1  0  0  0  0
  8 11  1  0  0  0  0
 21 23  1  0  0  0  0
 41 42  1  0  0  0  0
 31 32  1  0  0  0  0
  7  8  1  0  0  0  0
 18 21  1  0  0  0  0
 17 18  1  0  0  0  0
 21 22  1  0  0  0  0
  3  4  1  0  0  0  0
  3  5  1  0  0  0  0
  3  6  1  0  0  0  0
 35 38  1  0  0  0  0
 35 39  1  0  0  0  0
 35 40  1  0  0  0  0
 11 14  1  0  0  0  0
 11 15  1  0  0  0  0
 11 16  1  0  0  0  0
 23 28  1  0  0  0  0
 23 29  1  0  0  0  0
 23 30  1  0  0  0  0
 42 44  1  0  0  0  0
 42 45  1  0  0  0  0
 42 46  1  0  0  0  0
 32 37  1  0  0  0  0
  8 13  1  0  0  0  0
 18 25  1  0  0  0  0
 21 26  1  0  0  0  0
 41 43  1  0  0  0  0
  7 12  1  0  0  0  0
 31 36  1  0  0  0  0
 17 24  1  0  0  0  0
 22 27  1  0  0  0  0
M  END
$$$$

  -OEChem-05262214473D

 46 45  0     1  0  0  0  0  0999 V2000
   -4.6700    2.7214    1.5150 C   0  0  0  0  0  0  0  0  0  0  0  0
   -5.4532    2.5715    0.5845 O   0  0  0  0  0  0  0  0  0  0  0  0
   -5.0996    3.4865    2.7226 C   0  0  0  0  0  0  0  0  0  0  0  0
   -4.8796    4.5629    2.6387 H   0  0  0  0  0  0  0  0  0  0  0  0
   -6.1861    3.4241    2.8954 H   0  0  0  0  0  0  0  0  0  0  0  0
   -4.6369    3.1693    3.6708 H   0  0  0  0  0  0  0  0  0  0  0  0
   -3.3731    2.2391    1.5790 N   0  0  0  0  0  0  0  0  0  0  0  0
   -2.7599    1.4751    0.5247 C   0  0  2  0  0  0  0  0  0  0  0  0
   -1.5143    0.8067    1.0915 C   0  0  0  0  0  0  0  0  0  0  0  0
   -0.9247    1.2213    2.0872 O   0  0  0  0  0  0  0  0  0  0  0  0
   -2.4106    2.3553   -0.6653 C   0  0  0  0  0  0  0  0  0  0  0  0
   -2.8254    2.4352    2.4150 H   0  0  0  0  0  0  0  0  0  0  0  0
   -3.4836    0.7082    0.2278 H   0  0  0  0  0  0  0  0  0  0  0  0
   -1.6866    3.1298   -0.3871 H   0  0  0  0  0  0  0  0  0  0  0  0
   -1.9704    1.7677   -1.4777 H   0  0  0  0  0  0  0  0  0  0  0  0
   -3.3030    2.8584   -1.0531 H   0  0  0  0  0  0  0  0  0  0  0  0
   -1.1107   -0.2839    0.3303 N   0  0  0  0  0  0  0  0  0  0  0  0
    0.0490   -1.0750    0.6539 C   0  0  2  0  0  0  0  0  0  0  0  0
    0.2254   -1.0356    2.1691 C   0  0  0  0  0  0  0  0  0  0  0  0
    0.1747    0.0042    2.8230 O   0  0  0  0  0  0  0  0  0  0  0  0
    1.3148   -0.6004   -0.0745 C   0  0  2  0  0  0  0  0  0  0  0  0
    1.6319    0.7428    0.2876 O   0  0  0  0  0  0  0  0  0  0  0  0
    1.1610   -0.6502   -1.5898 C   0  0  0  0  0  0  0  0  0  0  0  0
   -1.6733   -0.5660   -0.4691 H   0  0  0  0  0  0  0  0  0  0  0  0
   -0.1867   -2.1054    0.3610 H   0  0  0  0  0  0  0  0  0  0  0  0
    2.1715   -1.2237    0.2070 H   0  0  0  0  0  0  0  0  0  0  0  0
    2.4613    0.9606   -0.1644 H   0  0  0  0  0  0  0  0  0  0  0  0
    0.3150   -0.0412   -1.9264 H   0  0  0  0  0  0  0  0  0  0  0  0
    1.0201   -1.6766   -1.9417 H   0  0  0  0  0  0  0  0  0  0  0  0
    2.0523   -0.2365   -2.0743 H   0  0  0  0  0  0  0  0  0  0  0  0
    0.4947   -2.2903    2.6974 N   0  0  0  0  0  0  0  0  0  0  0  0
    0.7326   -2.5059    4.1053 C   0  0  2  0  0  0  0  0  0  0  0  0
   -0.6151   -2.5114    4.8146 C   0  0  0  0  0  0  0  0  0  0  0  0
   -1.6198   -1.9768    4.3500 O   0  0  0  0  0  0  0  0  0  0  0  0
    1.6463   -1.4359    4.6823 C   0  0  0  0  0  0  0  0  0  0  0  0
    0.5256   -3.0880    2.0693 H   0  0  0  0  0  0  0  0  0  0  0  0
    1.1996   -3.4924    4.1996 H   0  0  0  0  0  0  0  0  0  0  0  0
    1.1952   -0.4406    4.5968 H   0  0  0  0  0  0  0  0  0  0  0  0
    1.8487   -1.6169    5.7431 H   0  0  0  0  0  0  0  0  0  0  0  0
    2.6041   -1.4135    4.1513 H   0  0  0  0  0  0  0  0  0  0  0  0
   -0.5535   -3.1460    6.0473 N   0  0  0  0  0  0  0  0  0  0  0  0
   -1.6990   -3.2710    6.9180 C   0  0  0  0  0  0  0  0  0  0  0  0
    0.3168   -3.5774    6.3443 H   0  0  0  0  0  0  0  0  0  0  0  0
   -1.7198   -2.4254    7.6212 H   0  0  0  0  0  0  0  0  0  0  0  0
   -2.6193   -3.2693    6.3154 H   0  0  0  0  0  0  0  0  0  0  0  0
   -1.6308   -4.2139    7.4804 H   0  0  0  0  0  0  0  0  0  0  0  0
  1  3  1  0  0  0  0
  1  7  1  0  0  0  0
  1  2  2  0  0  0  0
 32 33  1  0  0  0  0
 33 41  1  0  0  0  0
 33 34  2  0  0  0  0
  8  9  1  0  0  0  0
  9 17  1  0  0  0  0
  9 10  2  0  0  0  0
 18 19  1  0  0  0  0
 19 31  1  0  0  0  0
 19 20  2  0  0  0  0
 32 35  1  0  0  0  0
  8 11  1  0  0  0  0
 21 23  1  0  0  0  0
 41 42  1  0  0  0  0
 31 32  1  0  0  0  0
  7  8  1  0  0  0  0
 18 21  1  0  0  0  0
 17 18  1  0  0  0  0
 21 22  1  0  0  0  0
  3  4  1  0  0  0  0
  3  5  1  0  0  0  0
  3  6  1  0  0  0  0
 35 38  1  0  0  0  0
 35 39  1  0  0  0  0
 35 40  1  0  0  0  0
 11 14  1  0  0  0  0
 11 15  1  0  0  0  0
 11 16  1  0  0  0  0
 23 28  1  0  0  0  0
 23 29  1  0  0  0  0
 23 30  1  0  0  0  0
 42 44  1  0  0  0  0
 42 45  1  0  0  0  0
 42 46  1  0  0  0  0
 32 37  1  0  0  0  0
  8 13  1  0  0  0  0
 18 25  1  0  0  0  0
 21 26  1  0  0  0  0
 41 43  1  0  0  0  0
  7 12  1  0  0  0  0
 31 36  1  0  0  0  0
 17 24  1  0  0  0  0
 22 27  1  0  0  0  0
M  END
$$$$

  -OEChem-05262214473D

 46 45  0     1  0  0  0  0  0999 V2000
   -4.6700    2.7214    1.5150 C   0  0  0  0  0  0  0  0  0  0  0  0
   -5.4532    2.5715    0.5845 O   0  0  0  0  0  0  0  0  0  0  0  0
   -5.0996    3.4865    2.7226 C   0  0  0  0  0  0  0  0  0  0  0  0
   -4.8796    4.5629    2.6387 H   0  0  0  0  0  0  0  0  0  0  0  0
   -6.1861    3.4241    2.8954 H   0  0  0  0  0  0  0  0  0  0  0  0
   -4.6369    3.1693    3.6708 H   0  0  0  0  0  0  0  0  0  0  0  0
   -3.3731    2.2391    1.5790 N   0  0  0  0  0  0  0  0  0  0  0  0
   -2.7599    1.4751    0.5247 C   0  0  2  0  0  0  0  0  0  0  0  0
   -1.5143    0.8067    1.0915 C   0  0  0  0  0  0  0  0  0  0  0  0
   -0.9247    1.2213    2.0872 O   0  0  0  0  0  0  0  0  0  0  0  0
   -2.4106    2.3553   -0.6653 C   0  0  0  0  0  0  0  0  0  0  0  0
   -2.8254    2.4352    2.4150 H   0  0  0  0  0  0  0  0  0  0  0  0
   -3.4836    0.7082    0.2278 H   0  0  0  0  0  0  0  0  0  0  0  0
   -1.6866    3.1298   -0.3871 H   0  0  0  0  0  0  0  0  0  0  0  0
   -1.9704    1.7677   -1.4777 H   0  0  0  0  0  0  0  0  0  0  0  0
   -3.3030    2.8584   -1.0531 H   0  0  0  0  0  0  0  0  0  0  0  0
   -1.1107   -0.2839    0.3303 N   0  0  0  0  0  0  0  0  0  0  0  0
    0.0490   -1.0750    0.6539 C   0  0  2  0  0  0  0  0  0  0  0  0
    0.2254   -1.0356    2.1691 C   0  0  0  0  0  0  0  0  0  0  0  0
   -0.0837   -0.0633    2.8548 O   0  0  0  0  0  0  0  0  0  0  0  0
    1.3148   -0.6004   -0.0745 C   0  0  2  0  0  0  0  0  0  0  0  0
    1.6319    0.7428    0.2876 O   0  0  0  0  0  0  0  0  0  0  0  0
    1.1610   -0.6502   -1.5898 C   0  0  0  0  0  0  0  0  0  0  0  0
   -1.6733   -0.5660   -0.4691 H   0  0  0  0  0  0  0  0  0  0  0  0
   -0.1867   -2.1054    0.3610 H   0  0  0  0  0  0  0  0  0  0  0  0
    2.1715   -1.2237    0.2070 H   0  0  0  0  0  0  0  0  0  0  0  0
    2.4613    0.9606   -0.1644 H   0  0  0  0  0  0  0  0  0  0  0  0
    0.3150   -0.0412   -1.9264 H   0  0  0  0  0  0  0  0  0  0  0  0
    1.0201   -1.6766   -1.9417 H   0  0  0  0  0  0  0  0  0  0  0  0
    2.0523   -0.2365   -2.0743 H   0  0  0  0  0  0  0  0  0  0  0  0
    0.8135   -2.1936    2.6577 N   0  0  0  0  0  0  0  0  0  0  0  0
    1.1138   -2.3817    4.0577 C   0  0  2  0  0  0  0  0  0  0  0  0
   -0.1797   -2.7540    4.7702 C   0  0  0  0  0  0  0  0  0  0  0  0
   -1.2929   -2.4824    4.3251 O   0  0  0  0  0  0  0  0  0  0  0  0
    1.7280   -1.1300    4.6649 C   0  0  0  0  0  0  0  0  0  0  0  0
    1.0417   -2.9380    2.0053 H   0  0  0  0  0  0  0  0  0  0  0  0
    1.8195   -3.2172    4.1203 H   0  0  0  0  0  0  0  0  0  0  0  0
    1.0355   -0.2820    4.6112 H   0  0  0  0  0  0  0  0  0  0  0  0
    1.9814   -1.2836    5.7190 H   0  0  0  0  0  0  0  0  0  0  0  0
    2.6422   -0.8466    4.1322 H   0  0  0  0  0  0  0  0  0  0  0  0
    0.0560   -3.3870    5.9826 N   0  0  0  0  0  0  0  0  0  0  0  0
   -1.0098   -3.8276    6.8522 C   0  0  0  0  0  0  0  0  0  0  0  0
    1.0110   -3.5886    6.2638 H   0  0  0  0  0  0  0  0  0  0  0  0
   -1.2396   -3.0365    7.5812 H   0  0  0  0  0  0  0  0  0  0  0  0
   -1.9059   -4.0450    6.2525 H   0  0  0  0  0  0  0  0  0  0  0  0
   -0.6956   -4.7371    7.3852 H   0  0  0  0  0  0  0  0  0  0  0  0
  1  3  1  0  0  0  0
  1  7  1  0  0  0  0
  1  2  2  0  0  0  0
 32 33  1  0  0  0  0
 33 41  1  0  0  0  0
 33 34  2  0  0  0  0
  8  9  1  0  0  0  0
  9 17  1  0  0  0  0
  9 10  2  0  0  0  0
 18 19  1  0  0  0  0
 19 31  1  0  0  0  0
 19 20  2  0  0  0  0
 32 35  1  0  0  0  0
  8 11  1  0  0  0  0
 21 23  1  0  0  0  0
 41 42  1  0  0  0  0
 31 32  1  0  0  0  0
  7  8  1  0  0  0  0
 18 21  1  0  0  0  0
 17 18  1  0  0  0  0
 21 22  1  0  0  0  0
  3  4  1  0  0  0  0
  3  5  1  0  0  0  0
  3  6  1  0  0  0  0
 35 38  1  0  0  0  0
 35 39  1  0  0  0  0
 35 40  1  0  0  0  0
 11 14  1  0  0  0  0
 11 15  1  0  0  0  0
 11 16  1  0  0  0  0
 23 28  1  0  0  0  0
 23 29  1  0  0  0  0
 23 30  1  0  0  0  0
 42 44  1  0  0  0  0
 42 45  1  0  0  0  0
 42 46  1  0  0  0  0
 32 37  1  0  0  0  0
  8 13  1  0  0  0  0
 18 25  1  0  0  0  0
 21 26  1  0  0  0  0
 41 43  1  0  0  0  0
  7 12  1  0  0  0  0
 31 36  1  0  0  0  0
 17 24  1  0  0  0  0
 22 27  1  0  0  0  0
M  END
$$$$

  -OEChem-05262214473D

 46 45  0     1  0  0  0  0  0999 V2000
   -4.6700    2.7214    1.5150 C   0  0  0  0  0  0  0  0  0  0  0  0
   -5.4532    2.5715    0.5845 O   0  0  0  0  0  0  0  0  0  0  0  0
   -5.0996    3.4865    2.7226 C   0  0  0  0  0  0  0  0  0  0  0  0
   -4.8796    4.5629    2.6387 H   0  0  0  0  0  0  0  0  0  0  0  0
   -6.1861    3.4241    2.8954 H   0  0  0  0  0  0  0  0  0  0  0  0
   -4.6369    3.1693    3.6708 H   0  0  0  0  0  0  0  0  0  0  0  0
   -3.3731    2.2391    1.5790 N   0  0  0  0  0  0  0  0  0  0  0  0
   -2.7599    1.4751    0.5247 C   0  0  2  0  0  0  0  0  0  0  0  0
   -1.5143    0.8067    1.0915 C   0  0  0  0  0  0  0  0  0  0  0  0
   -0.9247    1.2213    2.0872 O   0  0  0  0  0  0  0  0  0  0  0  0
   -2.4106    2.3553   -0.6653 C   0  0  0  0  0  0  0  0  0  0  0  0
   -2.8254    2.4352    2.4150 H   0  0  0  0  0  0  0  0  0  0  0  0
   -3.4836    0.7082    0.2278 H   0  0  0  0  0  0  0  0  0  0  0  0
   -1.6866    3.1298   -0.3871 H   0  0  0  0  0  0  0  0  0  0  0  0
   -1.9704    1.7677   -1.4777 H   0  0  0  0  0  0  0  0  0  0  0  0
   -3.3030    2.8584   -1.0531 H   0  0  0  0  0  0  0  0  0  0  0  0
   -1.1107   -0.2839    0.3303 N   0  0  0  0  0  0  0  0  0  0  0  0
    0.0490   -1.0750    0.6539 C   0  0  2  0  0  0  0  0  0  0  0  0
    0.2254   -1.0356    2.1691 C   0  0  0  0  0  0  0  0  0  0  0  0
   -0.3159   -0.1958    2.8853 O   0  0  0  0  0  0  0  0  0  0  0  0
    1.3148   -0.6004   -0.0745 C   0  0  2  0  0  0  0  0  0  0  0  0
    1.6319    0.7428    0.2876 O   0  0  0  0  0  0  0  0  0  0  0  0
    1.1610   -0.6502   -1.5898 C   0  0  0  0  0  0  0  0  0  0  0  0
   -1.6733   -0.5660   -0.4691 H   0  0  0  0  0  0  0  0  0  0  0  0
   -0.1867   -2.1054    0.3610 H   0  0  0  0  0  0  0  0  0  0  0  0
    2.1715   -1.2237    0.2070 H   0  0  0  0  0  0  0  0  0  0  0  0
    2.4613    0.9606   -0.1644 H   0  0  0  0  0  0  0  0  0  0  0  0
    0.3150   -0.0412   -1.9264 H   0  0  0  0  0  0  0  0  0  0  0  0
    1.0201   -1.6766   -1.9417 H   0  0  0  0  0  0  0  0  0  0  0  0
    2.0523   -0.2365   -2.0743 H   0  0  0  0  0  0  0  0  0  0  0  0
    1.0964   -2.0172    2.6202 N   0  0  0  0  0  0  0  0  0  0  0  0
    1.4498   -2.1623    4.0129 C   0  0  2  0  0  0  0  0  0  0  0  0
    0.3029   -2.8752    4.7172 C   0  0  0  0  0  0  0  0  0  0  0  0
   -0.8473   -2.8861    4.2837 O   0  0  0  0  0  0  0  0  0  0  0  0
    1.7281   -0.8129    4.6566 C   0  0  0  0  0  0  0  0  0  0  0  0
    1.5012   -2.6586    1.9445 H   0  0  0  0  0  0  0  0  0  0  0  0
    2.3470   -2.7897    4.0478 H   0  0  0  0  0  0  0  0  0  0  0  0
    0.8405   -0.1703    4.6310 H   0  0  0  0  0  0  0  0  0  0  0  0
    2.0236   -0.9268    5.7048 H   0  0  0  0  0  0  0  0  0  0  0  0
    2.5332   -0.2887    4.1303 H   0  0  0  0  0  0  0  0  0  0  0  0
    0.7061   -3.4613    5.9089 N   0  0  0  0  0  0  0  0  0  0  0  0
   -0.2014   -4.1861    6.7674 C   0  0  0  0  0  0  0  0  0  0  0  0
    1.6838   -3.4186    6.1811 H   0  0  0  0  0  0  0  0  0  0  0  0
   -0.6190   -3.5022    7.5211 H   0  0  0  0  0  0  0  0  0  0  0  0
   -1.0179   -4.6091    6.1638 H   0  0  0  0  0  0  0  0  0  0  0  0
    0.3415   -4.9994    7.2713 H   0  0  0  0  0  0  0  0  0  0  0  0
  1  3  1  0  0  0  0
  1  7  1  0  0  0  0
  1  2  2  0  0  0  0
 32 33  1  0  0  0  0
 33 41  1  0  0  0  0
 33 34  2  0  0  0  0
  8  9  1  0  0  0  0
  9 17  1  0  0  0  0
  9 10  2  0  0  0  0
 18 19  1  0  0  0  0
 19 31  1  0  0  0  0
 19 20  2  0  0  0  0
 32 35  1  0  0  0  0
  8 11  1  0  0  0  0
 21 23  1  0  0  0  0
 41 42  1  0  0  0  0
 31 32  1  0  0  0  0
  7  8  1  0  0  0  0
 18 21  1  0  0  0  0
 17 18  1  0  0  0  0
 21 22  1  0  0  0  0
  3  4  1  0  0  0  0
  3  5  1  0  0  0  0
  3  6  1  0  0  0  0
 35 38  1  0  0  0  0
 35 39  1  0  0  0  0
 35 40  1  0  0  0  0
 11 14  1  0  0  0  0
 11 15  1  0  0  0  0
 11 16  1  0  0  0  0
 23 28  1  0  0  0  0
 23 29  1  0  0  0  0
 23 30  1  0  0  0  0
 42 44  1  0  0  0  0
 42 45  1  0  0  0  0
 42 46  1  0  0  0  0
 32 37  1  0  0  0  0
  8 13  1  0  0  0  0
 18 25  1  0  0  0  0
 21 26  1  0  0  0  0
 41 43  1  0  0  0  0
  7 12  1  0  0  0  0
 31 36  1  0  0  0  0
 17 24  1  0  0  0  0
 22 27  1  0  0  0  0
M  END
$$$$

  -OEChem-05262214473D

 46 45  0     1  0  0  0  0  0999 V2000
   -4.6700    2.7214    1.5150 C   0  0  0  0  0  0  0  0  0  0  0  0
   -5.4532    2.5715    0.5845 O   0  0  0  0  0  0  0  0  0  0  0  0
   -5.0996    3.4865    2.7226 C   0  0  0  0  0  0  0  0  0  0  0  0
   -4.8796    4.5629    2.6387 H   0  0  0  0  0  0  0  0  0  0  0  0
   -6.1861    3.4241    2.8954 H   0  0  0  0  0  0  0  0  0  0  0  0
   -4.6369    3.1693    3.6708 H   0  0  0  0  0  0  0  0  0  0  0  0
   -3.3731    2.2391    1.5790 N   0  0  0  0  0  0  0  0  0  0  0  0
   -2.7599    1.4751    0.5247 C   0  0  2  0  0  0  0  0  0  0  0  0
   -1.5143    0.8067    1.0915 C   0  0  0  0  0  0  0  0  0  0  0  0
   -0.9247    1.2213    2.0872 O   0  0  0  0  0  0  0  0  0  0  0  0
   -2.4106    2.3553   -0.6653 C   0  0  0  0  0  0  0  0  0  0  0  0
   -2.8254    2.4352    2.4150 H   0  0  0  0  0  0  0  0  0  0  0  0
   -3.4836    0.7082    0.2278 H   0  0  0  0  0  0  0  0  0  0  0  0
   -1.6866    3.1298   -0.3871 H   0  0  0  0  0  0  0  0  0  0  0  0
   -1.9704    1.7677   -1.4777 H   0  0  0  0  0  0  0  0  0  0  0  0
   -3.3030    2.8584   -1.0531 H   0  0  0  0  0  0  0  0  0  0  0  0
   -1.1107   -0.2839    0.3303 N   0  0  0  0  0  0  0  0  0  0  0  0
    0.0490   -1.0750    0.6539 C   0  0  2  0  0  0  0  0  0  0  0  0
    0.0144   -1.3510    2.1543 C   0  0  0  0  0  0  0  0  0  0  0  0
   -0.8568   -0.9047    2.8980 O   0  0  0  0  0  0  0  0  0  0  0  0
    1.3639   -0.4023    0.2337 C   0  0  2  0  0  0  0  0  0  0  0  0
    1.5297    0.8455    0.9053 O   0  0  0  0  0  0  0  0  0  0  0  0
    1.4217   -0.1355   -1.2656 C   0  0  0  0  0  0  0  0  0  0  0  0
   -1.6733   -0.5660   -0.4691 H   0  0  0  0  0  0  0  0  0  0  0  0
   -0.0686   -2.0288    0.1252 H   0  0  0  0  0  0  0  0  0  0  0  0
    2.2177   -1.0337    0.5058 H   0  0  0  0  0  0  0  0  0  0  0  0
    2.3946    1.1899    0.6353 H   0  0  0  0  0  0  0  0  0  0  0  0
    0.5870    0.4941   -1.5924 H   0  0  0  0  0  0  0  0  0  0  0  0
    1.4054   -1.0688   -1.8365 H   0  0  0  0  0  0  0  0  0  0  0  0
    2.3379    0.4097   -1.5178 H   0  0  0  0  0  0  0  0  0  0  0  0
    1.0970   -2.1124    2.5714 N   0  0  0  0  0  0  0  0  0  0  0  0
    1.3038   -2.4777    3.9531 C   0  0  2  0  0  0  0  0  0  0  0  0
    0.3775   -3.6429    4.2751 C   0  0  0  0  0  0  0  0  0  0  0  0
   -0.6425   -3.8861    3.6336 O   0  0  0  0  0  0  0  0  0  0  0  0
    1.0416   -1.3022    4.8815 C   0  0  0  0  0  0  0  0  0  0  0  0
    1.7702   -2.4248    1.8779 H   0  0  0  0  0  0  0  0  0  0  0  0
    2.3459   -2.8037    4.0415 H   0  0  0  0  0  0  0  0  0  0  0  0
    0.0023   -0.9617    4.8069 H   0  0  0  0  0  0  0  0  0  0  0  0
    1.2264   -1.5728    5.9263 H   0  0  0  0  0  0  0  0  0  0  0  0
    1.6879   -0.4546    4.6293 H   0  0  0  0  0  0  0  0  0  0  0  0
    0.8007   -4.3535    5.3897 N   0  0  0  0  0  0  0  0  0  0  0  0
    0.0833   -5.4966    5.9041 C   0  0  0  0  0  0  0  0  0  0  0  0
    1.6686   -4.0928    5.8486 H   0  0  0  0  0  0  0  0  0  0  0  0
   -0.6254   -5.1674    6.6783 H   0  0  0  0  0  0  0  0  0  0  0  0
   -0.4677   -5.9824    5.0854 H   0  0  0  0  0  0  0  0  0  0  0  0
    0.7968   -6.2111    6.3404 H   0  0  0  0  0  0  0  0  0  0  0  0
  1  3  1  0  0  0  0
  1  7  1  0  0  0  0
  1  2  2  0  0  0  0
 32 33  1  0  0  0  0
 33 41  1  0  0  0  0
 33 34  2  0  0  0  0
  8  9  1  0  0  0  0
  9 17  1  0  0  0  0
  9 10  2  0  0  0  0
 18 19  1  0  0  0  0
 19 31  1  0  0  0  0
 19 20  2  0  0  0  0
 32 35  1  0  0  0  0
  8 11  1  0  0  0  0
 21 23  1  0  0  0  0
 41 42  1  0  0  0  0
 31 32  1  0  0  0  0
  7  8  1  0  0  0  0
 18 21  1  0  0  0  0
 17 18  1  0  0  0  0
 21 22  1  0  0  0  0
  3  4  1  0  0  0  0
  3  5  1  0  0  0  0
  3  6  1  0  0  0  0
 35 38  1  0  0  0  0
 35 39  1  0  0  0  0
 35 40  1  0  0  0  0
 11 14  1  0  0  0  0
 11 15  1  0  0  0  0
 11 16  1  0  0  0  0
 23 28  1  0  0  0  0
 23 29  1  0  0  0  0
 23 30  1  0  0  0  0
 42 44  1  0  0  0  0
 42 45  1  0  0  0  0
 42 46  1  0  0  0  0
 32 37  1  0  0  0  0
  8 13  1  0  0  0  0
 18 25  1  0  0  0  0
 21 26  1  0  0  0  0
 41 43  1  0  0  0  0
  7 12  1  0  0  0  0
 31 36  1  0  0  0  0
 17 24  1  0  0  0  0
 22 27  1  0  0  0  0
M  END
$$$$

  -OEChem-05262214473D

 46 45  0     1  0  0  0  0  0999 V2000
   -4.6700    2.7214    1.5150 C   0  0  0  0  0  0  0  0  0  0  0  0
   -5.4532    2.5715    0.5845 O   0  0  0  0  0  0  0  0  0  0  0  0
   -5.0996    3.4865    2.7226 C   0  0  0  0  0  0  0  0  0  0  0  0
   -4.8796    4.5629    2.6387 H   0  0  0  0  0  0  0  0  0  0  0  0
   -6.1861    3.4241    2.8954 H   0  0  0  0  0  0  0  0  0  0  0  0
   -4.6369    3.1693    3.6708 H   0  0  0  0  0  0  0  0  0  0  0  0
   -3.3731    2.2391    1.5790 N   0  0  0  0  0  0  0  0  0  0  0  0
   -2.7599    1.4751    0.5247 C   0  0  2  0  0  0  0  0  0  0  0  0
   -1.5143    0.8067    1.0915 C   0  0  0  0  0  0  0  0  0  0  0  0
   -0.9247    1.2213    2.0872 O   0  0  0  0  0  0  0  0  0  0  0  0
   -2.4106    2.3553   -0.6653 C   0  0  0  0  0  0  0  0  0  0  0  0
   -2.8254    2.4352    2.4150 H   0  0  0  0  0  0  0  0  0  0  0  0
   -3.4836    0.7082    0.2278 H   0  0  0  0  0  0  0  0  0  0  0  0
   -1.6866    3.1298   -0.3871 H   0  0  0  0  0  0  0  0  0  0  0  0
   -1.9704    1.7677   -1.4777 H   0  0  0  0  0  0  0  0  0  0  0  0
   -3.3030    2.8584   -1.0531 H   0  0  0  0  0  0  0  0  0  0  0  0
   -1.1107   -0.2839    0.3303 N   0  0  0  0  0  0  0  0  0  0  0  0
    0.0490   -1.0750    0.6539 C   0  0  2  0  0  0  0  0  0  0  0  0
    0.0144   -1.3510    2.1543 C   0  0  0  0  0  0  0  0  0  0  0  0
   -0.9761   -1.1413    2.8517 O   0  0  0  0  0  0  0  0  0  0  0  0
    1.3639   -0.4023    0.2337 C   0  0  2  0  0  0  0  0  0  0  0  0
    1.5297    0.8455    0.9053 O   0  0  0  0  0  0  0  0  0  0  0  0
    1.4217   -0.1355   -1.2656 C   0  0  0  0  0  0  0  0  0  0  0  0
   -1.6733   -0.5660   -0.4691 H   0  0  0  0  0  0  0  0  0  0  0  0
   -0.0686   -2.0288    0.1252 H   0  0  0  0  0  0  0  0  0  0  0  0
    2.2177   -1.0337    0.5058 H   0  0  0  0  0  0  0  0  0  0  0  0
    2.3946    1.1899    0.6353 H   0  0  0  0  0  0  0  0  0  0  0  0
    0.5870    0.4941   -1.5924 H   0  0  0  0  0  0  0  0  0  0  0  0
    1.4054   -1.0688   -1.8365 H   0  0  0  0  0  0  0  0  0  0  0  0
    2.3379    0.4097   -1.5178 H   0  0  0  0  0  0  0  0  0  0  0  0
    1.2339   -1.8117    2.6299 N   0  0  0  0  0  0  0  0  0  0  0  0
    1.4609   -2.1126    4.0239 C   0  0  2  0  0  0  0  0  0  0  0  0
    0.8471   -3.4753    4.3168 C   0  0  0  0  0  0  0  0  0  0  0  0
   -0.0457   -3.9701    3.6319 O   0  0  0  0  0  0  0  0  0  0  0  0
    0.8644   -1.0428    4.9252 C   0  0  0  0  0  0  0  0  0  0  0  0
    1.9966   -1.9423    1.9718 H   0  0  0  0  0  0  0  0  0  0  0  0
    2.5462   -2.1625    4.1640 H   0  0  0  0  0  0  0  0  0  0  0  0
   -0.2225   -0.9781    4.7987 H   0  0  0  0  0  0  0  0  0  0  0  0
    1.0621   -1.2576    5.9805 H   0  0  0  0  0  0  0  0  0  0  0  0
    1.2852   -0.0585    4.6929 H   0  0  0  0  0  0  0  0  0  0  0  0
    1.3836   -4.0549    5.4581 N   0  0  0  0  0  0  0  0  0  0  0  0
    0.9570   -5.3431    5.9526 C   0  0  0  0  0  0  0  0  0  0  0  0
    2.1338   -3.5819    5.9533 H   0  0  0  0  0  0  0  0  0  0  0  0
    0.1518   -5.2053    6.6892 H   0  0  0  0  0  0  0  0  0  0  0  0
    0.5872   -5.9530    5.1151 H   0  0  0  0  0  0  0  0  0  0  0  0
    1.8072   -5.8525    6.4297 H   0  0  0  0  0  0  0  0  0  0  0  0
  1  3  1  0  0  0  0
  1  7  1  0  0  0  0
  1  2  2  0  0  0  0
 32 33  1  0  0  0  0
 33 41  1  0  0  0  0
 33 34  2  0  0  0  0
  8  9  1  0  0  0  0
  9 17  1  0  0  0  0
  9 10  2  0  0  0  0
 18 19  1  0  0  0  0
 19 31  1  0  0  0  0
 19 20  2  0  0  0  0
 32 35  1  0  0  0  0
  8 11  1  0  0  0  0
 21 23  1  0  0  0  0
 41 42  1  0  0  0  0
 31 32  1  0  0  0  0
  7  8  1  0  0  0  0
 18 21  1  0  0  0  0
 17 18  1  0  0  0  0
 21 22  1  0  0  0  0
  3  4  1  0  0  0  0
  3  5  1  0  0  0  0
  3  6  1  0  0  0  0
 35 38  1  0  0  0  0
 35 39  1  0  0  0  0
 35 40  1  0  0  0  0
 11 14  1  0  0  0  0
 11 15  1  0  0  0  0
 11 16  1  0  0  0  0
 23 28  1  0  0  0  0
 23 29  1  0  0  0  0
 23 30  1  0  0  0  0
 42 44  1  0  0  0  0
 42 45  1  0  0  0  0
 42 46  1  0  0  0  0
 32 37  1  0  0  0  0
  8 13  1  0  0  0  0
 18 25  1  0  0  0  0
 21 26  1  0  0  0  0
 41 43  1  0  0  0  0
  7 12  1  0  0  0  0
 31 36  1  0  0  0  0
 17 24  1  0  0  0  0
 22 27  1  0  0  0  0
M  END
$$$$

  -OEChem-05262214473D

 46 45  0     1  0  0  0  0  0999 V2000
   -4.6700    2.7214    1.5150 C   0  0  0  0  0  0  0  0  0  0  0  0
   -5.4532    2.5715    0.5845 O   0  0  0  0  0  0  0  0  0  0  0  0
   -5.0996    3.4865    2.7226 C   0  0  0  0  0  0  0  0  0  0  0  0
   -4.8796    4.5629    2.6387 H   0  0  0  0  0  0  0  0  0  0  0  0
   -6.1861    3.4241    2.8954 H   0  0  0  0  0  0  0  0  0  0  0  0
   -4.6369    3.1693    3.6708 H   0  0  0  0  0  0  0  0  0  0  0  0
   -3.3731    2.2391    1.5790 N   0  0  0  0  0  0  0  0  0  0  0  0
   -2.7599    1.4751    0.5247 C   0  0  2  0  0  0  0  0  0  0  0  0
   -1.5143    0.8067    1.0915 C   0  0  0  0  0  0  0  0  0  0  0  0
   -0.9247    1.2213    2.0872 O   0  0  0  0  0  0  0  0  0  0  0  0
   -2.4106    2.3553   -0.6653 C   0  0  0  0  0  0  0  0  0  0  0  0
   -2.8254    2.4352    2.4150 H   0  0  0  0  0  0  0  0  0  0  0  0
   -3.4836    0.7082    0.2278 H   0  0  0  0  0  0  0  0  0  0  0  0
   -1.6866    3.1298   -0.3871 H   0  0  0  0  0  0  0  0  0  0  0  0
   -1.9704    1.7677   -1.4777 H   0  0  0  0  0  0  0  0  0  0  0  0
   -3.3030    2.8584   -1.0531 H   0  0  0  0  0  0  0  0  0  0  0  0
   -1.1107   -0.2839    0.3303 N   0  0  0  0  0  0  0  0  0  0  0  0
    0.0490   -1.0750    0.6539 C   0  0  2  0  0  0  0  0  0  0  0  0
    0.0144   -1.3510    2.1543 C   0  0  0  0  0  0  0  0  0  0  0  0
   -1.0288   -1.4006    2.8028 O   0  0  0  0  0  0  0  0  0  0  0  0
    1.3639   -0.4023    0.2337 C   0  0  2  0  0  0  0  0  0  0  0  0
    1.5297    0.8455    0.9053 O   0  0  0  0  0  0  0  0  0  0  0  0
    1.4217   -0.1355   -1.2656 C   0  0  0  0  0  0  0  0  0  0  0  0
   -1.6733   -0.5660   -0.4691 H   0  0  0  0  0  0  0  0  0  0  0  0
   -0.0686   -2.0288    0.1252 H   0  0  0  0  0  0  0  0  0  0  0  0
    2.2177   -1.0337    0.5058 H   0  0  0  0  0  0  0  0  0  0  0  0
    2.3946    1.1899    0.6353 H   0  0  0  0  0  0  0  0  0  0  0  0
    0.5870    0.4941   -1.5924 H   0  0  0  0  0  0  0  0  0  0  0  0
    1.4054   -1.0688   -1.8365 H   0  0  0  0  0  0  0  0  0  0  0  0
    2.3379    0.4097   -1.5178 H   0  0  0  0  0  0  0  0  0  0  0  0
    1.2869   -1.4861    2.6910 N   0  0  0  0  0  0  0  0  0  0  0  0
    1.5164   -1.7195    4.0975 C   0  0  2  0  0  0  0  0  0  0  0  0
    1.2562   -3.1937    4.3781 C   0  0  0  0  0  0  0  0  0  0  0  0
    0.5522   -3.8994    3.6588 O   0  0  0  0  0  0  0  0  0  0  0  0
    0.6252   -0.8370    4.9575 C   0  0  0  0  0  0  0  0  0  0  0  0
    2.0882   -1.4180    2.0704 H   0  0  0  0  0  0  0  0  0  0  0  0
    2.5708   -1.4915    4.2880 H   0  0  0  0  0  0  0  0  0  0  0  0
   -0.4351   -1.0511    4.7803 H   0  0  0  0  0  0  0  0  0  0  0  0
    0.8206   -0.9946    6.0233 H   0  0  0  0  0  0  0  0  0  0  0  0
    0.7924    0.2220    4.7331 H   0  0  0  0  0  0  0  0  0  0  0  0
    1.8675   -3.6177    5.5497 N   0  0  0  0  0  0  0  0  0  0  0  0
    1.7595   -4.9722    6.0393 C   0  0  0  0  0  0  0  0  0  0  0  0
    2.4483   -2.9694    6.0732 H   0  0  0  0  0  0  0  0  0  0  0  0
    0.9117   -5.0441    6.7364 H   0  0  0  0  0  0  0  0  0  0  0  0
    1.5973   -5.6560    5.1931 H   0  0  0  0  0  0  0  0  0  0  0  0
    2.6876   -5.2484    6.5612 H   0  0  0  0  0  0  0  0  0  0  0  0
  1  3  1  0  0  0  0
  1  7  1  0  0  0  0
  1  2  2  0  0  0  0
 32 33  1  0  0  0  0
 33 41  1  0  0  0  0
 33 34  2  0  0  0  0
  8  9  1  0  0  0  0
  9 17  1  0  0  0  0
  9 10  2  0  0  0  0
 18 19  1  0  0  0  0
 19 31  1  0  0  0  0
 19 20  2  0  0  0  0
 32 35  1  0  0  0  0
  8 11  1  0  0  0  0
 21 23  1  0  0  0  0
 41 42  1  0  0  0  0
 31 32  1  0  0  0  0
  7  8  1  0  0  0  0
 18 21  1  0  0  0  0
 17 18  1  0  0  0  0
 21 22  1  0  0  0  0
  3  4  1  0  0  0  0
  3  5  1  0  0  0  0
  3  6  1  0  0  0  0
 35 38  1  0  0  0  0
 35 39  1  0  0  0  0
 35 40  1  0  0  0  0
 11 14  1  0  0  0  0
 11 15  1  0  0  0  0
 11 16  1  0  0  0  0
 23 28  1  0  0  0  0
 23 29  1  0  0  0  0
 23 30  1  0  0  0  0
 42 44  1  0  0  0  0
 42 45  1  0  0  0  0
 42 46  1  0  0  0  0
 32 37  1  0  0  0  0
  8 13  1  0  0  0  0
 18 25  1  0  0  0  0
 21 26  1  0  0  0  0
 41 43  1  0  0  0  0
  7 12  1  0  0  0  0
 31 36  1  0  0  0  0
 17 24  1  0  0  0  0
 22 27  1  0  0  0  0
M  END
$$$$

  -OEChem-05262214473D

 46 45  0     1  0  0  0  0  0999 V2000
   -4.6700    2.7214    1.5150 C   0  0  0  0  0  0  0  0  0  0  0  0
   -5.4532    2.5715    0.5845 O   0  0  0  0  0  0  0  0  0  0  0  0
   -5.0996    3.4865    2.7226 C   0  0  0  0  0  0  0  0  0  0  0  0
   -4.8796    4.5629    2.6387 H   0  0  0  0  0  0  0  0  0  0  0  0
   -6.1861    3.4241    2.8954 H   0  0  0  0  0  0  0  0  0  0  0  0
   -4.6369    3.1693    3.6708 H   0  0  0  0  0  0  0  0  0  0  0  0
   -3.3731    2.2391    1.5790 N   0  0  0  0  0  0  0  0  0  0  0  0
   -2.7599    1.4751    0.5247 C   0  0  2  0  0  0  0  0  0  0  0  0
   -1.5143    0.8067    1.0915 C   0  0  0  0  0  0  0  0  0  0  0  0
   -0.9247    1.2213    2.0872 O   0  0  0  0  0  0  0  0  0  0  0  0
   -2.4106    2.3553   -0.6653 C   0  0  0  0  0  0  0  0  0  0  0  0
   -2.8254    2.4352    2.4150 H   0  0  0  0  0  0  0  0  0  0  0  0
   -3.4836    0.7082    0.2278 H   0  0  0  0  0  0  0  0  0  0  0  0
   -1.6866    3.1298   -0.3871 H   0  0  0  0  0  0  0  0  0  0  0  0
   -1.9704    1.7677   -1.4777 H   0  0  0  0  0  0  0  0  0  0  0  0
   -3.3030    2.8584   -1.0531 H   0  0  0  0  0  0  0  0  0  0  0  0
   -1.1107   -0.2839    0.3303 N   0  0  0  0  0  0  0  0  0  0  0  0
    0.0490   -1.0750    0.6539 C   0  0  2  0  0  0  0  0  0  0  0  0
    0.0144   -1.3510    2.1543 C   0  0  0  0  0  0  0  0  0  0  0  0
   -1.0116   -1.6647    2.7546 O   0  0  0  0  0  0  0  0  0  0  0  0
    1.3639   -0.4023    0.2337 C   0  0  2  0  0  0  0  0  0  0  0  0
    1.5297    0.8455    0.9053 O   0  0  0  0  0  0  0  0  0  0  0  0
    1.4217   -0.1355   -1.2656 C   0  0  0  0  0  0  0  0  0  0  0  0
   -1.6733   -0.5660   -0.4691 H   0  0  0  0  0  0  0  0  0  0  0  0
   -0.0686   -2.0288    0.1252 H   0  0  0  0  0  0  0  0  0  0  0  0
    2.2177   -1.0337    0.5058 H   0  0  0  0  0  0  0  0  0  0  0  0
    2.3946    1.1899    0.6353 H   0  0  0  0  0  0  0  0  0  0  0  0
    0.5870    0.4941   -1.5924 H   0  0  0  0  0  0  0  0  0  0  0  0
    1.4054   -1.0688   -1.8365 H   0  0  0  0  0  0  0  0  0  0  0  0
    2.3379    0.4097   -1.5178 H   0  0  0  0  0  0  0  0  0  0  0  0
    1.2524   -1.1577    2.7506 N   0  0  0  0  0  0  0  0  0  0  0  0
    1.4665   -1.3253    4.1688 C   0  0  2  0  0  0  0  0  0  0  0  0
    1.5768   -2.8172    4.4547 C   0  0  0  0  0  0  0  0  0  0  0  0
    1.1104   -3.6787    3.7122 O   0  0  0  0  0  0  0  0  0  0  0  0
    0.3403   -0.6989    4.9763 C   0  0  0  0  0  0  0  0  0  0  0  0
    2.0386   -0.8878    2.1668 H   0  0  0  0  0  0  0  0  0  0  0  0
    2.4179   -0.8363    4.4050 H   0  0  0  0  0  0  0  0  0  0  0  0
   -0.6210   -1.1759    4.7531 H   0  0  0  0  0  0  0  0  0  0  0  0
    0.5185   -0.8018    6.0518 H   0  0  0  0  0  0  0  0  0  0  0  0
    0.2431    0.3678    4.7473 H   0  0  0  0  0  0  0  0  0  0  0  0
    2.2194   -3.0718    5.6582 N   0  0  0  0  0  0  0  0  0  0  0  0
    2.4363   -4.4092    6.1585 C   0  0  0  0  0  0  0  0  0  0  0  0
    2.5906   -2.2971    6.2002 H   0  0  0  0  0  0  0  0  0  0  0  0
    1.6025   -4.6948    6.8167 H   0  0  0  0  0  0  0  0  0  0  0  0
    2.4938   -5.1116    5.3139 H   0  0  0  0  0  0  0  0  0  0  0  0
    3.3782   -4.4401    6.7258 H   0  0  0  0  0  0  0  0  0  0  0  0
  1  3  1  0  0  0  0
  1  7  1  0  0  0  0
  1  2  2  0  0  0  0
 32 33  1  0  0  0  0
 33 41  1  0  0  0  0
 33 34  2  0  0  0  0
  8  9  1  0  0  0  0
  9 17  1  0  0  0  0
  9 10  2  0  0  0  0
 18 19  1  0  0  0  0
 19 31  1  0  0  0  0
 19 20  2  0  0  0  0
 32 35  1  0  0  0  0
  8 11  1  0  0  0  0
 21 23  1  0  0  0  0
 41 42  1  0  0  0  0
 31 32  1  0  0  0  0
  7  8  1  0  0  0  0
 18 21  1  0  0  0  0
 17 18  1  0  0  0  0
 21 22  1  0  0  0  0
  3  4  1  0  0  0  0
  3  5  1  0  0  0  0
  3  6  1  0  0  0  0
 35 38  1  0  0  0  0
 35 39  1  0  0  0  0
 35 40  1  0  0  0  0
 11 14  1  0  0  0  0
 11 15  1  0  0  0  0
 11 16  1  0  0  0  0
 23 28  1  0  0  0  0
 23 29  1  0  0  0  0
 23 30  1  0  0  0  0
 42 44  1  0  0  0  0
 42 45  1  0  0  0  0
 42 46  1  0  0  0  0
 32 37  1  0  0  0  0
  8 13  1  0  0  0  0
 18 25  1  0  0  0  0
 21 26  1  0  0  0  0
 41 43  1  0  0  0  0
  7 12  1  0  0  0  0
 31 36  1  0  0  0  0
 17 24  1  0  0  0  0
 22 27  1  0  0  0  0
M  END
$$$$

  -OEChem-05262214473D

 46 45  0     1  0  0  0  0  0999 V2000
   -4.6700    2.7214    1.5150 C   0  0  0  0  0  0  0  0  0  0  0  0
   -5.4532    2.5715    0.5845 O   0  0  0  0  0  0  0  0  0  0  0  0
   -5.0996    3.4865    2.7226 C   0  0  0  0  0  0  0  0  0  0  0  0
   -4.8796    4.5629    2.6387 H   0  0  0  0  0  0  0  0  0  0  0  0
   -6.1861    3.4241    2.8954 H   0  0  0  0  0  0  0  0  0  0  0  0
   -4.6369    3.1693    3.6708 H   0  0  0  0  0  0  0  0  0  0  0  0
   -3.3731    2.2391    1.5790 N   0  0  0  0  0  0  0  0  0  0  0  0
   -2.7599    1.4751    0.5247 C   0  0  2  0  0  0  0  0  0  0  0  0
   -1.5143    0.8067    1.0915 C   0  0  0  0  0  0  0  0  0  0  0  0
   -0.9247    1.2213    2.0872 O   0  0  0  0  0  0  0  0  0  0  0  0
   -2.4106    2.3553   -0.6653 C   0  0  0  0  0  0  0  0  0  0  0  0
   -2.8254    2.4352    2.4150 H   0  0  0  0  0  0  0  0  0  0  0  0
   -3.4836    0.7082    0.2278 H   0  0  0  0  0  0  0  0  0  0  0  0
   -1.6866    3.1298   -0.3871 H   0  0  0  0  0  0  0  0  0  0  0  0
   -1.9704    1.7677   -1.4777 H   0  0  0  0  0  0  0  0  0  0  0  0
   -3.3030    2.8584   -1.0531 H   0  0  0  0  0  0  0  0  0  0  0  0
   -1.1107   -0.2839    0.3303 N   0  0  0  0  0  0  0  0  0  0  0  0
    0.0490   -1.0750    0.6539 C   0  0  2  0  0  0  0  0  0  0  0  0
    0.0144   -1.3510    2.1543 C   0  0  0  0  0  0  0  0  0  0  0  0
   -0.9254   -1.9157    2.7104 O   0  0  0  0  0  0  0  0  0  0  0  0
    1.3639   -0.4023    0.2337 C   0  0  2  0  0  0  0  0  0  0  0  0
    1.5297    0.8455    0.9053 O   0  0  0  0  0  0  0  0  0  0  0  0
    1.4217   -0.1355   -1.2656 C   0  0  0  0  0  0  0  0  0  0  0  0
   -1.6733   -0.5660   -0.4691 H   0  0  0  0  0  0  0  0  0  0  0  0
   -0.0686   -2.0288    0.1252 H   0  0  0  0  0  0  0  0  0  0  0  0
    2.2177   -1.0337    0.5058 H   0  0  0  0  0  0  0  0  0  0  0  0
    2.3946    1.1899    0.6353 H   0  0  0  0  0  0  0  0  0  0  0  0
    0.5870    0.4941   -1.5924 H   0  0  0  0  0  0  0  0  0  0  0  0
    1.4054   -1.0688   -1.8365 H   0  0  0  0  0  0  0  0  0  0  0  0
    2.3379    0.4097   -1.5178 H   0  0  0  0  0  0  0  0  0  0  0  0
    1.1327   -0.8489    2.8046 N   0  0  0  0  0  0  0  0  0  0  0  0
    1.3147   -0.9568    4.2331 C   0  0  2  0  0  0  0  0  0  0  0  0
    1.7870   -2.3714    4.5416 C   0  0  0  0  0  0  0  0  0  0  0  0
    1.5910   -3.3232    3.7887 O   0  0  0  0  0  0  0  0  0  0  0  0
    0.0291   -0.6379    4.9804 C   0  0  0  0  0  0  0  0  0  0  0  0
    1.8512   -0.3876    2.2545 H   0  0  0  0  0  0  0  0  0  0  0  0
    2.0981   -0.2417    4.5070 H   0  0  0  0  0  0  0  0  0  0  0  0
   -0.7675   -1.3440    4.7188 H   0  0  0  0  0  0  0  0  0  0  0  0
    0.1762   -0.6923    6.0641 H   0  0  0  0  0  0  0  0  0  0  0  0
   -0.3252    0.3689    4.7344 H   0  0  0  0  0  0  0  0  0  0  0  0
    2.4153   -2.4543    5.7763 N   0  0  0  0  0  0  0  0  0  0  0  0
    2.9412   -3.6925    6.3020 C   0  0  0  0  0  0  0  0  0  0  0  0
    2.5510   -1.6107    6.3255 H   0  0  0  0  0  0  0  0  0  0  0  0
    2.1770   -4.1811    6.9244 H   0  0  0  0  0  0  0  0  0  0  0  0
    3.2155   -4.3570    5.4694 H   0  0  0  0  0  0  0  0  0  0  0  0
    3.8318   -3.4826    6.9124 H   0  0  0  0  0  0  0  0  0  0  0  0
  1  3  1  0  0  0  0
  1  7  1  0  0  0  0
  1  2  2  0  0  0  0
 32 33  1  0  0  0  0
 33 41  1  0  0  0  0
 33 34  2  0  0  0  0
  8  9  1  0  0  0  0
  9 17  1  0  0  0  0
  9 10  2  0  0  0  0
 18 19  1  0  0  0  0
 19 31  1  0  0  0  0
 19 20  2  0  0  0  0
 32 35  1  0  0  0  0
  8 11  1  0  0  0  0
 21 23  1  0  0  0  0
 41 42  1  0  0  0  0
 31 32  1  0  0  0  0
  7  8  1  0  0  0  0
 18 21  1  0  0  0  0
 17 18  1  0  0  0  0
 21 22  1  0  0  0  0
  3  4  1  0  0  0  0
  3  5  1  0  0  0  0
  3  6  1  0  0  0  0
 35 38  1  0  0  0  0
 35 39  1  0  0  0  0
 35 40  1  0  0  0  0
 11 14  1  0  0  0  0
 11 15  1  0  0  0  0
 11 16  1  0  0  0  0
 23 28  1  0  0  0  0
 23 29  1  0  0  0  0
 23 30  1  0  0  0  0
 42 44  1  0  0  0  0
 42 45  1  0  0  0  0
 42 46  1  0  0  0  0
 32 37  1  0  0  0  0
  8 13  1  0  0  0  0
 18 25  1  0  0  0  0
 21 26  1  0  0  0  0
 41 43  1  0  0  0  0
  7 12  1  0  0  0  0
 31 36  1  0  0  0  0
 17 24  1  0  0  0  0
 22 27  1  0  0  0  0
M  END
$$$$

  -OEChem-05262214473D

 46 45  0     1  0  0  0  0  0999 V2000
   -4.6700    2.7214    1.5150 C   0  0  0  0  0  0  0  0  0  0  0  0
   -5.4532    2.5715    0.5845 O   0  0  0  0  0  0  0  0  0  0  0  0
   -5.0996    3.4865    2.7226 C   0  0  0  0  0  0  0  0  0  0  0  0
   -4.8796    4.5629    2.6387 H   0  0  0  0  0  0  0  0  0  0  0  0
   -6.1861    3.4241    2.8954 H   0  0  0  0  0  0  0  0  0  0  0  0
   -4.6369    3.1693    3.6708 H   0  0  0  0  0  0  0  0  0  0  0  0
   -3.3731    2.2391    1.5790 N   0  0  0  0  0  0  0  0  0  0  0  0
   -2.7599    1.4751    0.5247 C   0  0  2  0  0  0  0  0  0  0  0  0
   -1.5143    0.8067    1.0915 C   0  0  0  0  0  0  0  0  0  0  0  0
   -0.9247    1.2213    2.0872 O   0  0  0  0  0  0  0  0  0  0  0  0
   -2.4106    2.3553   -0.6653 C   0  0  0  0  0  0  0  0  0  0  0  0
   -2.8254    2.4352    2.4150 H   0  0  0  0  0  0  0  0  0  0  0  0
   -3.4836    0.7082    0.2278 H   0  0  0  0  0  0  0  0  0  0  0  0
   -1.6866    3.1298   -0.3871 H   0  0  0  0  0  0  0  0  0  0  0  0
   -1.9704    1.7677   -1.4777 H   0  0  0  0  0  0  0  0  0  0  0  0
   -3.3030    2.8584   -1.0531 H   0  0  0  0  0  0  0  0  0  0  0  0
   -1.1107   -0.2839    0.3303 N   0  0  0  0  0  0  0  0  0  0  0  0
    0.0490   -1.0750    0.6539 C   0  0  2  0  0  0  0  0  0  0  0  0
    0.0144   -1.3510    2.1543 C   0  0  0  0  0  0  0  0  0  0  0  0
   -0.7762   -2.1364    2.6733 O   0  0  0  0  0  0  0  0  0  0  0  0
    1.3639   -0.4023    0.2337 C   0  0  2  0  0  0  0  0  0  0  0  0
    1.5297    0.8455    0.9053 O   0  0  0  0  0  0  0  0  0  0  0  0
    1.4217   -0.1355   -1.2656 C   0  0  0  0  0  0  0  0  0  0  0  0
   -1.6733   -0.5660   -0.4691 H   0  0  0  0  0  0  0  0  0  0  0  0
   -0.0686   -2.0288    0.1252 H   0  0  0  0  0  0  0  0  0  0  0  0
    2.2177   -1.0337    0.5058 H   0  0  0  0  0  0  0  0  0  0  0  0
    2.3946    1.1899    0.6353 H   0  0  0  0  0  0  0  0  0  0  0  0
    0.5870    0.4941   -1.5924 H   0  0  0  0  0  0  0  0  0  0  0  0
    1.4054   -1.0688   -1.8365 H   0  0  0  0  0  0  0  0  0  0  0  0
    2.3379    0.4097   -1.5178 H   0  0  0  0  0  0  0  0  0  0  0  0
    0.9360   -0.5809    2.8494 N   0  0  0  0  0  0  0  0  0  0  0  0
    1.0712   -0.6391    4.2860 C   0  0  2  0  0  0  0  0  0  0  0  0
    1.8726   -1.8869    4.6327 C   0  0  0  0  0  0  0  0  0  0  0  0
    1.9612   -2.8570    3.8830 O   0  0  0  0  0  0  0  0  0  0  0  0
   -0.2872   -0.6582    4.9693 C   0  0  0  0  0  0  0  0  0  0  0  0
    1.5389    0.0483    2.3274 H   0  0  0  0  0  0  0  0  0  0  0  0
    1.6330    0.2519    4.5871 H   0  0  0  0  0  0  0  0  0  0  0  0
   -0.8647   -1.5437    4.6798 H   0  0  0  0  0  0  0  0  0  0  0  0
   -0.1829   -0.6735    6.0592 H   0  0  0  0  0  0  0  0  0  0  0  0
   -0.8738    0.2253    4.6953 H   0  0  0  0  0  0  0  0  0  0  0  0
    2.4418   -1.8072    5.8960 N   0  0  0  0  0  0  0  0  0  0  0  0
    3.2397   -2.8708    6.4600 C   0  0  0  0  0  0  0  0  0  0  0  0
    2.3322   -0.9570    6.4407 H   0  0  0  0  0  0  0  0  0  0  0  0
    2.5963   -3.5380    7.0524 H   0  0  0  0  0  0  0  0  0  0  0  0
    3.7133   -3.4434    5.6490 H   0  0  0  0  0  0  0  0  0  0  0  0
    4.0176   -2.4412    7.1083 H   0  0  0  0  0  0  0  0  0  0  0  0
  1  3  1  0  0  0  0
  1  7  1  0  0  0  0
  1  2  2  0  0  0  0
 32 33  1  0  0  0  0
 33 41  1  0  0  0  0
 33 34  2  0  0  0  0
  8  9  1  0  0  0  0
  9 17  1  0  0  0  0
  9 10  2  0  0  0  0
 18 19  1  0  0  0  0
 19 31  1  0  0  0  0
 19 20  2  0  0  0  0
 32 35  1  0  0  0  0
  8 11  1  0  0  0  0
 21 23  1  0  0  0  0
 41 42  1  0  0  0  0
 31 32  1  0  0  0  0
  7  8  1  0  0  0  0
 18 21  1  0  0  0  0
 17 18  1  0  0  0  0
 21 22  1  0  0  0  0
  3  4  1  0  0  0  0
  3  5  1  0  0  0  0
  3  6  1  0  0  0  0
 35 38  1  0  0  0  0
 35 39  1  0  0  0  0
 35 40  1  0  0  0  0
 11 14  1  0  0  0  0
 11 15  1  0  0  0  0
 11 16  1  0  0  0  0
 23 28  1  0  0  0  0
 23 29  1  0  0  0  0
 23 30  1  0  0  0  0
 42 44  1  0  0  0  0
 42 45  1  0  0  0  0
 42 46  1  0  0  0  0
 32 37  1  0  0  0  0
  8 13  1  0  0  0  0
 18 25  1  0  0  0  0
 21 26  1  0  0  0  0
 41 43  1  0  0  0  0
  7 12  1  0  0  0  0
 31 36  1  0  0  0  0
 17 24  1  0  0  0  0
 22 27  1  0  0  0  0
M  END
$$$$

  -OEChem-05262214473D

 46 45  0     1  0  0  0  0  0999 V2000
   -4.6700    2.7214    1.5150 C   0  0  0  0  0  0  0  0  0  0  0  0
   -5.4532    2.5715    0.5845 O   0  0  0  0  0  0  0  0  0  0  0  0
   -5.0996    3.4865    2.7226 C   0  0  0  0  0  0  0  0  0  0  0  0
   -4.8796    4.5629    2.6387 H   0  0  0  0  0  0  0  0  0  0  0  0
   -6.1861    3.4241    2.8954 H   0  0  0  0  0  0  0  0  0  0  0  0
   -4.6369    3.1693    3.6708 H   0  0  0  0  0  0  0  0  0  0  0  0
   -3.3731    2.2391    1.5790 N   0  0  0  0  0  0  0  0  0  0  0  0
   -2.7599    1.4751    0.5247 C   0  0  2  0  0  0  0  0  0  0  0  0
   -1.5143    0.8067    1.0915 C   0  0  0  0  0  0  0  0  0  0  0  0
   -0.9247    1.2213    2.0872 O   0  0  0  0  0  0  0  0  0  0  0  0
   -2.4106    2.3553   -0.6653 C   0  0  0  0  0  0  0  0  0  0  0  0
   -2.8254    2.4352    2.4150 H   0  0  0  0  0  0  0  0  0  0  0  0
   -3.4836    0.7082    0.2278 H   0  0  0  0  0  0  0  0  0  0  0  0
   -1.6866    3.1298   -0.3871 H   0  0  0  0  0  0  0  0  0  0  0  0
   -1.9704    1.7677   -1.4777 H   0  0  0  0  0  0  0  0  0  0  0  0
   -3.3030    2.8584   -1.0531 H   0  0  0  0  0  0  0  0  0  0  0  0
   -1.1107   -0.2839    0.3303 N   0  0  0  0  0  0  0  0  0  0  0  0
    0.0490   -1.0750    0.6539 C   0  0  2  0  0  0  0  0  0  0  0  0
    0.0144   -1.3510    2.1543 C   0  0  0  0  0  0  0  0  0  0  0  0
   -0.5742   -2.3120    2.6456 O   0  0  0  0  0  0  0  0  0  0  0  0
    1.3639   -0.4023    0.2337 C   0  0  2  0  0  0  0  0  0  0  0  0
    1.5297    0.8455    0.9053 O   0  0  0  0  0  0  0  0  0  0  0  0
    1.4217   -0.1355   -1.2656 C   0  0  0  0  0  0  0  0  0  0  0  0
   -1.6733   -0.5660   -0.4691 H   0  0  0  0  0  0  0  0  0  0  0  0
   -0.0686   -2.0288    0.1252 H   0  0  0  0  0  0  0  0  0  0  0  0
    2.2177   -1.0337    0.5058 H   0  0  0  0  0  0  0  0  0  0  0  0
    2.3946    1.1899    0.6353 H   0  0  0  0  0  0  0  0  0  0  0  0
    0.5870    0.4941   -1.5924 H   0  0  0  0  0  0  0  0  0  0  0  0
    1.4054   -1.0688   -1.8365 H   0  0  0  0  0  0  0  0  0  0  0  0
    2.3379    0.4097   -1.5178 H   0  0  0  0  0  0  0  0  0  0  0  0
    0.6756   -0.3717    2.8819 N   0  0  0  0  0  0  0  0  0  0  0  0
    0.7527   -0.3938    4.3237 C   0  0  2  0  0  0  0  0  0  0  0  0
    1.8277   -1.3965    4.7219 C   0  0  0  0  0  0  0  0  0  0  0  0
    2.1957   -2.3120    3.9887 O   0  0  0  0  0  0  0  0  0  0  0  0
   -0.5871   -0.7583    4.9440 C   0  0  0  0  0  0  0  0  0  0  0  0
    1.1228    0.3903    2.3808 H   0  0  0  0  0  0  0  0  0  0  0  0
    1.0545    0.6107    4.6397 H   0  0  0  0  0  0  0  0  0  0  0  0
   -0.9058   -1.7617    4.6388 H   0  0  0  0  0  0  0  0  0  0  0  0
   -0.5343   -0.7468    6.0377 H   0  0  0  0  0  0  0  0  0  0  0  0
   -1.3654   -0.0533    4.6327 H   0  0  0  0  0  0  0  0  0  0  0  0
    2.2972   -1.1748    6.0090 N   0  0  0  0  0  0  0  0  0  0  0  0
    3.3116   -2.0003    6.6218 C   0  0  0  0  0  0  0  0  0  0  0  0
    1.9491   -0.3806    6.5379 H   0  0  0  0  0  0  0  0  0  0  0  0
    2.8315   -2.8094    7.1918 H   0  0  0  0  0  0  0  0  0  0  0  0
    3.9533   -2.4333    5.8403 H   0  0  0  0  0  0  0  0  0  0  0  0
    3.9229   -1.3869    7.3000 H   0  0  0  0  0  0  0  0  0  0  0  0
  1  3  1  0  0  0  0
  1  7  1  0  0  0  0
  1  2  2  0  0  0  0
 32 33  1  0  0  0  0
 33 41  1  0  0  0  0
 33 34  2  0  0  0  0
  8  9  1  0  0  0  0
  9 17  1  0  0  0  0
  9 10  2  0  0  0  0
 18 19  1  0  0  0  0
 19 31  1  0  0  0  0
 19 20  2  0  0  0  0
 32 35  1  0  0  0  0
  8 11  1  0  0  0  0
 21 23  1  0  0  0  0
 41 42  1  0  0  0  0
 31 32  1  0  0  0  0
  7  8  1  0  0  0  0
 18 21  1  0  0  0  0
 17 18  1  0  0  0  0
 21 22  1  0  0  0  0
  3  4  1  0  0  0  0
  3  5  1  0  0  0  0
  3  6  1  0  0  0  0
 35 38  1  0  0  0  0
 35 39  1  0  0  0  0
 35 40  1  0  0  0  0
 11 14  1  0  0  0  0
 11 15  1  0  0  0  0
 11 16  1  0  0  0  0
 23 28  1  0  0  0  0
 23 29  1  0  0  0  0
 23 30  1  0  0  0  0
 42 44  1  0  0  0  0
 42 45  1  0  0  0  0
 42 46  1  0  0  0  0
 32 37  1  0  0  0  0
  8 13  1  0  0  0  0
 18 25  1  0  0  0  0
 21 26  1  0  0  0  0
 41 43  1  0  0  0  0
  7 12  1  0  0  0  0
 31 36  1  0  0  0  0
 17 24  1  0  0  0  0
 22 27  1  0  0  0  0
M  END
$$$$

  -OEChem-05262214473D

 46 45  0     1  0  0  0  0  0999 V2000
   -4.6700    2.7214    1.5150 C   0  0  0  0  0  0  0  0  0  0  0  0
   -5.4532    2.5715    0.5845 O   0  0  0  0  0  0  0  0  0  0  0  0
   -5.0996    3.4865    2.7226 C   0  0  0  0  0  0  0  0  0  0  0  0
   -4.8796    4.5629    2.6387 H   0  0  0  0  0  0  0  0  0  0  0  0
   -6.1861    3.4241    2.8954 H   0  0  0  0  0  0  0  0  0  0  0  0
   -4.6369    3.1693    3.6708 H   0  0  0  0  0  0  0  0  0  0  0  0
   -3.3731    2.2391    1.5790 N   0  0  0  0  0  0  0  0  0  0  0  0
   -2.7599    1.4751    0.5247 C   0  0  2  0  0  0  0  0  0  0  0  0
   -1.5143    0.8067    1.0915 C   0  0  0  0  0  0  0  0  0  0  0  0
   -0.9247    1.2213    2.0872 O   0  0  0  0  0  0  0  0  0  0  0  0
   -2.4106    2.3553   -0.6653 C   0  0  0  0  0  0  0  0  0  0  0  0
   -2.8254    2.4352    2.4150 H   0  0  0  0  0  0  0  0  0  0  0  0
   -3.4836    0.7082    0.2278 H   0  0  0  0  0  0  0  0  0  0  0  0
   -1.6866    3.1298   -0.3871 H   0  0  0  0  0  0  0  0  0  0  0  0
   -1.9704    1.7677   -1.4777 H   0  0  0  0  0  0  0  0  0  0  0  0
   -3.3030    2.8584   -1.0531 H   0  0  0  0  0  0  0  0  0  0  0  0
   -1.1107   -0.2839    0.3303 N   0  0  0  0  0  0  0  0  0  0  0  0
    0.0490   -1.0750    0.6539 C   0  0  2  0  0  0  0  0  0  0  0  0
    0.0144   -1.3510    2.1543 C   0  0  0  0  0  0  0  0  0  0  0  0
   -0.3332   -2.4302    2.6294 O   0  0  0  0  0  0  0  0  0  0  0  0
    1.3639   -0.4023    0.2337 C   0  0  2  0  0  0  0  0  0  0  0  0
    1.5297    0.8455    0.9053 O   0  0  0  0  0  0  0  0  0  0  0  0
    1.4217   -0.1355   -1.2656 C   0  0  0  0  0  0  0  0  0  0  0  0
   -1.6733   -0.5660   -0.4691 H   0  0  0  0  0  0  0  0  0  0  0  0
   -0.0686   -2.0288    0.1252 H   0  0  0  0  0  0  0  0  0  0  0  0
    2.2177   -1.0337    0.5058 H   0  0  0  0  0  0  0  0  0  0  0  0
    2.3946    1.1899    0.6353 H   0  0  0  0  0  0  0  0  0  0  0  0
    0.5870    0.4941   -1.5924 H   0  0  0  0  0  0  0  0  0  0  0  0
    1.4054   -1.0688   -1.8365 H   0  0  0  0  0  0  0  0  0  0  0  0
    2.3379    0.4097   -1.5178 H   0  0  0  0  0  0  0  0  0  0  0  0
    0.3694   -0.2358    2.8998 N   0  0  0  0  0  0  0  0  0  0  0  0
    0.3809   -0.2378    4.3438 C   0  0  2  0  0  0  0  0  0  0  0  0
    1.6554   -0.9338    4.8030 C   0  0  0  0  0  0  0  0  0  0  0  0
    2.2785   -1.7253    4.0985 O   0  0  0  0  0  0  0  0  0  0  0  0
   -0.8500   -0.9315    4.9061 C   0  0  0  0  0  0  0  0  0  0  0  0
    0.6314    0.6151    2.4108 H   0  0  0  0  0  0  0  0  0  0  0  0
    0.4019    0.8104    4.6614 H   0  0  0  0  0  0  0  0  0  0  0  0
   -0.8883   -1.9829    4.5985 H   0  0  0  0  0  0  0  0  0  0  0  0
   -0.8540   -0.9071    6.0008 H   0  0  0  0  0  0  0  0  0  0  0  0
   -1.7664   -0.4478    4.5508 H   0  0  0  0  0  0  0  0  0  0  0  0
    1.9913   -0.6001    6.1076 N   0  0  0  0  0  0  0  0  0  0  0  0
    3.1519   -1.1402    6.7764 C   0  0  0  0  0  0  0  0  0  0  0  0
    1.4279    0.0793    6.6105 H   0  0  0  0  0  0  0  0  0  0  0  0
    2.8669   -2.0450    7.3333 H   0  0  0  0  0  0  0  0  0  0  0  0
    3.9190   -1.3953    6.0305 H   0  0  0  0  0  0  0  0  0  0  0  0
    3.5541   -0.3914    7.4746 H   0  0  0  0  0  0  0  0  0  0  0  0
  1  3  1  0  0  0  0
  1  7  1  0  0  0  0
  1  2  2  0  0  0  0
 32 33  1  0  0  0  0
 33 41  1  0  0  0  0
 33 34  2  0  0  0  0
  8  9  1  0  0  0  0
  9 17  1  0  0  0  0
  9 10  2  0  0  0  0
 18 19  1  0  0  0  0
 19 31  1  0  0  0  0
 19 20  2  0  0  0  0
 32 35  1  0  0  0  0
  8 11  1  0  0  0  0
 21 23  1  0  0  0  0
 41 42  1  0  0  0  0
 31 32  1  0  0  0  0
  7  8  1  0  0  0  0
 18 21  1  0  0  0  0
 17 18  1  0  0  0  0
 21 22  1  0  0  0  0
  3  4  1  0  0  0  0
  3  5  1  0  0  0  0
  3  6  1  0  0  0  0
 35 38  1  0  0  0  0
 35 39  1  0  0  0  0
 35 40  1  0  0  0  0
 11 14  1  0  0  0  0
 11 15  1  0  0  0  0
 11 16  1  0  0  0  0
 23 28  1  0  0  0  0
 23 29  1  0  0  0  0
 23 30  1  0  0  0  0
 42 44  1  0  0  0  0
 42 45  1  0  0  0  0
 42 46  1  0  0  0  0
 32 37  1  0  0  0  0
  8 13  1  0  0  0  0
 18 25  1  0  0  0  0
 21 26  1  0  0  0  0
 41 43  1  0  0  0  0
  7 12  1  0  0  0  0
 31 36  1  0  0  0  0
 17 24  1  0  0  0  0
 22 27  1  0  0  0  0
M  END
$$$$

  -OEChem-05262214473D

 46 45  0     1  0  0  0  0  0999 V2000
   -4.6700    2.7214    1.5150 C   0  0  0  0  0  0  0  0  0  0  0  0
   -5.4532    2.5715    0.5845 O   0  0  0  0  0  0  0  0  0  0  0  0
   -5.0996    3.4865    2.7226 C   0  0  0  0  0  0  0  0  0  0  0  0
   -4.8796    4.5629    2.6387 H   0  0  0  0  0  0  0  0  0  0  0  0
   -6.1861    3.4241    2.8954 H   0  0  0  0  0  0  0  0  0  0  0  0
   -4.6369    3.1693    3.6708 H   0  0  0  0  0  0  0  0  0  0  0  0
   -3.3731    2.2391    1.5790 N   0  0  0  0  0  0  0  0  0  0  0  0
   -2.7599    1.4751    0.5247 C   0  0  2  0  0  0  0  0  0  0  0  0
   -1.5143    0.8067    1.0915 C   0  0  0  0  0  0  0  0  0  0  0  0
   -0.9247    1.2213    2.0872 O   0  0  0  0  0  0  0  0  0  0  0  0
   -2.4106    2.3553   -0.6653 C   0  0  0  0  0  0  0  0  0  0  0  0
   -2.8254    2.4352    2.4150 H   0  0  0  0  0  0  0  0  0  0  0  0
   -3.4836    0.7082    0.2278 H   0  0  0  0  0  0  0  0  0  0  0  0
   -1.6866    3.1298   -0.3871 H   0  0  0  0  0  0  0  0  0  0  0  0
   -1.9704    1.7677   -1.4777 H   0  0  0  0  0  0  0  0  0  0  0  0
   -3.3030    2.8584   -1.0531 H   0  0  0  0  0  0  0  0  0  0  0  0
   -1.1107   -0.2839    0.3303 N   0  0  0  0  0  0  0  0  0  0  0  0
    0.0490   -1.0750    0.6539 C   0  0  2  0  0  0  0  0  0  0  0  0
    0.0144   -1.3510    2.1543 C   0  0  0  0  0  0  0  0  0  0  0  0
   -0.0694   -2.4833    2.6258 O   0  0  0  0  0  0  0  0  0  0  0  0
    1.3639   -0.4023    0.2337 C   0  0  2  0  0  0  0  0  0  0  0  0
    1.5297    0.8455    0.9053 O   0  0  0  0  0  0  0  0  0  0  0  0
    1.4217   -0.1355   -1.2656 C   0  0  0  0  0  0  0  0  0  0  0  0
   -1.6733   -0.5660   -0.4691 H   0  0  0  0  0  0  0  0  0  0  0  0
   -0.0686   -2.0288    0.1252 H   0  0  0  0  0  0  0  0  0  0  0  0
    2.2177   -1.0337    0.5058 H   0  0  0  0  0  0  0  0  0  0  0  0
    2.3946    1.1899    0.6353 H   0  0  0  0  0  0  0  0  0  0  0  0
    0.5870    0.4941   -1.5924 H   0  0  0  0  0  0  0  0  0  0  0  0
    1.4054   -1.0688   -1.8365 H   0  0  0  0  0  0  0  0  0  0  0  0
    2.3379    0.4097   -1.5178 H   0  0  0  0  0  0  0  0  0  0  0  0
    0.0382   -0.1823    2.9020 N   0  0  0  0  0  0  0  0  0  0  0  0
   -0.0189   -0.1815    4.3450 C   0  0  2  0  0  0  0  0  0  0  0  0
    1.3674   -0.5302    4.8706 C   0  0  0  0  0  0  0  0  0  0  0  0
    2.2041   -1.1368    4.2051 O   0  0  0  0  0  0  0  0  0  0  0  0
   -1.0582   -1.1660    4.8581 C   0  0  0  0  0  0  0  0  0  0  0  0
    0.0981    0.7074    2.4154 H   0  0  0  0  0  0  0  0  0  0  0  0
   -0.2804    0.8374    4.6506 H   0  0  0  0  0  0  0  0  0  0  0  0
   -0.8131   -2.1924    4.5617 H   0  0  0  0  0  0  0  0  0  0  0  0
   -1.1203   -1.1435    5.9511 H   0  0  0  0  0  0  0  0  0  0  0  0
   -2.0495   -0.9314    4.4553 H   0  0  0  0  0  0  0  0  0  0  0  0
    1.5449   -0.1222    6.1852 N   0  0  0  0  0  0  0  0  0  0  0  0
    2.7715   -0.3491    6.9131 C   0  0  0  0  0  0  0  0  0  0  0  0
    0.8040    0.3912    6.6534 H   0  0  0  0  0  0  0  0  0  0  0  0
    2.6998   -1.2967    7.4671 H   0  0  0  0  0  0  0  0  0  0  0  0
    3.6129   -0.4004    6.2064 H   0  0  0  0  0  0  0  0  0  0  0  0
    2.9364    0.4773    7.6202 H   0  0  0  0  0  0  0  0  0  0  0  0
  1  3  1  0  0  0  0
  1  7  1  0  0  0  0
  1  2  2  0  0  0  0
 32 33  1  0  0  0  0
 33 41  1  0  0  0  0
 33 34  2  0  0  0  0
  8  9  1  0  0  0  0
  9 17  1  0  0  0  0
  9 10  2  0  0  0  0
 18 19  1  0  0  0  0
 19 31  1  0  0  0  0
 19 20  2  0  0  0  0
 32 35  1  0  0  0  0
  8 11  1  0  0  0  0
 21 23  1  0  0  0  0
 41 42  1  0  0  0  0
 31 32  1  0  0  0  0
  7  8  1  0  0  0  0
 18 21  1  0  0  0  0
 17 18  1  0  0  0  0
 21 22  1  0  0  0  0
  3  4  1  0  0  0  0
  3  5  1  0  0  0  0
  3  6  1  0  0  0  0
 35 38  1  0  0  0  0
 35 39  1  0  0  0  0
 35 40  1  0  0  0  0
 11 14  1  0  0  0  0
 11 15  1  0  0  0  0
 11 16  1  0  0  0  0
 23 28  1  0  0  0  0
 23 29  1  0  0  0  0
 23 30  1  0  0  0  0
 42 44  1  0  0  0  0
 42 45  1  0  0  0  0
 42 46  1  0  0  0  0
 32 37  1  0  0  0  0
  8 13  1  0  0  0  0
 18 25  1  0  0  0  0
 21 26  1  0  0  0  0
 41 43  1  0  0  0  0
  7 12  1  0  0  0  0
 31 36  1  0  0  0  0
 17 24  1  0  0  0  0
 22 27  1  0  0  0  0
M  END
$$$$

  -OEChem-05262214473D

 46 45  0     1  0  0  0  0  0999 V2000
   -4.6700    2.7214    1.5150 C   0  0  0  0  0  0  0  0  0  0  0  0
   -5.4532    2.5715    0.5845 O   0  0  0  0  0  0  0  0  0  0  0  0
   -5.0996    3.4865    2.7226 C   0  0  0  0  0  0  0  0  0  0  0  0
   -4.8796    4.5629    2.6387 H   0  0  0  0  0  0  0  0  0  0  0  0
   -6.1861    3.4241    2.8954 H   0  0  0  0  0  0  0  0  0  0  0  0
   -4.6369    3.1693    3.6708 H   0  0  0  0  0  0  0  0  0  0  0  0
   -3.3731    2.2391    1.5790 N   0  0  0  0  0  0  0  0  0  0  0  0
   -2.7599    1.4751    0.5247 C   0  0  2  0  0  0  0  0  0  0  0  0
   -1.5143    0.8067    1.0915 C   0  0  0  0  0  0  0  0  0  0  0  0
   -0.9247    1.2213    2.0872 O   0  0  0  0  0  0  0  0  0  0  0  0
   -2.4106    2.3553   -0.6653 C   0  0  0  0  0  0  0  0  0  0  0  0
   -2.8254    2.4352    2.4150 H   0  0  0  0  0  0  0  0  0  0  0  0
   -3.4836    0.7082    0.2278 H   0  0  0  0  0  0  0  0  0  0  0  0
   -1.6866    3.1298   -0.3871 H   0  0  0  0  0  0  0  0  0  0  0  0
   -1.9704    1.7677   -1.4777 H   0  0  0  0  0  0  0  0  0  0  0  0
   -3.3030    2.8584   -1.0531 H   0  0  0  0  0  0  0  0  0  0  0  0
   -1.1107   -0.2839    0.3303 N   0  0  0  0  0  0  0  0  0  0  0  0
    0.0490   -1.0750    0.6539 C   0  0  2  0  0  0  0  0  0  0  0  0
    0.0144   -1.3510    2.1543 C   0  0  0  0  0  0  0  0  0  0  0  0
    0.1990   -2.4674    2.6349 O   0  0  0  0  0  0  0  0  0  0  0  0
    1.3639   -0.4023    0.2337 C   0  0  2  0  0  0  0  0  0  0  0  0
    1.5297    0.8455    0.9053 O   0  0  0  0  0  0  0  0  0  0  0  0
    1.4217   -0.1355   -1.2656 C   0  0  0  0  0  0  0  0  0  0  0  0
   -1.6733   -0.5660   -0.4691 H   0  0  0  0  0  0  0  0  0  0  0  0
   -0.0686   -2.0288    0.1252 H   0  0  0  0  0  0  0  0  0  0  0  0
    2.2177   -1.0337    0.5058 H   0  0  0  0  0  0  0  0  0  0  0  0
    2.3946    1.1899    0.6353 H   0  0  0  0  0  0  0  0  0  0  0  0
    0.5870    0.4941   -1.5924 H   0  0  0  0  0  0  0  0  0  0  0  0
    1.4054   -1.0688   -1.8365 H   0  0  0  0  0  0  0  0  0  0  0  0
    2.3379    0.4097   -1.5178 H   0  0  0  0  0  0  0  0  0  0  0  0
   -0.2955   -0.2149    2.8883 N   0  0  0  0  0  0  0  0  0  0  0  0
   -0.4194   -0.2289    4.3270 C   0  0  2  0  0  0  0  0  0  0  0  0
    0.9833   -0.2132    4.9200 C   0  0  0  0  0  0  0  0  0  0  0  0
    1.9775   -0.5867    4.3010 O   0  0  0  0  0  0  0  0  0  0  0  0
   -1.1974   -1.4457    4.8035 C   0  0  0  0  0  0  0  0  0  0  0  0
   -0.4407    0.6608    2.3944 H   0  0  0  0  0  0  0  0  0  0  0  0
   -0.9457    0.6898    4.6081 H   0  0  0  0  0  0  0  0  0  0  0  0
   -0.6854   -2.3758    4.5309 H   0  0  0  0  0  0  0  0  0  0  0  0
   -1.3151   -1.4400    5.8921 H   0  0  0  0  0  0  0  0  0  0  0  0
   -2.1953   -1.4712    4.3527 H   0  0  0  0  0  0  0  0  0  0  0  0
    0.9884    0.2263    6.2365 N   0  0  0  0  0  0  0  0  0  0  0  0
    2.1964    0.3190    7.0227 C   0  0  0  0  0  0  0  0  0  0  0  0
    0.1199    0.5340    6.6639 H   0  0  0  0  0  0  0  0  0  0  0  0
    2.3418   -0.6157    7.5841 H   0  0  0  0  0  0  0  0  0  0  0  0
    3.0558    0.4838    6.3562 H   0  0  0  0  0  0  0  0  0  0  0  0
    2.1118    1.1600    7.7267 H   0  0  0  0  0  0  0  0  0  0  0  0
  1  3  1  0  0  0  0
  1  7  1  0  0  0  0
  1  2  2  0  0  0  0
 32 33  1  0  0  0  0
 33 41  1  0  0  0  0
 33 34  2  0  0  0  0
  8  9  1  0  0  0  0
  9 17  1  0  0  0  0
  9 10  2  0  0  0  0
 18 19  1  0  0  0  0
 19 31  1  0  0  0  0
 19 20  2  0  0  0  0
 32 35  1  0  0  0  0
  8 11  1  0  0  0  0
 21 23  1  0  0  0  0
 41 42  1  0  0  0  0
 31 32  1  0  0  0  0
  7  8  1  0  0  0  0
 18 21  1  0  0  0  0
 17 18  1  0  0  0  0
 21 22  1  0  0  0  0
  3  4  1  0  0  0  0
  3  5  1  0  0  0  0
  3  6  1  0  0  0  0
 35 38  1  0  0  0  0
 35 39  1  0  0  0  0
 35 40  1  0  0  0  0
 11 14  1  0  0  0  0
 11 15  1  0  0  0  0
 11 16  1  0  0  0  0
 23 28  1  0  0  0  0
 23 29  1  0  0  0  0
 23 30  1  0  0  0  0
 42 44  1  0  0  0  0
 42 45  1  0  0  0  0
 42 46  1  0  0  0  0
 32 37  1  0  0  0  0
  8 13  1  0  0  0  0
 18 25  1  0  0  0  0
 21 26  1  0  0  0  0
 41 43  1  0  0  0  0
  7 12  1  0  0  0  0
 31 36  1  0  0  0  0
 17 24  1  0  0  0  0
 22 27  1  0  0  0  0
M  END
$$$$

  -OEChem-05262214473D

 46 45  0     1  0  0  0  0  0999 V2000
   -4.6700    2.7214    1.5150 C   0  0  0  0  0  0  0  0  0  0  0  0
   -5.4532    2.5715    0.5845 O   0  0  0  0  0  0  0  0  0  0  0  0
   -5.0996    3.4865    2.7226 C   0  0  0  0  0  0  0  0  0  0  0  0
   -4.8796    4.5629    2.6387 H   0  0  0  0  0  0  0  0  0  0  0  0
   -6.1861    3.4241    2.8954 H   0  0  0  0  0  0  0  0  0  0  0  0
   -4.6369    3.1693    3.6708 H   0  0  0  0  0  0  0  0  0  0  0  0
   -3.3731    2.2391    1.5790 N   0  0  0  0  0  0  0  0  0  0  0  0
   -2.7599    1.4751    0.5247 C   0  0  2  0  0  0  0  0  0  0  0  0
   -1.5143    0.8067    1.0915 C   0  0  0  0  0  0  0  0  0  0  0  0
   -0.9247    1.2213    2.0872 O   0  0  0  0  0  0  0  0  0  0  0  0
   -2.4106    2.3553   -0.6653 C   0  0  0  0  0  0  0  0  0  0  0  0
   -2.8254    2.4352    2.4150 H   0  0  0  0  0  0  0  0  0  0  0  0
   -3.4836    0.7082    0.2278 H   0  0  0  0  0  0  0  0  0  0  0  0
   -1.6866    3.1298   -0.3871 H   0  0  0  0  0  0  0  0  0  0  0  0
   -1.9704    1.7677   -1.4777 H   0  0  0  0  0  0  0  0  0  0  0  0
   -3.3030    2.8584   -1.0531 H   0  0  0  0  0  0  0  0  0  0  0  0
   -1.1107   -0.2839    0.3303 N   0  0  0  0  0  0  0  0  0  0  0  0
    0.0490   -1.0750    0.6539 C   0  0  2  0  0  0  0  0  0  0  0  0
    0.0144   -1.3510    2.1543 C   0  0  0  0  0  0  0  0  0  0  0  0
    0.4538   -2.3836    2.6562 O   0  0  0  0  0  0  0  0  0  0  0  0
    1.3639   -0.4023    0.2337 C   0  0  2  0  0  0  0  0  0  0  0  0
    1.5297    0.8455    0.9053 O   0  0  0  0  0  0  0  0  0  0  0  0
    1.4217   -0.1355   -1.2656 C   0  0  0  0  0  0  0  0  0  0  0  0
   -1.6733   -0.5660   -0.4691 H   0  0  0  0  0  0  0  0  0  0  0  0
   -0.0686   -2.0288    0.1252 H   0  0  0  0  0  0  0  0  0  0  0  0
    2.2177   -1.0337    0.5058 H   0  0  0  0  0  0  0  0  0  0  0  0
    2.3946    1.1899    0.6353 H   0  0  0  0  0  0  0  0  0  0  0  0
    0.5870    0.4941   -1.5924 H   0  0  0  0  0  0  0  0  0  0  0  0
    1.4054   -1.0688   -1.8365 H   0  0  0  0  0  0  0  0  0  0  0  0
    2.3379    0.4097   -1.5178 H   0  0  0  0  0  0  0  0  0  0  0  0
   -0.6088   -0.3313    2.8597 N   0  0  0  0  0  0  0  0  0  0  0  0
   -0.7934   -0.3768    4.2912 C   0  0  2  0  0  0  0  0  0  0  0  0
    0.5293   -0.0045    4.9479 C   0  0  0  0  0  0  0  0  0  0  0  0
    1.6141   -0.1124    4.3799 O   0  0  0  0  0  0  0  0  0  0  0  0
   -1.2581   -1.7516    4.7458 C   0  0  0  0  0  0  0  0  0  0  0  0
   -0.9484    0.4786    2.3492 H   0  0  0  0  0  0  0  0  0  0  0  0
   -1.5488    0.3776    4.5367 H   0  0  0  0  0  0  0  0  0  0  0  0
   -0.5140   -2.5206    4.5082 H   0  0  0  0  0  0  0  0  0  0  0  0
   -1.4250   -1.7763    5.8277 H   0  0  0  0  0  0  0  0  0  0  0  0
   -2.1941   -2.0303    4.2499 H   0  0  0  0  0  0  0  0  0  0  0  0
    0.3599    0.4215    6.2579 N   0  0  0  0  0  0  0  0  0  0  0  0
    1.4657    0.8187    7.0978 C   0  0  0  0  0  0  0  0  0  0  0  0
   -0.5777    0.4979    6.6412 H   0  0  0  0  0  0  0  0  0  0  0  0
    1.8172   -0.0483    7.6763 H   0  0  0  0  0  0  0  0  0  0  0  0
    2.2857    1.1970    6.4696 H   0  0  0  0  0  0  0  0  0  0  0  0
    1.1366    1.6103    7.7870 H   0  0  0  0  0  0  0  0  0  0  0  0
  1  3  1  0  0  0  0
  1  7  1  0  0  0  0
  1  2  2  0  0  0  0
 32 33  1  0  0  0  0
 33 41  1  0  0  0  0
 33 34  2  0  0  0  0
  8  9  1  0  0  0  0
  9 17  1  0  0  0  0
  9 10  2  0  0  0  0
 18 19  1  0  0  0  0
 19 31  1  0  0  0  0
 19 20  2  0  0  0  0
 32 35  1  0  0  0  0
  8 11  1  0  0  0  0
 21 23  1  0  0  0  0
 41 42  1  0  0  0  0
 31 32  1  0  0  0  0
  7  8  1  0  0  0  0
 18 21  1  0  0  0  0
 17 18  1  0  0  0  0
 21 22  1  0  0  0  0
  3  4  1  0  0  0  0
  3  5  1  0  0  0  0
  3  6  1  0  0  0  0
 35 38  1  0  0  0  0
 35 39  1  0  0  0  0
 35 40  1  0  0  0  0
 11 14  1  0  0  0  0
 11 15  1  0  0  0  0
 11 16  1  0  0  0  0
 23 28  1  0  0  0  0
 23 29  1  0  0  0  0
 23 30  1  0  0  0  0
 42 44  1  0  0  0  0
 42 45  1  0  0  0  0
 42 46  1  0  0  0  0
 32 37  1  0  0  0  0
  8 13  1  0  0  0  0
 18 25  1  0  0  0  0
 21 26  1  0  0  0  0
 41 43  1  0  0  0  0
  7 12  1  0  0  0  0
 31 36  1  0  0  0  0
 17 24  1  0  0  0  0
 22 27  1  0  0  0  0
M  END
$$$$

  -OEChem-05262214473D

 46 45  0     1  0  0  0  0  0999 V2000
   -4.6700    2.7214    1.5150 C   0  0  0  0  0  0  0  0  0  0  0  0
   -5.4532    2.5715    0.5845 O   0  0  0  0  0  0  0  0  0  0  0  0
   -5.0996    3.4865    2.7226 C   0  0  0  0  0  0  0  0  0  0  0  0
   -4.8796    4.5629    2.6387 H   0  0  0  0  0  0  0  0  0  0  0  0
   -6.1861    3.4241    2.8954 H   0  0  0  0  0  0  0  0  0  0  0  0
   -4.6369    3.1693    3.6708 H   0  0  0  0  0  0  0  0  0  0  0  0
   -3.3731    2.2391    1.5790 N   0  0  0  0  0  0  0  0  0  0  0  0
   -2.7599    1.4751    0.5247 C   0  0  2  0  0  0  0  0  0  0  0  0
   -1.5143    0.8067    1.0915 C   0  0  0  0  0  0  0  0  0  0  0  0
   -0.9247    1.2213    2.0872 O   0  0  0  0  0  0  0  0  0  0  0  0
   -2.4106    2.3553   -0.6653 C   0  0  0  0  0  0  0  0  0  0  0  0
   -2.8254    2.4352    2.4150 H   0  0  0  0  0  0  0  0  0  0  0  0
   -3.4836    0.7082    0.2278 H   0  0  0  0  0  0  0  0  0  0  0  0
   -1.6866    3.1298   -0.3871 H   0  0  0  0  0  0  0  0  0  0  0  0
   -1.9704    1.7677   -1.4777 H   0  0  0  0  0  0  0  0  0  0  0  0
   -3.3030    2.8584   -1.0531 H   0  0  0  0  0  0  0  0  0  0  0  0
   -1.1107   -0.2839    0.3303 N   0  0  0  0  0  0  0  0  0  0  0  0
    0.0490   -1.0750    0.6539 C   0  0  2  0  0  0  0  0  0  0  0  0
    0.0144   -1.3510    2.1543 C   0  0  0  0  0  0  0  0  0  0  0  0
    0.6776   -2.2378    2.6882 O   0  0  0  0  0  0  0  0  0  0  0  0
    1.3639   -0.4023    0.2337 C   0  0  2  0  0  0  0  0  0  0  0  0
    1.5297    0.8455    0.9053 O   0  0  0  0  0  0  0  0  0  0  0  0
    1.4217   -0.1355   -1.2656 C   0  0  0  0  0  0  0  0  0  0  0  0
   -1.6733   -0.5660   -0.4691 H   0  0  0  0  0  0  0  0  0  0  0  0
   -0.0686   -2.0288    0.1252 H   0  0  0  0  0  0  0  0  0  0  0  0
    2.2177   -1.0337    0.5058 H   0  0  0  0  0  0  0  0  0  0  0  0
    2.3946    1.1899    0.6353 H   0  0  0  0  0  0  0  0  0  0  0  0
    0.5870    0.4941   -1.5924 H   0  0  0  0  0  0  0  0  0  0  0  0
    1.4054   -1.0688   -1.8365 H   0  0  0  0  0  0  0  0  0  0  0  0
    2.3379    0.4097   -1.5178 H   0  0  0  0  0  0  0  0  0  0  0  0
   -0.8805   -0.5237    2.8180 N   0  0  0  0  0  0  0  0  0  0  0  0
   -1.1153   -0.6149    4.2399 C   0  0  2  0  0  0  0  0  0  0  0  0
    0.0364    0.0817    4.9524 C   0  0  0  0  0  0  0  0  0  0  0  0
    1.1387    0.2537    4.4363 O   0  0  0  0  0  0  0  0  0  0  0  0
   -1.2361   -2.0628    4.6890 C   0  0  0  0  0  0  0  0  0  0  0  0
   -1.3902    0.1731    2.2828 H   0  0  0  0  0  0  0  0  0  0  0  0
   -2.0486   -0.0778    4.4414 H   0  0  0  0  0  0  0  0  0  0  0  0
   -0.3105   -2.6170    4.4952 H   0  0  0  0  0  0  0  0  0  0  0  0
   -1.4426   -2.1294    5.7623 H   0  0  0  0  0  0  0  0  0  0  0  0
   -2.0458   -2.5706    4.1539 H   0  0  0  0  0  0  0  0  0  0  0  0
   -0.2979    0.4503    6.2480 N   0  0  0  0  0  0  0  0  0  0  0  0
    0.6293    1.1158    7.1331 C   0  0  0  0  0  0  0  0  0  0  0  0
   -1.2412    0.2854    6.5868 H   0  0  0  0  0  0  0  0  0  0  0  0
    1.1618    0.3668    7.7376 H   0  0  0  0  0  0  0  0  0  0  0  0
    1.3549    1.6905    6.5389 H   0  0  0  0  0  0  0  0  0  0  0  0
    0.0773    1.7974    7.7970 H   0  0  0  0  0  0  0  0  0  0  0  0
  1  3  1  0  0  0  0
  1  7  1  0  0  0  0
  1  2  2  0  0  0  0
 32 33  1  0  0  0  0
 33 41  1  0  0  0  0
 33 34  2  0  0  0  0
  8  9  1  0  0  0  0
  9 17  1  0  0  0  0
  9 10  2  0  0  0  0
 18 19  1  0  0  0  0
 19 31  1  0  0  0  0
 19 20  2  0  0  0  0
 32 35  1  0  0  0  0
  8 11  1  0  0  0  0
 21 23  1  0  0  0  0
 41 42  1  0  0  0  0
 31 32  1  0  0  0  0
  7  8  1  0  0  0  0
 18 21  1  0  0  0  0
 17 18  1  0  0  0  0
 21 22  1  0  0  0  0
  3  4  1  0  0  0  0
  3  5  1  0  0  0  0
  3  6  1  0  0  0  0
 35 38  1  0  0  0  0
 35 39  1  0  0  0  0
 35 40  1  0  0  0  0
 11 14  1  0  0  0  0
 11 15  1  0  0  0  0
 11 16  1  0  0  0  0
 23 28  1  0  0  0  0
 23 29  1  0  0  0  0
 23 30  1  0  0  0  0
 42 44  1  0  0  0  0
 42 45  1  0  0  0  0
 42 46  1  0  0  0  0
 32 37  1  0  0  0  0
  8 13  1  0  0  0  0
 18 25  1  0  0  0  0
 21 26  1  0  0  0  0
 41 43  1  0  0  0  0
  7 12  1  0  0  0  0
 31 36  1  0  0  0  0
 17 24  1  0  0  0  0
 22 27  1  0  0  0  0
M  END
$$$$

  -OEChem-05262214473D

 46 45  0     1  0  0  0  0  0999 V2000
   -4.6700    2.7214    1.5150 C   0  0  0  0  0  0  0  0  0  0  0  0
   -5.4532    2.5715    0.5845 O   0  0  0  0  0  0  0  0  0  0  0  0
   -5.0996    3.4865    2.7226 C   0  0  0  0  0  0  0  0  0  0  0  0
   -4.8796    4.5629    2.6387 H   0  0  0  0  0  0  0  0  0  0  0  0
   -6.1861    3.4241    2.8954 H   0  0  0  0  0  0  0  0  0  0  0  0
   -4.6369    3.1693    3.6708 H   0  0  0  0  0  0  0  0  0  0  0  0
   -3.3731    2.2391    1.5790 N   0  0  0  0  0  0  0  0  0  0  0  0
   -2.7599    1.4751    0.5247 C   0  0  2  0  0  0  0  0  0  0  0  0
   -1.5143    0.8067    1.0915 C   0  0  0  0  0  0  0  0  0  0  0  0
   -0.9247    1.2213    2.0872 O   0  0  0  0  0  0  0  0  0  0  0  0
   -2.4106    2.3553   -0.6653 C   0  0  0  0  0  0  0  0  0  0  0  0
   -2.8254    2.4352    2.4150 H   0  0  0  0  0  0  0  0  0  0  0  0
   -3.4836    0.7082    0.2278 H   0  0  0  0  0  0  0  0  0  0  0  0
   -1.6866    3.1298   -0.3871 H   0  0  0  0  0  0  0  0  0  0  0  0
   -1.9704    1.7677   -1.4777 H   0  0  0  0  0  0  0  0  0  0  0  0
   -3.3030    2.8584   -1.0531 H   0  0  0  0  0  0  0  0  0  0  0  0
   -1.1107   -0.2839    0.3303 N   0  0  0  0  0  0  0  0  0  0  0  0
    0.0490   -1.0750    0.6539 C   0  0  2  0  0  0  0  0  0  0  0  0
    0.0144   -1.3510    2.1543 C   0  0  0  0  0  0  0  0  0  0  0  0
    0.8551   -2.0398    2.7287 O   0  0  0  0  0  0  0  0  0  0  0  0
    1.3639   -0.4023    0.2337 C   0  0  2  0  0  0  0  0  0  0  0  0
    1.5297    0.8455    0.9053 O   0  0  0  0  0  0  0  0  0  0  0  0
    1.4217   -0.1355   -1.2656 C   0  0  0  0  0  0  0  0  0  0  0  0
   -1.6733   -0.5660   -0.4691 H   0  0  0  0  0  0  0  0  0  0  0  0
   -0.0686   -2.0288    0.1252 H   0  0  0  0  0  0  0  0  0  0  0  0
    2.2177   -1.0337    0.5058 H   0  0  0  0  0  0  0  0  0  0  0  0
    2.3946    1.1899    0.6353 H   0  0  0  0  0  0  0  0  0  0  0  0
    0.5870    0.4941   -1.5924 H   0  0  0  0  0  0  0  0  0  0  0  0
    1.4054   -1.0688   -1.8365 H   0  0  0  0  0  0  0  0  0  0  0  0
    2.3379    0.4097   -1.5178 H   0  0  0  0  0  0  0  0  0  0  0  0
   -1.0920   -0.7790    2.7662 N   0  0  0  0  0  0  0  0  0  0  0  0
   -1.3633   -0.9272    4.1767 C   0  0  2  0  0  0  0  0  0  0  0  0
   -0.4619    0.0396    4.9332 C   0  0  0  0  0  0  0  0  0  0  0  0
    0.5837    0.4867    4.4663 O   0  0  0  0  0  0  0  0  0  0  0  0
   -1.1331   -2.3582    4.6371 C   0  0  0  0  0  0  0  0  0  0  0  0
   -1.7361   -0.2348    2.1998 H   0  0  0  0  0  0  0  0  0  0  0  0
   -2.4109   -0.6455    4.3286 H   0  0  0  0  0  0  0  0  0  0  0  0
   -0.0888   -2.6585    4.4927 H   0  0  0  0  0  0  0  0  0  0  0  0
   -1.3666   -2.4754    5.7005 H   0  0  0  0  0  0  0  0  0  0  0  0
   -1.7606   -3.0554    4.0713 H   0  0  0  0  0  0  0  0  0  0  0  0
   -0.9402    0.3107    6.2075 N   0  0  0  0  0  0  0  0  0  0  0  0
   -0.2560    1.1901    7.1264 C   0  0  0  0  0  0  0  0  0  0  0  0
   -1.8255   -0.0890    6.5044 H   0  0  0  0  0  0  0  0  0  0  0  0
    0.4202    0.6013    7.7636 H   0  0  0  0  0  0  0  0  0  0  0  0
    0.3271    1.9308    6.5594 H   0  0  0  0  0  0  0  0  0  0  0  0
   -0.9941    1.7086    7.7559 H   0  0  0  0  0  0  0  0  0  0  0  0
  1  3  1  0  0  0  0
  1  7  1  0  0  0  0
  1  2  2  0  0  0  0
 32 33  1  0  0  0  0
 33 41  1  0  0  0  0
 33 34  2  0  0  0  0
  8  9  1  0  0  0  0
  9 17  1  0  0  0  0
  9 10  2  0  0  0  0
 18 19  1  0  0  0  0
 19 31  1  0  0  0  0
 19 20  2  0  0  0  0
 32 35  1  0  0  0  0
  8 11  1  0  0  0  0
 21 23  1  0  0  0  0
 41 42  1  0  0  0  0
 31 32  1  0  0  0  0
  7  8  1  0  0  0  0
 18 21  1  0  0  0  0
 17 18  1  0  0  0  0
 21 22  1  0  0  0  0
  3  4  1  0  0  0  0
  3  5  1  0  0  0  0
  3  6  1  0  0  0  0
 35 38  1  0  0  0  0
 35 39  1  0  0  0  0
 35 40  1  0  0  0  0
 11 14  1  0  0  0  0
 11 15  1  0  0  0  0
 11 16  1  0  0  0  0
 23 28  1  0  0  0  0
 23 29  1  0  0  0  0
 23 30  1  0  0  0  0
 42 44  1  0  0  0  0
 42 45  1  0  0  0  0
 42 46  1  0  0  0  0
 32 37  1  0  0  0  0
  8 13  1  0  0  0  0
 18 25  1  0  0  0  0
 21 26  1  0  0  0  0
 41 43  1  0  0  0  0
  7 12  1  0  0  0  0
 31 36  1  0  0  0  0
 17 24  1  0  0  0  0
 22 27  1  0  0  0  0
M  END
$$$$

  -OEChem-05262214473D

 46 45  0     1  0  0  0  0  0999 V2000
   -4.6700    2.7214    1.5150 C   0  0  0  0  0  0  0  0  0  0  0  0
   -5.4532    2.5715    0.5845 O   0  0  0  0  0  0  0  0  0  0  0  0
   -5.0996    3.4865    2.7226 C   0  0  0  0  0  0  0  0  0  0  0  0
   -4.8796    4.5629    2.6387 H   0  0  0  0  0  0  0  0  0  0  0  0
   -6.1861    3.4241    2.8954 H   0  0  0  0  0  0  0  0  0  0  0  0
   -4.6369    3.1693    3.6708 H   0  0  0  0  0  0  0  0  0  0  0  0
   -3.3731    2.2391    1.5790 N   0  0  0  0  0  0  0  0  0  0  0  0
   -2.7599    1.4751    0.5247 C   0  0  2  0  0  0  0  0  0  0  0  0
   -1.5143    0.8067    1.0915 C   0  0  0  0  0  0  0  0  0  0  0  0
   -0.9247    1.2213    2.0872 O   0  0  0  0  0  0  0  0  0  0  0  0
   -2.4106    2.3553   -0.6653 C   0  0  0  0  0  0  0  0  0  0  0  0
   -2.8254    2.4352    2.4150 H   0  0  0  0  0  0  0  0  0  0  0  0
   -3.4836    0.7082    0.2278 H   0  0  0  0  0  0  0  0  0  0  0  0
   -1.6866    3.1298   -0.3871 H   0  0  0  0  0  0  0  0  0  0  0  0
   -1.9704    1.7677   -1.4777 H   0  0  0  0  0  0  0  0  0  0  0  0
   -3.3030    2.8584   -1.0531 H   0  0  0  0  0  0  0  0  0  0  0  0
   -1.1107   -0.2839    0.3303 N   0  0  0  0  0  0  0  0  0  0  0  0
    0.0490   -1.0750    0.6539 C   0  0  2  0  0  0  0  0  0  0  0  0
    0.0144   -1.3510    2.1543 C   0  0  0  0  0  0  0  0  0  0  0  0
    0.9744   -1.8032    2.7750 O   0  0  0  0  0  0  0  0  0  0  0  0
    1.3639   -0.4023    0.2337 C   0  0  2  0  0  0  0  0  0  0  0  0
    1.5297    0.8455    0.9053 O   0  0  0  0  0  0  0  0  0  0  0  0
    1.4217   -0.1355   -1.2656 C   0  0  0  0  0  0  0  0  0  0  0  0
   -1.6733   -0.5660   -0.4691 H   0  0  0  0  0  0  0  0  0  0  0  0
   -0.0686   -2.0288    0.1252 H   0  0  0  0  0  0  0  0  0  0  0  0
    2.2177   -1.0337    0.5058 H   0  0  0  0  0  0  0  0  0  0  0  0
    2.3946    1.1899    0.6353 H   0  0  0  0  0  0  0  0  0  0  0  0
    0.5870    0.4941   -1.5924 H   0  0  0  0  0  0  0  0  0  0  0  0
    1.4054   -1.0688   -1.8365 H   0  0  0  0  0  0  0  0  0  0  0  0
    2.3379    0.4097   -1.5178 H   0  0  0  0  0  0  0  0  0  0  0  0
   -1.2289   -1.0796    2.7077 N   0  0  0  0  0  0  0  0  0  0  0  0
   -1.5204   -1.2924    4.1060 C   0  0  2  0  0  0  0  0  0  0  0  0
   -0.9315   -0.1280    4.8915 C   0  0  0  0  0  0  0  0  0  0  0  0
   -0.0131    0.5706    4.4680 O   0  0  0  0  0  0  0  0  0  0  0  0
   -0.9560   -2.6177    4.5934 C   0  0  0  0  0  0  0  0  0  0  0  0
   -1.9626   -0.7173    2.1058 H   0  0  0  0  0  0  0  0  0  0  0  0
   -2.6112   -1.2867    4.2061 H   0  0  0  0  0  0  0  0  0  0  0  0
    0.1360   -2.6421    4.5009 H   0  0  0  0  0  0  0  0  0  0  0  0
   -1.2023   -2.7906    5.6463 H   0  0  0  0  0  0  0  0  0  0  0  0
   -1.3579   -3.4515    4.0077 H   0  0  0  0  0  0  0  0  0  0  0  0
   -1.5232    0.0121    6.1391 N   0  0  0  0  0  0  0  0  0  0  0  0
   -1.1296    1.0366    7.0779 C   0  0  0  0  0  0  0  0  0  0  0  0
   -2.2908   -0.5999    6.3997 H   0  0  0  0  0  0  0  0  0  0  0  0
   -0.3570    0.6392    7.7526 H   0  0  0  0  0  0  0  0  0  0  0  0
   -0.7278    1.9015    6.5296 H   0  0  0  0  0  0  0  0  0  0  0  0
   -2.0044    1.3499    7.6666 H   0  0  0  0  0  0  0  0  0  0  0  0
  1  3  1  0  0  0  0
  1  7  1  0  0  0  0
  1  2  2  0  0  0  0
 32 33  1  0  0  0  0
 33 41  1  0  0  0  0
 33 34  2  0  0  0  0
  8  9  1  0  0  0  0
  9 17  1  0  0  0  0
  9 10  2  0  0  0  0
 18 19  1  0  0  0  0
 19 31  1  0  0  0  0
 19 20  2  0  0  0  0
 32 35  1  0  0  0  0
  8 11  1  0  0  0  0
 21 23  1  0  0  0  0
 41 42  1  0  0  0  0
 31 32  1  0  0  0  0
  7  8  1  0  0  0  0
 18 21  1  0  0  0  0
 17 18  1  0  0  0  0
 21 22  1  0  0  0  0
  3  4  1  0  0  0  0
  3  5  1  0  0  0  0
  3  6  1  0  0  0  0
 35 38  1  0  0  0  0
 35 39  1  0  0  0  0
 35 40  1  0  0  0  0
 11 14  1  0  0  0  0
 11 15  1  0  0  0  0
 11 16  1  0  0  0  0
 23 28  1  0  0  0  0
 23 29  1  0  0  0  0
 23 30  1  0  0  0  0
 42 44  1  0  0  0  0
 42 45  1  0  0  0  0
 42 46  1  0  0  0  0
 32 37  1  0  0  0  0
  8 13  1  0  0  0  0
 18 25  1  0  0  0  0
 21 26  1  0  0  0  0
 41 43  1  0  0  0  0
  7 12  1  0  0  0  0
 31 36  1  0  0  0  0
 17 24  1  0  0  0  0
 22 27  1  0  0  0  0
M  END
$$$$

  -OEChem-05262214473D

 46 45  0     1  0  0  0  0  0999 V2000
   -4.6700    2.7214    1.5150 C   0  0  0  0  0  0  0  0  0  0  0  0
   -5.4532    2.5715    0.5845 O   0  0  0  0  0  0  0  0  0  0  0  0
   -5.0996    3.4865    2.7226 C   0  0  0  0  0  0  0  0  0  0  0  0
   -4.8796    4.5629    2.6387 H   0  0  0  0  0  0  0  0  0  0  0  0
   -6.1861    3.4241    2.8954 H   0  0  0  0  0  0  0  0  0  0  0  0
   -4.6369    3.1693    3.6708 H   0  0  0  0  0  0  0  0  0  0  0  0
   -3.3731    2.2391    1.5790 N   0  0  0  0  0  0  0  0  0  0  0  0
   -2.7599    1.4751    0.5247 C   0  0  2  0  0  0  0  0  0  0  0  0
   -1.5143    0.8067    1.0915 C   0  0  0  0  0  0  0  0  0  0  0  0
   -0.9247    1.2213    2.0872 O   0  0  0  0  0  0  0  0  0  0  0  0
   -2.4106    2.3553   -0.6653 C   0  0  0  0  0  0  0  0  0  0  0  0
   -2.8254    2.4352    2.4150 H   0  0  0  0  0  0  0  0  0  0  0  0
   -3.4836    0.7082    0.2278 H   0  0  0  0  0  0  0  0  0  0  0  0
   -1.6866    3.1298   -0.3871 H   0  0  0  0  0  0  0  0  0  0  0  0
   -1.9704    1.7677   -1.4777 H   0  0  0  0  0  0  0  0  0  0  0  0
   -3.3030    2.8584   -1.0531 H   0  0  0  0  0  0  0  0  0  0  0  0
   -1.1107   -0.2839    0.3303 N   0  0  0  0  0  0  0  0  0  0  0  0
    0.0490   -1.0750    0.6539 C   0  0  2  0  0  0  0  0  0  0  0  0
    0.0144   -1.3510    2.1543 C   0  0  0  0  0  0  0  0  0  0  0  0
    1.0271   -1.5439    2.8239 O   0  0  0  0  0  0  0  0  0  0  0  0
    1.3639   -0.4023    0.2337 C   0  0  2  0  0  0  0  0  0  0  0  0
    1.5297    0.8455    0.9053 O   0  0  0  0  0  0  0  0  0  0  0  0
    1.4217   -0.1355   -1.2656 C   0  0  0  0  0  0  0  0  0  0  0  0
   -1.6733   -0.5660   -0.4691 H   0  0  0  0  0  0  0  0  0  0  0  0
   -0.0686   -2.0288    0.1252 H   0  0  0  0  0  0  0  0  0  0  0  0
    2.2177   -1.0337    0.5058 H   0  0  0  0  0  0  0  0  0  0  0  0
    2.3946    1.1899    0.6353 H   0  0  0  0  0  0  0  0  0  0  0  0
    0.5870    0.4941   -1.5924 H   0  0  0  0  0  0  0  0  0  0  0  0
    1.4054   -1.0688   -1.8365 H   0  0  0  0  0  0  0  0  0  0  0  0
    2.3379    0.4097   -1.5178 H   0  0  0  0  0  0  0  0  0  0  0  0
   -1.2819   -1.4053    2.6466 N   0  0  0  0  0  0  0  0  0  0  0  0
   -1.5759   -1.6854    4.0324 C   0  0  2  0  0  0  0  0  0  0  0  0
   -1.3406   -0.4097    4.8302 C   0  0  0  0  0  0  0  0  0  0  0  0
   -0.6110    0.4999    4.4412 O   0  0  0  0  0  0  0  0  0  0  0  0
   -0.7168   -2.8234    4.5611 C   0  0  0  0  0  0  0  0  0  0  0  0
   -2.0541   -1.2415    2.0072 H   0  0  0  0  0  0  0  0  0  0  0  0
   -2.6358   -1.9577    4.0821 H   0  0  0  0  0  0  0  0  0  0  0  0
    0.3486   -2.5690    4.5192 H   0  0  0  0  0  0  0  0  0  0  0  0
   -0.9609   -3.0536    5.6035 H   0  0  0  0  0  0  0  0  0  0  0  0
   -0.8651   -3.7320    3.9675 H   0  0  0  0  0  0  0  0  0  0  0  0
   -2.0071   -0.4250    6.0475 N   0  0  0  0  0  0  0  0  0  0  0  0
   -1.9322    0.6658    6.9912 C   0  0  0  0  0  0  0  0  0  0  0  0
   -2.6053   -1.2124    6.2797 H   0  0  0  0  0  0  0  0  0  0  0  0
   -1.1169    0.4780    7.7054 H   0  0  0  0  0  0  0  0  0  0  0  0
   -1.7379    1.6045    6.4517 H   0  0  0  0  0  0  0  0  0  0  0  0
   -2.8849    0.7459    7.5352 H   0  0  0  0  0  0  0  0  0  0  0  0
  1  3  1  0  0  0  0
  1  7  1  0  0  0  0
  1  2  2  0  0  0  0
 32 33  1  0  0  0  0
 33 41  1  0  0  0  0
 33 34  2  0  0  0  0
  8  9  1  0  0  0  0
  9 17  1  0  0  0  0
  9 10  2  0  0  0  0
 18 19  1  0  0  0  0
 19 31  1  0  0  0  0
 19 20  2  0  0  0  0
 32 35  1  0  0  0  0
  8 11  1  0  0  0  0
 21 23  1  0  0  0  0
 41 42  1  0  0  0  0
 31 32  1  0  0  0  0
  7  8  1  0  0  0  0
 18 21  1  0  0  0  0
 17 18  1  0  0  0  0
 21 22  1  0  0  0  0
  3  4  1  0  0  0  0
  3  5  1  0  0  0  0
  3  6  1  0  0  0  0
 35 38  1  0  0  0  0
 35 39  1  0  0  0  0
 35 40  1  0  0  0  0
 11 14  1  0  0  0  0
 11 15  1  0  0  0  0
 11 16  1  0  0  0  0
 23 28  1  0  0  0  0
 23 29  1  0  0  0  0
 23 30  1  0  0  0  0
 42 44  1  0  0  0  0
 42 45  1  0  0  0  0
 42 46  1  0  0  0  0
 32 37  1  0  0  0  0
  8 13  1  0  0  0  0
 18 25  1  0  0  0  0
 21 26  1  0  0  0  0
 41 43  1  0  0  0  0
  7 12  1  0  0  0  0
 31 36  1  0  0  0  0
 17 24  1  0  0  0  0
 22 27  1  0  0  0  0
M  END
$$$$

  -OEChem-05262214473D

 46 45  0     1  0  0  0  0  0999 V2000
   -4.6700    2.7214    1.5150 C   0  0  0  0  0  0  0  0  0  0  0  0
   -5.4532    2.5715    0.5845 O   0  0  0  0  0  0  0  0  0  0  0  0
   -5.0996    3.4865    2.7226 C   0  0  0  0  0  0  0  0  0  0  0  0
   -4.8796    4.5629    2.6387 H   0  0  0  0  0  0  0  0  0  0  0  0
   -6.1861    3.4241    2.8954 H   0  0  0  0  0  0  0  0  0  0  0  0
   -4.6369    3.1693    3.6708 H   0  0  0  0  0  0  0  0  0  0  0  0
   -3.3731    2.2391    1.5790 N   0  0  0  0  0  0  0  0  0  0  0  0
   -2.7599    1.4751    0.5247 C   0  0  2  0  0  0  0  0  0  0  0  0
   -1.5143    0.8067    1.0915 C   0  0  0  0  0  0  0  0  0  0  0  0
   -0.9247    1.2213    2.0872 O   0  0  0  0  0  0  0  0  0  0  0  0
   -2.4106    2.3553   -0.6653 C   0  0  0  0  0  0  0  0  0  0  0  0
   -2.8254    2.4352    2.4150 H   0  0  0  0  0  0  0  0  0  0  0  0
   -3.4836    0.7082    0.2278 H   0  0  0  0  0  0  0  0  0  0  0  0
   -1.6866    3.1298   -0.3871 H   0  0  0  0  0  0  0  0  0  0  0  0
   -1.9704    1.7677   -1.4777 H   0  0  0  0  0  0  0  0  0  0  0  0
   -3.3030    2.8584   -1.0531 H   0  0  0  0  0  0  0  0  0  0  0  0
   -1.1107   -0.2839    0.3303 N   0  0  0  0  0  0  0  0  0  0  0  0
    0.0490   -1.0750    0.6539 C   0  0  2  0  0  0  0  0  0  0  0  0
    0.0144   -1.3510    2.1543 C   0  0  0  0  0  0  0  0  0  0  0  0
    1.0099   -1.2798    2.8721 O   0  0  0  0  0  0  0  0  0  0  0  0
    1.3639   -0.4023    0.2337 C   0  0  2  0  0  0  0  0  0  0  0  0
    1.5297    0.8455    0.9053 O   0  0  0  0  0  0  0  0  0  0  0  0
    1.4217   -0.1355   -1.2656 C   0  0  0  0  0  0  0  0  0  0  0  0
   -1.6733   -0.5660   -0.4691 H   0  0  0  0  0  0  0  0  0  0  0  0
   -0.0686   -2.0288    0.1252 H   0  0  0  0  0  0  0  0  0  0  0  0
    2.2177   -1.0337    0.5058 H   0  0  0  0  0  0  0  0  0  0  0  0
    2.3946    1.1899    0.6353 H   0  0  0  0  0  0  0  0  0  0  0  0
    0.5870    0.4941   -1.5924 H   0  0  0  0  0  0  0  0  0  0  0  0
    1.4054   -1.0688   -1.8365 H   0  0  0  0  0  0  0  0  0  0  0  0
    2.3379    0.4097   -1.5178 H   0  0  0  0  0  0  0  0  0  0  0  0
   -1.2474   -1.7336    2.5870 N   0  0  0  0  0  0  0  0  0  0  0  0
   -1.5260   -2.0797    3.9610 C   0  0  2  0  0  0  0  0  0  0  0  0
   -1.6612   -0.7862    4.7536 C   0  0  0  0  0  0  0  0  0  0  0  0
   -1.1692    0.2792    4.3877 O   0  0  0  0  0  0  0  0  0  0  0  0
   -0.4319   -2.9615    4.5423 C   0  0  0  0  0  0  0  0  0  0  0  0
   -2.0045   -1.7718    1.9108 H   0  0  0  0  0  0  0  0  0  0  0  0
   -2.4829   -2.6129    3.9651 H   0  0  0  0  0  0  0  0  0  0  0  0
    0.5345   -2.4442    4.5465 H   0  0  0  0  0  0  0  0  0  0  0  0
   -0.6587   -3.2464    5.5750 H   0  0  0  0  0  0  0  0  0  0  0  0
   -0.3158   -3.8778    3.9534 H   0  0  0  0  0  0  0  0  0  0  0  0
   -2.3590   -0.9710    5.9390 N   0  0  0  0  0  0  0  0  0  0  0  0
   -2.6089    0.1028    6.8720 C   0  0  0  0  0  0  0  0  0  0  0  0
   -2.7476   -1.8848    6.1528 H   0  0  0  0  0  0  0  0  0  0  0  0
   -1.8077    0.1287    7.6252 H   0  0  0  0  0  0  0  0  0  0  0  0
   -2.6344    1.0601    6.3308 H   0  0  0  0  0  0  0  0  0  0  0  0
   -3.5754   -0.0625    7.3706 H   0  0  0  0  0  0  0  0  0  0  0  0
  1  3  1  0  0  0  0
  1  7  1  0  0  0  0
  1  2  2  0  0  0  0
 32 33  1  0  0  0  0
 33 41  1  0  0  0  0
 33 34  2  0  0  0  0
  8  9  1  0  0  0  0
  9 17  1  0  0  0  0
  9 10  2  0  0  0  0
 18 19  1  0  0  0  0
 19 31  1  0  0  0  0
 19 20  2  0  0  0  0
 32 35  1  0  0  0  0
  8 11  1  0  0  0  0
 21 23  1  0  0  0  0
 41 42  1  0  0  0  0
 31 32  1  0  0  0  0
  7  8  1  0  0  0  0
 18 21  1  0  0  0  0
 17 18  1  0  0  0  0
 21 22  1  0  0  0  0
  3  4  1  0  0  0  0
  3  5  1  0  0  0  0
  3  6  1  0  0  0  0
 35 38  1  0  0  0  0
 35 39  1  0  0  0  0
 35 40  1  0  0  0  0
 11 14  1  0  0  0  0
 11 15  1  0  0  0  0
 11 16  1  0  0  0  0
 23 28  1  0  0  0  0
 23 29  1  0  0  0  0
 23 30  1  0  0  0  0
 42 44  1  0  0  0  0
 42 45  1  0  0  0  0
 42 46  1  0  0  0  0
 32 37  1  0  0  0  0
  8 13  1  0  0  0  0
 18 25  1  0  0  0  0
 21 26  1  0  0  0  0
 41 43  1  0  0  0  0
  7 12  1  0  0  0  0
 31 36  1  0  0  0  0
 17 24  1  0  0  0  0
 22 27  1  0  0  0  0
M  END
$$$$

  -OEChem-05262214473D

 46 45  0     1  0  0  0  0  0999 V2000
   -4.6700    2.7214    1.5150 C   0  0  0  0  0  0  0  0  0  0  0  0
   -5.4532    2.5715    0.5845 O   0  0  0  0  0  0  0  0  0  0  0  0
   -5.0996    3.4865    2.7226 C   0  0  0  0  0  0  0  0  0  0  0  0
   -4.8796    4.5629    2.6387 H   0  0  0  0  0  0  0  0  0  0  0  0
   -6.1861    3.4241    2.8954 H   0  0  0  0  0  0  0  0  0  0  0  0
   -4.6369    3.1693    3.6708 H   0  0  0  0  0  0  0  0  0  0  0  0
   -3.3731    2.2391    1.5790 N   0  0  0  0  0  0  0  0  0  0  0  0
   -2.7599    1.4751    0.5247 C   0  0  2  0  0  0  0  0  0  0  0  0
   -1.5143    0.8067    1.0915 C   0  0  0  0  0  0  0  0  0  0  0  0
   -0.9247    1.2213    2.0872 O   0  0  0  0  0  0  0  0  0  0  0  0
   -2.4106    2.3553   -0.6653 C   0  0  0  0  0  0  0  0  0  0  0  0
   -2.8254    2.4352    2.4150 H   0  0  0  0  0  0  0  0  0  0  0  0
   -3.4836    0.7082    0.2278 H   0  0  0  0  0  0  0  0  0  0  0  0
   -1.6866    3.1298   -0.3871 H   0  0  0  0  0  0  0  0  0  0  0  0
   -1.9704    1.7677   -1.4777 H   0  0  0  0  0  0  0  0  0  0  0  0
   -3.3030    2.8584   -1.0531 H   0  0  0  0  0  0  0  0  0  0  0  0
   -1.1107   -0.2839    0.3303 N   0  0  0  0  0  0  0  0  0  0  0  0
    0.0490   -1.0750    0.6539 C   0  0  2  0  0  0  0  0  0  0  0  0
    0.0144   -1.3510    2.1543 C   0  0  0  0  0  0  0  0  0  0  0  0
    0.9237   -1.0288    2.9162 O   0  0  0  0  0  0  0  0  0  0  0  0
    1.3639   -0.4023    0.2337 C   0  0  2  0  0  0  0  0  0  0  0  0
    1.5297    0.8455    0.9053 O   0  0  0  0  0  0  0  0  0  0  0  0
    1.4217   -0.1355   -1.2656 C   0  0  0  0  0  0  0  0  0  0  0  0
   -1.6733   -0.5660   -0.4691 H   0  0  0  0  0  0  0  0  0  0  0  0
   -0.0686   -2.0288    0.1252 H   0  0  0  0  0  0  0  0  0  0  0  0
    2.2177   -1.0337    0.5058 H   0  0  0  0  0  0  0  0  0  0  0  0
    2.3946    1.1899    0.6353 H   0  0  0  0  0  0  0  0  0  0  0  0
    0.5870    0.4941   -1.5924 H   0  0  0  0  0  0  0  0  0  0  0  0
    1.4054   -1.0688   -1.8365 H   0  0  0  0  0  0  0  0  0  0  0  0
    2.3379    0.4097   -1.5178 H   0  0  0  0  0  0  0  0  0  0  0  0
   -1.1277   -2.0424    2.5329 N   0  0  0  0  0  0  0  0  0  0  0  0
   -1.3742   -2.4482    3.8967 C   0  0  2  0  0  0  0  0  0  0  0  0
   -1.8714   -1.2319    4.6667 C   0  0  0  0  0  0  0  0  0  0  0  0
   -1.6498   -0.0763    4.3112 O   0  0  0  0  0  0  0  0  0  0  0  0
   -0.1207   -3.0225    4.5383 C   0  0  0  0  0  0  0  0  0  0  0  0
   -1.8172   -2.2719    1.8231 H   0  0  0  0  0  0  0  0  0  0  0  0
   -2.1631   -3.2075    3.8631 H   0  0  0  0  0  0  0  0  0  0  0  0
    0.6810   -2.2762    4.5808 H   0  0  0  0  0  0  0  0  0  0  0  0
   -0.3164   -3.3560    5.5627 H   0  0  0  0  0  0  0  0  0  0  0  0
    0.2525   -3.8789    3.9663 H   0  0  0  0  0  0  0  0  0  0  0  0
   -2.5548   -1.5885    5.8208 N   0  0  0  0  0  0  0  0  0  0  0  0
   -3.1138   -0.6140    6.7285 C   0  0  0  0  0  0  0  0  0  0  0  0
   -2.7080   -2.5712    6.0274 H   0  0  0  0  0  0  0  0  0  0  0  0
   -2.3823   -0.3850    7.5174 H   0  0  0  0  0  0  0  0  0  0  0  0
   -3.3561    0.3054    6.1754 H   0  0  0  0  0  0  0  0  0  0  0  0
   -4.0291   -1.0199    7.1840 H   0  0  0  0  0  0  0  0  0  0  0  0
  1  3  1  0  0  0  0
  1  7  1  0  0  0  0
  1  2  2  0  0  0  0
 32 33  1  0  0  0  0
 33 41  1  0  0  0  0
 33 34  2  0  0  0  0
  8  9  1  0  0  0  0
  9 17  1  0  0  0  0
  9 10  2  0  0  0  0
 18 19  1  0  0  0  0
 19 31  1  0  0  0  0
 19 20  2  0  0  0  0
 32 35  1  0  0  0  0
  8 11  1  0  0  0  0
 21 23  1  0  0  0  0
 41 42  1  0  0  0  0
 31 32  1  0  0  0  0
  7  8  1  0  0  0  0
 18 21  1  0  0  0  0
 17 18  1  0  0  0  0
 21 22  1  0  0  0  0
  3  4  1  0  0  0  0
  3  5  1  0  0  0  0
  3  6  1  0  0  0  0
 35 38  1  0  0  0  0
 35 39  1  0  0  0  0
 35 40  1  0  0  0  0
 11 14  1  0  0  0  0
 11 15  1  0  0  0  0
 11 16  1  0  0  0  0
 23 28  1  0  0  0  0
 23 29  1  0  0  0  0
 23 30  1  0  0  0  0
 42 44  1  0  0  0  0
 42 45  1  0  0  0  0
 42 46  1  0  0  0  0
 32 37  1  0  0  0  0
  8 13  1  0  0  0  0
 18 25  1  0  0  0  0
 21 26  1  0  0  0  0
 41 43  1  0  0  0  0
  7 12  1  0  0  0  0
 31 36  1  0  0  0  0
 17 24  1  0  0  0  0
 22 27  1  0  0  0  0
M  END
$$$$

  -OEChem-05262214473D

 46 45  0     1  0  0  0  0  0999 V2000
   -4.6700    2.7214    1.5150 C   0  0  0  0  0  0  0  0  0  0  0  0
   -5.4532    2.5715    0.5845 O   0  0  0  0  0  0  0  0  0  0  0  0
   -5.0996    3.4865    2.7226 C   0  0  0  0  0  0  0  0  0  0  0  0
   -4.8796    4.5629    2.6387 H   0  0  0  0  0  0  0  0  0  0  0  0
   -6.1861    3.4241    2.8954 H   0  0  0  0  0  0  0  0  0  0  0  0
   -4.6369    3.1693    3.6708 H   0  0  0  0  0  0  0  0  0  0  0  0
   -3.3731    2.2391    1.5790 N   0  0  0  0  0  0  0  0  0  0  0  0
   -2.7599    1.4751    0.5247 C   0  0  2  0  0  0  0  0  0  0  0  0
   -1.5143    0.8067    1.0915 C   0  0  0  0  0  0  0  0  0  0  0  0
   -0.9247    1.2213    2.0872 O   0  0  0  0  0  0  0  0  0  0  0  0
   -2.4106    2.3553   -0.6653 C   0  0  0  0  0  0  0  0  0  0  0  0
   -2.8254    2.4352    2.4150 H   0  0  0  0  0  0  0  0  0  0  0  0
   -3.4836    0.7082    0.2278 H   0  0  0  0  0  0  0  0  0  0  0  0
   -1.6866    3.1298   -0.3871 H   0  0  0  0  0  0  0  0  0  0  0  0
   -1.9704    1.7677   -1.4777 H   0  0  0  0  0  0  0  0  0  0  0  0
   -3.3030    2.8584   -1.0531 H   0  0  0  0  0  0  0  0  0  0  0  0
   -1.1107   -0.2839    0.3303 N   0  0  0  0  0  0  0  0  0  0  0  0
    0.0490   -1.0750    0.6539 C   0  0  2  0  0  0  0  0  0  0  0  0
    0.0144   -1.3510    2.1543 C   0  0  0  0  0  0  0  0  0  0  0  0
    0.7745   -0.8081    2.9534 O   0  0  0  0  0  0  0  0  0  0  0  0
    1.3639   -0.4023    0.2337 C   0  0  2  0  0  0  0  0  0  0  0  0
    1.5297    0.8455    0.9053 O   0  0  0  0  0  0  0  0  0  0  0  0
    1.4217   -0.1355   -1.2656 C   0  0  0  0  0  0  0  0  0  0  0  0
   -1.6733   -0.5660   -0.4691 H   0  0  0  0  0  0  0  0  0  0  0  0
   -0.0686   -2.0288    0.1252 H   0  0  0  0  0  0  0  0  0  0  0  0
    2.2177   -1.0337    0.5058 H   0  0  0  0  0  0  0  0  0  0  0  0
    2.3946    1.1899    0.6353 H   0  0  0  0  0  0  0  0  0  0  0  0
    0.5870    0.4941   -1.5924 H   0  0  0  0  0  0  0  0  0  0  0  0
    1.4054   -1.0688   -1.8365 H   0  0  0  0  0  0  0  0  0  0  0  0
    2.3379    0.4097   -1.5178 H   0  0  0  0  0  0  0  0  0  0  0  0
   -0.9310   -2.3105    2.4882 N   0  0  0  0  0  0  0  0  0  0  0  0
   -1.1307   -2.7659    3.8439 C   0  0  2  0  0  0  0  0  0  0  0  0
   -1.9570   -1.7165    4.5756 C   0  0  0  0  0  0  0  0  0  0  0  0
   -2.0200   -0.5424    4.2169 O   0  0  0  0  0  0  0  0  0  0  0  0
    0.1957   -3.0022    4.5493 C   0  0  0  0  0  0  0  0  0  0  0  0
   -1.5048   -2.7079    1.7502 H   0  0  0  0  0  0  0  0  0  0  0  0
   -1.6981   -3.7010    3.7830 H   0  0  0  0  0  0  0  0  0  0  0  0
    0.7782   -2.0764    4.6198 H   0  0  0  0  0  0  0  0  0  0  0  0
    0.0427   -3.3747    5.5676 H   0  0  0  0  0  0  0  0  0  0  0  0
    0.8012   -3.7353    4.0054 H   0  0  0  0  0  0  0  0  0  0  0  0
   -2.5814   -2.2355    5.7012 N   0  0  0  0  0  0  0  0  0  0  0  0
   -3.4123   -1.4356    6.5705 C   0  0  0  0  0  0  0  0  0  0  0  0
   -2.4892   -3.2248    5.9122 H   0  0  0  0  0  0  0  0  0  0  0  0
   -2.8015   -1.0281    7.3895 H   0  0  0  0  0  0  0  0  0  0  0  0
   -3.8540   -0.6081    5.9958 H   0  0  0  0  0  0  0  0  0  0  0  0
   -4.2149   -2.0613    6.9881 H   0  0  0  0  0  0  0  0  0  0  0  0
  1  3  1  0  0  0  0
  1  7  1  0  0  0  0
  1  2  2  0  0  0  0
 32 33  1  0  0  0  0
 33 41  1  0  0  0  0
 33 34  2  0  0  0  0
  8  9  1  0  0  0  0
  9 17  1  0  0  0  0
  9 10  2  0  0  0  0
 18 19  1  0  0  0  0
 19 31  1  0  0  0  0
 19 20  2  0  0  0  0
 32 35  1  0  0  0  0
  8 11  1  0  0  0  0
 21 23  1  0  0  0  0
 41 42  1  0  0  0  0
 31 32  1  0  0  0  0
  7  8  1  0  0  0  0
 18 21  1  0  0  0  0
 17 18  1  0  0  0  0
 21 22  1  0  0  0  0
  3  4  1  0  0  0  0
  3  5  1  0  0  0  0
  3  6  1  0  0  0  0
 35 38  1  0  0  0  0
 35 39  1  0  0  0  0
 35 40  1  0  0  0  0
 11 14  1  0  0  0  0
 11 15  1  0  0  0  0
 11 16  1  0  0  0  0
 23 28  1  0  0  0  0
 23 29  1  0  0  0  0
 23 30  1  0  0  0  0
 42 44  1  0  0  0  0
 42 45  1  0  0  0  0
 42 46  1  0  0  0  0
 32 37  1  0  0  0  0
  8 13  1  0  0  0  0
 18 25  1  0  0  0  0
 21 26  1  0  0  0  0
 41 43  1  0  0  0  0
  7 12  1  0  0  0  0
 31 36  1  0  0  0  0
 17 24  1  0  0  0  0
 22 27  1  0  0  0  0
M  END
$$$$

  -OEChem-05262214473D

 46 45  0     1  0  0  0  0  0999 V2000
   -4.6700    2.7214    1.5150 C   0  0  0  0  0  0  0  0  0  0  0  0
   -5.4532    2.5715    0.5845 O   0  0  0  0  0  0  0  0  0  0  0  0
   -5.0996    3.4865    2.7226 C   0  0  0  0  0  0  0  0  0  0  0  0
   -4.8796    4.5629    2.6387 H   0  0  0  0  0  0  0  0  0  0  0  0
   -6.1861    3.4241    2.8954 H   0  0  0  0  0  0  0  0  0  0  0  0
   -4.6369    3.1693    3.6708 H   0  0  0  0  0  0  0  0  0  0  0  0
   -3.3731    2.2391    1.5790 N   0  0  0  0  0  0  0  0  0  0  0  0
   -2.7599    1.4751    0.5247 C   0  0  2  0  0  0  0  0  0  0  0  0
   -1.5143    0.8067    1.0915 C   0  0  0  0  0  0  0  0  0  0  0  0
   -0.9247    1.2213    2.0872 O   0  0  0  0  0  0  0  0  0  0  0  0
   -2.4106    2.3553   -0.6653 C   0  0  0  0  0  0  0  0  0  0  0  0
   -2.8254    2.4352    2.4150 H   0  0  0  0  0  0  0  0  0  0  0  0
   -3.4836    0.7082    0.2278 H   0  0  0  0  0  0  0  0  0  0  0  0
   -1.6866    3.1298   -0.3871 H   0  0  0  0  0  0  0  0  0  0  0  0
   -1.9704    1.7677   -1.4777 H   0  0  0  0  0  0  0  0  0  0  0  0
   -3.3030    2.8584   -1.0531 H   0  0  0  0  0  0  0  0  0  0  0  0
   -1.1107   -0.2839    0.3303 N   0  0  0  0  0  0  0  0  0  0  0  0
    0.0490   -1.0750    0.6539 C   0  0  2  0  0  0  0  0  0  0  0  0
    0.0144   -1.3510    2.1543 C   0  0  0  0  0  0  0  0  0  0  0  0
    0.5725   -0.6325    2.9810 O   0  0  0  0  0  0  0  0  0  0  0  0
    1.3639   -0.4023    0.2337 C   0  0  2  0  0  0  0  0  0  0  0  0
    1.5297    0.8455    0.9053 O   0  0  0  0  0  0  0  0  0  0  0  0
    1.4217   -0.1355   -1.2656 C   0  0  0  0  0  0  0  0  0  0  0  0
   -1.6733   -0.5660   -0.4691 H   0  0  0  0  0  0  0  0  0  0  0  0
   -0.0686   -2.0288    0.1252 H   0  0  0  0  0  0  0  0  0  0  0  0
    2.2177   -1.0337    0.5058 H   0  0  0  0  0  0  0  0  0  0  0  0
    2.3946    1.1899    0.6353 H   0  0  0  0  0  0  0  0  0  0  0  0
    0.5870    0.4941   -1.5924 H   0  0  0  0  0  0  0  0  0  0  0  0
    1.4054   -1.0688   -1.8365 H   0  0  0  0  0  0  0  0  0  0  0  0
    2.3379    0.4097   -1.5178 H   0  0  0  0  0  0  0  0  0  0  0  0
   -0.6706   -2.5196    2.4557 N   0  0  0  0  0  0  0  0  0  0  0  0
   -0.8122   -3.0111    3.8061 C   0  0  2  0  0  0  0  0  0  0  0  0
   -1.9121   -2.2068    4.4865 C   0  0  0  0  0  0  0  0  0  0  0  0
   -2.2545   -1.0874    4.1112 O   0  0  0  0  0  0  0  0  0  0  0  0
    0.4955   -2.9021    4.5746 C   0  0  0  0  0  0  0  0  0  0  0  0
   -1.0887   -3.0499    1.6969 H   0  0  0  0  0  0  0  0  0  0  0  0
   -1.1195   -4.0599    3.7304 H   0  0  0  0  0  0  0  0  0  0  0  0
    0.8194   -1.8585    4.6608 H   0  0  0  0  0  0  0  0  0  0  0  0
    0.3940   -3.3015    5.5891 H   0  0  0  0  0  0  0  0  0  0  0  0
    1.2927   -3.4567    4.0680 H   0  0  0  0  0  0  0  0  0  0  0  0
   -2.4367   -2.8680    5.5882 N   0  0  0  0  0  0  0  0  0  0  0  0
   -3.4842   -2.3062    6.4087 C   0  0  0  0  0  0  0  0  0  0  0  0
   -2.1061   -3.8012    5.8150 H   0  0  0  0  0  0  0  0  0  0  0  0
   -3.0368   -1.7567    7.2500 H   0  0  0  0  0  0  0  0  0  0  0  0
   -4.0939   -1.6183    5.8045 H   0  0  0  0  0  0  0  0  0  0  0  0
   -4.1201   -3.1157    6.7963 H   0  0  0  0  0  0  0  0  0  0  0  0
  1  3  1  0  0  0  0
  1  7  1  0  0  0  0
  1  2  2  0  0  0  0
 32 33  1  0  0  0  0
 33 41  1  0  0  0  0
 33 34  2  0  0  0  0
  8  9  1  0  0  0  0
  9 17  1  0  0  0  0
  9 10  2  0  0  0  0
 18 19  1  0  0  0  0
 19 31  1  0  0  0  0
 19 20  2  0  0  0  0
 32 35  1  0  0  0  0
  8 11  1  0  0  0  0
 21 23  1  0  0  0  0
 41 42  1  0  0  0  0
 31 32  1  0  0  0  0
  7  8  1  0  0  0  0
 18 21  1  0  0  0  0
 17 18  1  0  0  0  0
 21 22  1  0  0  0  0
  3  4  1  0  0  0  0
  3  5  1  0  0  0  0
  3  6  1  0  0  0  0
 35 38  1  0  0  0  0
 35 39  1  0  0  0  0
 35 40  1  0  0  0  0
 11 14  1  0  0  0  0
 11 15  1  0  0  0  0
 11 16  1  0  0  0  0
 23 28  1  0  0  0  0
 23 29  1  0  0  0  0
 23 30  1  0  0  0  0
 42 44  1  0  0  0  0
 42 45  1  0  0  0  0
 42 46  1  0  0  0  0
 32 37  1  0  0  0  0
  8 13  1  0  0  0  0
 18 25  1  0  0  0  0
 21 26  1  0  0  0  0
 41 43  1  0  0  0  0
  7 12  1  0  0  0  0
 31 36  1  0  0  0  0
 17 24  1  0  0  0  0
 22 27  1  0  0  0  0
M  END
$$$$

  -OEChem-05262214473D

 46 45  0     1  0  0  0  0  0999 V2000
   -4.6700    2.7214    1.5150 C   0  0  0  0  0  0  0  0  0  0  0  0
   -5.4532    2.5715    0.5845 O   0  0  0  0  0  0  0  0  0  0  0  0
   -5.0996    3.4865    2.7226 C   0  0  0  0  0  0  0  0  0  0  0  0
   -4.8796    4.5629    2.6387 H   0  0  0  0  0  0  0  0  0  0  0  0
   -6.1861    3.4241    2.8954 H   0  0  0  0  0  0  0  0  0  0  0  0
   -4.6369    3.1693    3.6708 H   0  0  0  0  0  0  0  0  0  0  0  0
   -3.3731    2.2391    1.5790 N   0  0  0  0  0  0  0  0  0  0  0  0
   -2.7599    1.4751    0.5247 C   0  0  2  0  0  0  0  0  0  0  0  0
   -1.5143    0.8067    1.0915 C   0  0  0  0  0  0  0  0  0  0  0  0
   -0.9247    1.2213    2.0872 O   0  0  0  0  0  0  0  0  0  0  0  0
   -2.4106    2.3553   -0.6653 C   0  0  0  0  0  0  0  0  0  0  0  0
   -2.8254    2.4352    2.4150 H   0  0  0  0  0  0  0  0  0  0  0  0
   -3.4836    0.7082    0.2278 H   0  0  0  0  0  0  0  0  0  0  0  0
   -1.6866    3.1298   -0.3871 H   0  0  0  0  0  0  0  0  0  0  0  0
   -1.9704    1.7677   -1.4777 H   0  0  0  0  0  0  0  0  0  0  0  0
   -3.3030    2.8584   -1.0531 H   0  0  0  0  0  0  0  0  0  0  0  0
   -1.1107   -0.2839    0.3303 N   0  0  0  0  0  0  0  0  0  0  0  0
    0.0490   -1.0750    0.6539 C   0  0  2  0  0  0  0  0  0  0  0  0
    0.0144   -1.3510    2.1543 C   0  0  0  0  0  0  0  0  0  0  0  0
    0.3315   -0.5143    2.9972 O   0  0  0  0  0  0  0  0  0  0  0  0
    1.3639   -0.4023    0.2337 C   0  0  2  0  0  0  0  0  0  0  0  0
    1.5297    0.8455    0.9053 O   0  0  0  0  0  0  0  0  0  0  0  0
    1.4217   -0.1355   -1.2656 C   0  0  0  0  0  0  0  0  0  0  0  0
   -1.6733   -0.5660   -0.4691 H   0  0  0  0  0  0  0  0  0  0  0  0
   -0.0686   -2.0288    0.1252 H   0  0  0  0  0  0  0  0  0  0  0  0
    2.2177   -1.0337    0.5058 H   0  0  0  0  0  0  0  0  0  0  0  0
    2.3946    1.1899    0.6353 H   0  0  0  0  0  0  0  0  0  0  0  0
    0.5870    0.4941   -1.5924 H   0  0  0  0  0  0  0  0  0  0  0  0
    1.4054   -1.0688   -1.8365 H   0  0  0  0  0  0  0  0  0  0  0  0
    2.3379    0.4097   -1.5178 H   0  0  0  0  0  0  0  0  0  0  0  0
   -0.3644   -2.6556    2.4378 N   0  0  0  0  0  0  0  0  0  0  0  0
   -0.4404   -3.1672    3.7860 C   0  0  2  0  0  0  0  0  0  0  0  0
   -1.7398   -2.6696    4.4053 C   0  0  0  0  0  0  0  0  0  0  0  0
   -2.3373   -1.6742    4.0014 O   0  0  0  0  0  0  0  0  0  0  0  0
    0.7585   -2.7289    4.6126 C   0  0  0  0  0  0  0  0  0  0  0  0
   -0.5973   -3.2747    1.6669 H   0  0  0  0  0  0  0  0  0  0  0  0
   -0.4669   -4.2596    3.7087 H   0  0  0  0  0  0  0  0  0  0  0  0
    0.8018   -1.6372    4.7011 H   0  0  0  0  0  0  0  0  0  0  0  0
    0.7138   -3.1412    5.6260 H   0  0  0  0  0  0  0  0  0  0  0  0
    1.6937   -3.0621    4.1498 H   0  0  0  0  0  0  0  0  0  0  0  0
   -2.1308   -3.4427    5.4895 N   0  0  0  0  0  0  0  0  0  0  0  0
   -3.3245   -3.1663    6.2541 C   0  0  0  0  0  0  0  0  0  0  0  0
   -1.5849   -4.2611    5.7425 H   0  0  0  0  0  0  0  0  0  0  0  0
   -3.0721   -2.5211    7.1086 H   0  0  0  0  0  0  0  0  0  0  0  0
   -4.0597   -2.6562    5.6143 H   0  0  0  0  0  0  0  0  0  0  0  0
   -3.7513   -4.1111    6.6217 H   0  0  0  0  0  0  0  0  0  0  0  0
  1  3  1  0  0  0  0
  1  7  1  0  0  0  0
  1  2  2  0  0  0  0
 32 33  1  0  0  0  0
 33 41  1  0  0  0  0
 33 34  2  0  0  0  0
  8  9  1  0  0  0  0
  9 17  1  0  0  0  0
  9 10  2  0  0  0  0
 18 19  1  0  0  0  0
 19 31  1  0  0  0  0
 19 20  2  0  0  0  0
 32 35  1  0  0  0  0
  8 11  1  0  0  0  0
 21 23  1  0  0  0  0
 41 42  1  0  0  0  0
 31 32  1  0  0  0  0
  7  8  1  0  0  0  0
 18 21  1  0  0  0  0
 17 18  1  0  0  0  0
 21 22  1  0  0  0  0
  3  4  1  0  0  0  0
  3  5  1  0  0  0  0
  3  6  1  0  0  0  0
 35 38  1  0  0  0  0
 35 39  1  0  0  0  0
 35 40  1  0  0  0  0
 11 14  1  0  0  0  0
 11 15  1  0  0  0  0
 11 16  1  0  0  0  0
 23 28  1  0  0  0  0
 23 29  1  0  0  0  0
 23 30  1  0  0  0  0
 42 44  1  0  0  0  0
 42 45  1  0  0  0  0
 42 46  1  0  0  0  0
 32 37  1  0  0  0  0
  8 13  1  0  0  0  0
 18 25  1  0  0  0  0
 21 26  1  0  0  0  0
 41 43  1  0  0  0  0
  7 12  1  0  0  0  0
 31 36  1  0  0  0  0
 17 24  1  0  0  0  0
 22 27  1  0  0  0  0
M  END
$$$$

  -OEChem-05262214473D

 46 45  0     1  0  0  0  0  0999 V2000
   -4.6700    2.7214    1.5150 C   0  0  0  0  0  0  0  0  0  0  0  0
   -5.4532    2.5715    0.5845 O   0  0  0  0  0  0  0  0  0  0  0  0
   -5.0996    3.4865    2.7226 C   0  0  0  0  0  0  0  0  0  0  0  0
   -4.8796    4.5629    2.6387 H   0  0  0  0  0  0  0  0  0  0  0  0
   -6.1861    3.4241    2.8954 H   0  0  0  0  0  0  0  0  0  0  0  0
   -4.6369    3.1693    3.6708 H   0  0  0  0  0  0  0  0  0  0  0  0
   -3.3731    2.2391    1.5790 N   0  0  0  0  0  0  0  0  0  0  0  0
   -2.7599    1.4751    0.5247 C   0  0  2  0  0  0  0  0  0  0  0  0
   -1.5143    0.8067    1.0915 C   0  0  0  0  0  0  0  0  0  0  0  0
   -0.9247    1.2213    2.0872 O   0  0  0  0  0  0  0  0  0  0  0  0
   -2.4106    2.3553   -0.6653 C   0  0  0  0  0  0  0  0  0  0  0  0
   -2.8254    2.4352    2.4150 H   0  0  0  0  0  0  0  0  0  0  0  0
   -3.4836    0.7082    0.2278 H   0  0  0  0  0  0  0  0  0  0  0  0
   -1.6866    3.1298   -0.3871 H   0  0  0  0  0  0  0  0  0  0  0  0
   -1.9704    1.7677   -1.4777 H   0  0  0  0  0  0  0  0  0  0  0  0
   -3.3030    2.8584   -1.0531 H   0  0  0  0  0  0  0  0  0  0  0  0
   -1.1107   -0.2839    0.3303 N   0  0  0  0  0  0  0  0  0  0  0  0
    0.0490   -1.0750    0.6539 C   0  0  2  0  0  0  0  0  0  0  0  0
    0.0144   -1.3510    2.1543 C   0  0  0  0  0  0  0  0  0  0  0  0
    0.0677   -0.4613    3.0009 O   0  0  0  0  0  0  0  0  0  0  0  0
    1.3639   -0.4023    0.2337 C   0  0  2  0  0  0  0  0  0  0  0  0
    1.5297    0.8455    0.9053 O   0  0  0  0  0  0  0  0  0  0  0  0
    1.4217   -0.1355   -1.2656 C   0  0  0  0  0  0  0  0  0  0  0  0
   -1.6733   -0.5660   -0.4691 H   0  0  0  0  0  0  0  0  0  0  0  0
   -0.0686   -2.0288    0.1252 H   0  0  0  0  0  0  0  0  0  0  0  0
    2.2177   -1.0337    0.5058 H   0  0  0  0  0  0  0  0  0  0  0  0
    2.3946    1.1899    0.6353 H   0  0  0  0  0  0  0  0  0  0  0  0
    0.5870    0.4941   -1.5924 H   0  0  0  0  0  0  0  0  0  0  0  0
    1.4054   -1.0688   -1.8365 H   0  0  0  0  0  0  0  0  0  0  0  0
    2.3379    0.4097   -1.5178 H   0  0  0  0  0  0  0  0  0  0  0  0
   -0.0332   -2.7091    2.4356 N   0  0  0  0  0  0  0  0  0  0  0  0
   -0.0406   -3.2235    3.7849 C   0  0  2  0  0  0  0  0  0  0  0  0
   -1.4518   -3.0732    4.3377 C   0  0  0  0  0  0  0  0  0  0  0  0
   -2.2629   -2.2627    3.8948 O   0  0  0  0  0  0  0  0  0  0  0  0
    0.9667   -2.4945    4.6605 C   0  0  0  0  0  0  0  0  0  0  0  0
   -0.0640   -3.3670    1.6622 H   0  0  0  0  0  0  0  0  0  0  0  0
    0.2153   -4.2866    3.7195 H   0  0  0  0  0  0  0  0  0  0  0  0
    0.7266   -1.4278    4.7379 H   0  0  0  0  0  0  0  0  0  0  0  0
    0.9801   -2.9047    5.6757 H   0  0  0  0  0  0  0  0  0  0  0  0
    1.9768   -2.5785    4.2453 H   0  0  0  0  0  0  0  0  0  0  0  0
   -1.6844   -3.9206    5.4119 N   0  0  0  0  0  0  0  0  0  0  0  0
   -2.9442   -3.9574    6.1174 C   0  0  0  0  0  0  0  0  0  0  0  0
   -0.9609   -4.5730    5.6995 H   0  0  0  0  0  0  0  0  0  0  0  0
   -2.9051   -3.2694    6.9748 H   0  0  0  0  0  0  0  0  0  0  0  0
   -3.7536   -3.6512    5.4384 H   0  0  0  0  0  0  0  0  0  0  0  0
   -3.1336   -4.9798    6.4762 H   0  0  0  0  0  0  0  0  0  0  0  0
  1  3  1  0  0  0  0
  1  7  1  0  0  0  0
  1  2  2  0  0  0  0
 32 33  1  0  0  0  0
 33 41  1  0  0  0  0
 33 34  2  0  0  0  0
  8  9  1  0  0  0  0
  9 17  1  0  0  0  0
  9 10  2  0  0  0  0
 18 19  1  0  0  0  0
 19 31  1  0  0  0  0
 19 20  2  0  0  0  0
 32 35  1  0  0  0  0
  8 11  1  0  0  0  0
 21 23  1  0  0  0  0
 41 42  1  0  0  0  0
 31 32  1  0  0  0  0
  7  8  1  0  0  0  0
 18 21  1  0  0  0  0
 17 18  1  0  0  0  0
 21 22  1  0  0  0  0
  3  4  1  0  0  0  0
  3  5  1  0  0  0  0
  3  6  1  0  0  0  0
 35 38  1  0  0  0  0
 35 39  1  0  0  0  0
 35 40  1  0  0  0  0
 11 14  1  0  0  0  0
 11 15  1  0  0  0  0
 11 16  1  0  0  0  0
 23 28  1  0  0  0  0
 23 29  1  0  0  0  0
 23 30  1  0  0  0  0
 42 44  1  0  0  0  0
 42 45  1  0  0  0  0
 42 46  1  0  0  0  0
 32 37  1  0  0  0  0
  8 13  1  0  0  0  0
 18 25  1  0  0  0  0
 21 26  1  0  0  0  0
 41 43  1  0  0  0  0
  7 12  1  0  0  0  0
 31 36  1  0  0  0  0
 17 24  1  0  0  0  0
 22 27  1  0  0  0  0
M  END
$$$$

  -OEChem-05262214473D

 46 45  0     1  0  0  0  0  0999 V2000
   -4.6700    2.7214    1.5150 C   0  0  0  0  0  0  0  0  0  0  0  0
   -5.4532    2.5715    0.5845 O   0  0  0  0  0  0  0  0  0  0  0  0
   -5.0996    3.4865    2.7226 C   0  0  0  0  0  0  0  0  0  0  0  0
   -4.8796    4.5629    2.6387 H   0  0  0  0  0  0  0  0  0  0  0  0
   -6.1861    3.4241    2.8954 H   0  0  0  0  0  0  0  0  0  0  0  0
   -4.6369    3.1693    3.6708 H   0  0  0  0  0  0  0  0  0  0  0  0
   -3.3731    2.2391    1.5790 N   0  0  0  0  0  0  0  0  0  0  0  0
   -2.7599    1.4751    0.5247 C   0  0  2  0  0  0  0  0  0  0  0  0
   -1.5143    0.8067    1.0915 C   0  0  0  0  0  0  0  0  0  0  0  0
   -0.9247    1.2213    2.0872 O   0  0  0  0  0  0  0  0  0  0  0  0
   -2.4106    2.3553   -0.6653 C   0  0  0  0  0  0  0  0  0  0  0  0
   -2.8254    2.4352    2.4150 H   0  0  0  0  0  0  0  0  0  0  0  0
   -3.4836    0.7082    0.2278 H   0  0  0  0  0  0  0  0  0  0  0  0
   -1.6866    3.1298   -0.3871 H   0  0  0  0  0  0  0  0  0  0  0  0
   -1.9704    1.7677   -1.4777 H   0  0  0  0  0  0  0  0  0  0  0  0
   -3.3030    2.8584   -1.0531 H   0  0  0  0  0  0  0  0  0  0  0  0
   -1.1107   -0.2839    0.3303 N   0  0  0  0  0  0  0  0  0  0  0  0
    0.0490   -1.0750    0.6539 C   0  0  2  0  0  0  0  0  0  0  0  0
    0.0144   -1.3510    2.1543 C   0  0  0  0  0  0  0  0  0  0  0  0
   -0.2007   -0.4772    2.9918 O   0  0  0  0  0  0  0  0  0  0  0  0
    1.3639   -0.4023    0.2337 C   0  0  2  0  0  0  0  0  0  0  0  0
    1.5297    0.8455    0.9053 O   0  0  0  0  0  0  0  0  0  0  0  0
    1.4217   -0.1355   -1.2656 C   0  0  0  0  0  0  0  0  0  0  0  0
   -1.6733   -0.5660   -0.4691 H   0  0  0  0  0  0  0  0  0  0  0  0
   -0.0686   -2.0288    0.1252 H   0  0  0  0  0  0  0  0  0  0  0  0
    2.2177   -1.0337    0.5058 H   0  0  0  0  0  0  0  0  0  0  0  0
    2.3946    1.1899    0.6353 H   0  0  0  0  0  0  0  0  0  0  0  0
    0.5870    0.4941   -1.5924 H   0  0  0  0  0  0  0  0  0  0  0  0
    1.4054   -1.0688   -1.8365 H   0  0  0  0  0  0  0  0  0  0  0  0
    2.3379    0.4097   -1.5178 H   0  0  0  0  0  0  0  0  0  0  0  0
    0.3004   -2.6765    2.4493 N   0  0  0  0  0  0  0  0  0  0  0  0
    0.3599   -3.1760    3.8029 C   0  0  2  0  0  0  0  0  0  0  0  0
   -1.0677   -3.3901    4.2883 C   0  0  0  0  0  0  0  0  0  0  0  0
   -2.0363   -2.8128    3.7989 O   0  0  0  0  0  0  0  0  0  0  0  0
    1.1058   -2.2148    4.7152 C   0  0  0  0  0  0  0  0  0  0  0  0
    0.4748   -3.3204    1.6832 H   0  0  0  0  0  0  0  0  0  0  0  0
    0.8807   -4.1389    3.7620 H   0  0  0  0  0  0  0  0  0  0  0  0
    0.5989   -1.2444    4.7687 H   0  0  0  0  0  0  0  0  0  0  0  0
    1.1749   -2.6082    5.7347 H   0  0  0  0  0  0  0  0  0  0  0  0
    2.1227   -2.0388    4.3480 H   0  0  0  0  0  0  0  0  0  0  0  0
   -1.1280   -4.2691    5.3607 N   0  0  0  0  0  0  0  0  0  0  0  0
   -2.3690   -4.6255    6.0078 C   0  0  0  0  0  0  0  0  0  0  0  0
   -0.2769   -4.7158    5.6890 H   0  0  0  0  0  0  0  0  0  0  0  0
   -2.5470   -3.9504    6.8578 H   0  0  0  0  0  0  0  0  0  0  0  0
   -3.1965   -4.5354    5.2886 H   0  0  0  0  0  0  0  0  0  0  0  0
   -2.3091   -5.6625    6.3697 H   0  0  0  0  0  0  0  0  0  0  0  0
  1  3  1  0  0  0  0
  1  7  1  0  0  0  0
  1  2  2  0  0  0  0
 32 33  1  0  0  0  0
 33 41  1  0  0  0  0
 33 34  2  0  0  0  0
  8  9  1  0  0  0  0
  9 17  1  0  0  0  0
  9 10  2  0  0  0  0
 18 19  1  0  0  0  0
 19 31  1  0  0  0  0
 19 20  2  0  0  0  0
 32 35  1  0  0  0  0
  8 11  1  0  0  0  0
 21 23  1  0  0  0  0
 41 42  1  0  0  0  0
 31 32  1  0  0  0  0
  7  8  1  0  0  0  0
 18 21  1  0  0  0  0
 17 18  1  0  0  0  0
 21 22  1  0  0  0  0
  3  4  1  0  0  0  0
  3  5  1  0  0  0  0
  3  6  1  0  0  0  0
 35 38  1  0  0  0  0
 35 39  1  0  0  0  0
 35 40  1  0  0  0  0
 11 14  1  0  0  0  0
 11 15  1  0  0  0  0
 11 16  1  0  0  0  0
 23 28  1  0  0  0  0
 23 29  1  0  0  0  0
 23 30  1  0  0  0  0
 42 44  1  0  0  0  0
 42 45  1  0  0  0  0
 42 46  1  0  0  0  0
 32 37  1  0  0  0  0
  8 13  1  0  0  0  0
 18 25  1  0  0  0  0
 21 26  1  0  0  0  0
 41 43  1  0  0  0  0
  7 12  1  0  0  0  0
 31 36  1  0  0  0  0
 17 24  1  0  0  0  0
 22 27  1  0  0  0  0
M  END
$$$$

  -OEChem-05262214473D

 46 45  0     1  0  0  0  0  0999 V2000
   -4.6700    2.7214    1.5150 C   0  0  0  0  0  0  0  0  0  0  0  0
   -5.4532    2.5715    0.5845 O   0  0  0  0  0  0  0  0  0  0  0  0
   -5.0996    3.4865    2.7226 C   0  0  0  0  0  0  0  0  0  0  0  0
   -4.8796    4.5629    2.6387 H   0  0  0  0  0  0  0  0  0  0  0  0
   -6.1861    3.4241    2.8954 H   0  0  0  0  0  0  0  0  0  0  0  0
   -4.6369    3.1693    3.6708 H   0  0  0  0  0  0  0  0  0  0  0  0
   -3.3731    2.2391    1.5790 N   0  0  0  0  0  0  0  0  0  0  0  0
   -2.7599    1.4751    0.5247 C   0  0  2  0  0  0  0  0  0  0  0  0
   -1.5143    0.8067    1.0915 C   0  0  0  0  0  0  0  0  0  0  0  0
   -0.9247    1.2213    2.0872 O   0  0  0  0  0  0  0  0  0  0  0  0
   -2.4106    2.3553   -0.6653 C   0  0  0  0  0  0  0  0  0  0  0  0
   -2.8254    2.4352    2.4150 H   0  0  0  0  0  0  0  0  0  0  0  0
   -3.4836    0.7082    0.2278 H   0  0  0  0  0  0  0  0  0  0  0  0
   -1.6866    3.1298   -0.3871 H   0  0  0  0  0  0  0  0  0  0  0  0
   -1.9704    1.7677   -1.4777 H   0  0  0  0  0  0  0  0  0  0  0  0
   -3.3030    2.8584   -1.0531 H   0  0  0  0  0  0  0  0  0  0  0  0
   -1.1107   -0.2839    0.3303 N   0  0  0  0  0  0  0  0  0  0  0  0
    0.0490   -1.0750    0.6539 C   0  0  2  0  0  0  0  0  0  0  0  0
    0.0144   -1.3510    2.1543 C   0  0  0  0  0  0  0  0  0  0  0  0
   -0.4554   -0.5609    2.9705 O   0  0  0  0  0  0  0  0  0  0  0  0
    1.3639   -0.4023    0.2337 C   0  0  2  0  0  0  0  0  0  0  0  0
    1.5297    0.8455    0.9053 O   0  0  0  0  0  0  0  0  0  0  0  0
    1.4217   -0.1355   -1.2656 C   0  0  0  0  0  0  0  0  0  0  0  0
   -1.6733   -0.5660   -0.4691 H   0  0  0  0  0  0  0  0  0  0  0  0
   -0.0686   -2.0288    0.1252 H   0  0  0  0  0  0  0  0  0  0  0  0
    2.2177   -1.0337    0.5058 H   0  0  0  0  0  0  0  0  0  0  0  0
    2.3946    1.1899    0.6353 H   0  0  0  0  0  0  0  0  0  0  0  0
    0.5870    0.4941   -1.5924 H   0  0  0  0  0  0  0  0  0  0  0  0
    1.4054   -1.0688   -1.8365 H   0  0  0  0  0  0  0  0  0  0  0  0
    2.3379    0.4097   -1.5178 H   0  0  0  0  0  0  0  0  0  0  0  0
    0.6138   -2.5600    2.4779 N   0  0  0  0  0  0  0  0  0  0  0  0
    0.7339   -3.0282    3.8387 C   0  0  2  0  0  0  0  0  0  0  0  0
   -0.6137   -3.5988    4.2604 C   0  0  0  0  0  0  0  0  0  0  0  0
   -1.6729   -3.2871    3.7200 O   0  0  0  0  0  0  0  0  0  0  0  0
    1.1665   -1.9089    4.7728 C   0  0  0  0  0  0  0  0  0  0  0  0
    0.9824   -3.1381    1.7284 H   0  0  0  0  0  0  0  0  0  0  0  0
    1.4838   -3.8268    3.8334 H   0  0  0  0  0  0  0  0  0  0  0  0
    0.4275   -1.0995    4.7914 H   0  0  0  0  0  0  0  0  0  0  0  0
    1.2848   -2.2720    5.7991 H   0  0  0  0  0  0  0  0  0  0  0  0
    2.1214   -1.4797    4.4508 H   0  0  0  0  0  0  0  0  0  0  0  0
   -0.4994   -4.4643    5.3393 N   0  0  0  0  0  0  0  0  0  0  0  0
   -1.6383   -5.1251    5.9327 C   0  0  0  0  0  0  0  0  0  0  0  0
    0.4207   -4.6797    5.7118 H   0  0  0  0  0  0  0  0  0  0  0  0
   -2.0224   -4.5178    6.7655 H   0  0  0  0  0  0  0  0  0  0  0  0
   -2.4263   -5.2485    5.1752 H   0  0  0  0  0  0  0  0  0  0  0  0
   -1.3339   -6.1128    6.3093 H   0  0  0  0  0  0  0  0  0  0  0  0
  1  3  1  0  0  0  0
  1  7  1  0  0  0  0
  1  2  2  0  0  0  0
 32 33  1  0  0  0  0
 33 41  1  0  0  0  0
 33 34  2  0  0  0  0
  8  9  1  0  0  0  0
  9 17  1  0  0  0  0
  9 10  2  0  0  0  0
 18 19  1  0  0  0  0
 19 31  1  0  0  0  0
 19 20  2  0  0  0  0
 32 35  1  0  0  0  0
  8 11  1  0  0  0  0
 21 23  1  0  0  0  0
 41 42  1  0  0  0  0
 31 32  1  0  0  0  0
  7  8  1  0  0  0  0
 18 21  1  0  0  0  0
 17 18  1  0  0  0  0
 21 22  1  0  0  0  0
  3  4  1  0  0  0  0
  3  5  1  0  0  0  0
  3  6  1  0  0  0  0
 35 38  1  0  0  0  0
 35 39  1  0  0  0  0
 35 40  1  0  0  0  0
 11 14  1  0  0  0  0
 11 15  1  0  0  0  0
 11 16  1  0  0  0  0
 23 28  1  0  0  0  0
 23 29  1  0  0  0  0
 23 30  1  0  0  0  0
 42 44  1  0  0  0  0
 42 45  1  0  0  0  0
 42 46  1  0  0  0  0
 32 37  1  0  0  0  0
  8 13  1  0  0  0  0
 18 25  1  0  0  0  0
 21 26  1  0  0  0  0
 41 43  1  0  0  0  0
  7 12  1  0  0  0  0
 31 36  1  0  0  0  0
 17 24  1  0  0  0  0
 22 27  1  0  0  0  0
M  END
$$$$

  -OEChem-05262214473D

 46 45  0     1  0  0  0  0  0999 V2000
   -4.6700    2.7214    1.5150 C   0  0  0  0  0  0  0  0  0  0  0  0
   -5.4532    2.5715    0.5845 O   0  0  0  0  0  0  0  0  0  0  0  0
   -5.0996    3.4865    2.7226 C   0  0  0  0  0  0  0  0  0  0  0  0
   -4.8796    4.5629    2.6387 H   0  0  0  0  0  0  0  0  0  0  0  0
   -6.1861    3.4241    2.8954 H   0  0  0  0  0  0  0  0  0  0  0  0
   -4.6369    3.1693    3.6708 H   0  0  0  0  0  0  0  0  0  0  0  0
   -3.3731    2.2391    1.5790 N   0  0  0  0  0  0  0  0  0  0  0  0
   -2.7599    1.4751    0.5247 C   0  0  2  0  0  0  0  0  0  0  0  0
   -1.5143    0.8067    1.0915 C   0  0  0  0  0  0  0  0  0  0  0  0
   -0.9247    1.2213    2.0872 O   0  0  0  0  0  0  0  0  0  0  0  0
   -2.4106    2.3553   -0.6653 C   0  0  0  0  0  0  0  0  0  0  0  0
   -2.8254    2.4352    2.4150 H   0  0  0  0  0  0  0  0  0  0  0  0
   -3.4836    0.7082    0.2278 H   0  0  0  0  0  0  0  0  0  0  0  0
   -1.6866    3.1298   -0.3871 H   0  0  0  0  0  0  0  0  0  0  0  0
   -1.9704    1.7677   -1.4777 H   0  0  0  0  0  0  0  0  0  0  0  0
   -3.3030    2.8584   -1.0531 H   0  0  0  0  0  0  0  0  0  0  0  0
   -1.1107   -0.2839    0.3303 N   0  0  0  0  0  0  0  0  0  0  0  0
    0.0490   -1.0750    0.6539 C   0  0  2  0  0  0  0  0  0  0  0  0
    0.0144   -1.3510    2.1543 C   0  0  0  0  0  0  0  0  0  0  0  0
   -0.6792   -0.7067    2.9385 O   0  0  0  0  0  0  0  0  0  0  0  0
    1.3639   -0.4023    0.2337 C   0  0  2  0  0  0  0  0  0  0  0  0
    1.5297    0.8455    0.9053 O   0  0  0  0  0  0  0  0  0  0  0  0
    1.4217   -0.1355   -1.2656 C   0  0  0  0  0  0  0  0  0  0  0  0
   -1.6733   -0.5660   -0.4691 H   0  0  0  0  0  0  0  0  0  0  0  0
   -0.0686   -2.0288    0.1252 H   0  0  0  0  0  0  0  0  0  0  0  0
    2.2177   -1.0337    0.5058 H   0  0  0  0  0  0  0  0  0  0  0  0
    2.3946    1.1899    0.6353 H   0  0  0  0  0  0  0  0  0  0  0  0
    0.5870    0.4941   -1.5924 H   0  0  0  0  0  0  0  0  0  0  0  0
    1.4054   -1.0688   -1.8365 H   0  0  0  0  0  0  0  0  0  0  0  0
    2.3379    0.4097   -1.5178 H   0  0  0  0  0  0  0  0  0  0  0  0
    0.8855   -2.3676    2.5196 N   0  0  0  0  0  0  0  0  0  0  0  0
    1.0558   -2.7900    3.8899 C   0  0  2  0  0  0  0  0  0  0  0  0
   -0.1208   -3.6851    4.2559 C   0  0  0  0  0  0  0  0  0  0  0  0
   -1.1975   -3.6532    3.6637 O   0  0  0  0  0  0  0  0  0  0  0  0
    1.1446   -1.5976    4.8296 C   0  0  0  0  0  0  0  0  0  0  0  0
    1.4243   -2.8327    1.7948 H   0  0  0  0  0  0  0  0  0  0  0  0
    1.9835   -3.3713    3.9287 H   0  0  0  0  0  0  0  0  0  0  0  0
    0.2240   -1.0031    4.8044 H   0  0  0  0  0  0  0  0  0  0  0  0
    1.3024   -1.9188    5.8645 H   0  0  0  0  0  0  0  0  0  0  0  0
    1.9732   -0.9394    4.5468 H   0  0  0  0  0  0  0  0  0  0  0  0
    0.1584   -4.4931    5.3492 N   0  0  0  0  0  0  0  0  0  0  0  0
   -0.8019   -5.4223    5.8974 C   0  0  0  0  0  0  0  0  0  0  0  0
    1.0842   -4.4672    5.7662 H   0  0  0  0  0  0  0  0  0  0  0  0
   -1.3670   -4.9329    6.7043 H   0  0  0  0  0  0  0  0  0  0  0  0
   -1.4956   -5.7421    5.1059 H   0  0  0  0  0  0  0  0  0  0  0  0
   -0.2745   -6.2999    6.2994 H   0  0  0  0  0  0  0  0  0  0  0  0
  1  3  1  0  0  0  0
  1  7  1  0  0  0  0
  1  2  2  0  0  0  0
 32 33  1  0  0  0  0
 33 41  1  0  0  0  0
 33 34  2  0  0  0  0
  8  9  1  0  0  0  0
  9 17  1  0  0  0  0
  9 10  2  0  0  0  0
 18 19  1  0  0  0  0
 19 31  1  0  0  0  0
 19 20  2  0  0  0  0
 32 35  1  0  0  0  0
  8 11  1  0  0  0  0
 21 23  1  0  0  0  0
 41 42  1  0  0  0  0
 31 32  1  0  0  0  0
  7  8  1  0  0  0  0
 18 21  1  0  0  0  0
 17 18  1  0  0  0  0
 21 22  1  0  0  0  0
  3  4  1  0  0  0  0
  3  5  1  0  0  0  0
  3  6  1  0  0  0  0
 35 38  1  0  0  0  0
 35 39  1  0  0  0  0
 35 40  1  0  0  0  0
 11 14  1  0  0  0  0
 11 15  1  0  0  0  0
 11 16  1  0  0  0  0
 23 28  1  0  0  0  0
 23 29  1  0  0  0  0
 23 30  1  0  0  0  0
 42 44  1  0  0  0  0
 42 45  1  0  0  0  0
 42 46  1  0  0  0  0
 32 37  1  0  0  0  0
  8 13  1  0  0  0  0
 18 25  1  0  0  0  0
 21 26  1  0  0  0  0
 41 43  1  0  0  0  0
  7 12  1  0  0  0  0
 31 36  1  0  0  0  0
 17 24  1  0  0  0  0
 22 27  1  0  0  0  0
M  END
$$$$

  -OEChem-05262214473D

 46 45  0     1  0  0  0  0  0999 V2000
   -4.6700    2.7214    1.5150 C   0  0  0  0  0  0  0  0  0  0  0  0
   -5.4532    2.5715    0.5845 O   0  0  0  0  0  0  0  0  0  0  0  0
   -5.0996    3.4865    2.7226 C   0  0  0  0  0  0  0  0  0  0  0  0
   -4.8796    4.5629    2.6387 H   0  0  0  0  0  0  0  0  0  0  0  0
   -6.1861    3.4241    2.8954 H   0  0  0  0  0  0  0  0  0  0  0  0
   -4.6369    3.1693    3.6708 H   0  0  0  0  0  0  0  0  0  0  0  0
   -3.3731    2.2391    1.5790 N   0  0  0  0  0  0  0  0  0  0  0  0
   -2.7599    1.4751    0.5247 C   0  0  2  0  0  0  0  0  0  0  0  0
   -1.5143    0.8067    1.0915 C   0  0  0  0  0  0  0  0  0  0  0  0
   -0.9247    1.2213    2.0872 O   0  0  0  0  0  0  0  0  0  0  0  0
   -2.4106    2.3553   -0.6653 C   0  0  0  0  0  0  0  0  0  0  0  0
   -2.8254    2.4352    2.4150 H   0  0  0  0  0  0  0  0  0  0  0  0
   -3.4836    0.7082    0.2278 H   0  0  0  0  0  0  0  0  0  0  0  0
   -1.6866    3.1298   -0.3871 H   0  0  0  0  0  0  0  0  0  0  0  0
   -1.9704    1.7677   -1.4777 H   0  0  0  0  0  0  0  0  0  0  0  0
   -3.3030    2.8584   -1.0531 H   0  0  0  0  0  0  0  0  0  0  0  0
   -1.1107   -0.2839    0.3303 N   0  0  0  0  0  0  0  0  0  0  0  0
    0.0490   -1.0750    0.6539 C   0  0  2  0  0  0  0  0  0  0  0  0
   -0.1690   -1.6649    2.0443 C   0  0  0  0  0  0  0  0  0  0  0  0
   -1.1635   -1.4247    2.7258 O   0  0  0  0  0  0  0  0  0  0  0  0
    1.3561   -0.2724    0.5796 C   0  0  2  0  0  0  0  0  0  0  0  0
    1.3372    0.8102    1.5088 O   0  0  0  0  0  0  0  0  0  0  0  0
    1.5974    0.3092   -0.8081 C   0  0  0  0  0  0  0  0  0  0  0  0
   -1.6733   -0.5660   -0.4691 H   0  0  0  0  0  0  0  0  0  0  0  0
    0.0745   -1.8987   -0.0699 H   0  0  0  0  0  0  0  0  0  0  0  0
    2.2088   -0.9098    0.8406 H   0  0  0  0  0  0  0  0  0  0  0  0
    2.2032    1.2410    1.4461 H   0  0  0  0  0  0  0  0  0  0  0  0
    0.7711    0.9573   -1.1196 H   0  0  0  0  0  0  0  0  0  0  0  0
    1.7273   -0.4812   -1.5536 H   0  0  0  0  0  0  0  0  0  0  0  0
    2.4970    0.9345   -0.8050 H   0  0  0  0  0  0  0  0  0  0  0  0
    0.8996   -2.4501    2.4530 N   0  0  0  0  0  0  0  0  0  0  0  0
    0.9429   -3.0916    3.7461 C   0  0  2  0  0  0  0  0  0  0  0  0
    0.0691   -4.3374    3.6825 C   0  0  0  0  0  0  0  0  0  0  0  0
   -0.8336   -4.4823    2.8608 O   0  0  0  0  0  0  0  0  0  0  0  0
    0.4715   -2.1526    4.8456 C   0  0  0  0  0  0  0  0  0  0  0  0
    1.6819   -2.5787    1.8179 H   0  0  0  0  0  0  0  0  0  0  0  0
    1.9843   -3.3836    3.9196 H   0  0  0  0  0  0  0  0  0  0  0  0
   -0.5700   -1.8491    4.6887 H   0  0  0  0  0  0  0  0  0  0  0  0
    0.5319   -2.6310    5.8287 H   0  0  0  0  0  0  0  0  0  0  0  0
    1.0824   -1.2438    4.8704 H   0  0  0  0  0  0  0  0  0  0  0  0
    0.3877   -5.2497    4.6786 N   0  0  0  0  0  0  0  0  0  0  0  0
   -0.3073   -6.5058    4.8367 C   0  0  0  0  0  0  0  0  0  0  0  0
    1.1637   -5.0553    5.3046 H   0  0  0  0  0  0  0  0  0  0  0  0
   -1.1369   -6.3795    5.5479 H   0  0  0  0  0  0  0  0  0  0  0  0
   -0.7049   -6.8297    3.8636 H   0  0  0  0  0  0  0  0  0  0  0  0
    0.3906   -7.2653    5.2188 H   0  0  0  0  0  0  0  0  0  0  0  0
  1  3  1  0  0  0  0
  1  7  1  0  0  0  0
  1  2  2  0  0  0  0
 32 33  1  0  0  0  0
 33 41  1  0  0  0  0
 33 34  2  0  0  0  0
  8  9  1  0  0  0  0
  9 17  1  0  0  0  0
  9 10  2  0  0  0  0
 18 19  1  0  0  0  0
 19 31  1  0  0  0  0
 19 20  2  0  0  0  0
 32 35  1  0  0  0  0
  8 11  1  0  0  0  0
 21 23  1  0  0  0  0
 41 42  1  0  0  0  0
 31 32  1  0  0  0  0
  7  8  1  0  0  0  0
 18 21  1  0  0  0  0
 17 18  1  0  0  0  0
 21 22  1  0  0  0  0
  3  4  1  0  0  0  0
  3  5  1  0  0  0  0
  3  6  1  0  0  0  0
 35 38  1  0  0  0  0
 35 39  1  0  0  0  0
 35 40  1  0  0  0  0
 11 14  1  0  0  0  0
 11 15  1  0  0  0  0
 11 16  1  0  0  0  0
 23 28  1  0  0  0  0
 23 29  1  0  0  0  0
 23 30  1  0  0  0  0
 42 44  1  0  0  0  0
 42 45  1  0  0  0  0
 42 46  1  0  0  0  0
 32 37  1  0  0  0  0
  8 13  1  0  0  0  0
 18 25  1  0  0  0  0
 21 26  1  0  0  0  0
 41 43  1  0  0  0  0
  7 12  1  0  0  0  0
 31 36  1  0  0  0  0
 17 24  1  0  0  0  0
 22 27  1  0  0  0  0
M  END
$$$$

  -OEChem-05262214473D

 46 45  0     1  0  0  0  0  0999 V2000
   -4.6700    2.7214    1.5150 C   0  0  0  0  0  0  0  0  0  0  0  0
   -5.4532    2.5715    0.5845 O   0  0  0  0  0  0  0  0  0  0  0  0
   -5.0996    3.4865    2.7226 C   0  0  0  0  0  0  0  0  0  0  0  0
   -4.8796    4.5629    2.6387 H   0  0  0  0  0  0  0  0  0  0  0  0
   -6.1861    3.4241    2.8954 H   0  0  0  0  0  0  0  0  0  0  0  0
   -4.6369    3.1693    3.6708 H   0  0  0  0  0  0  0  0  0  0  0  0
   -3.3731    2.2391    1.5790 N   0  0  0  0  0  0  0  0  0  0  0  0
   -2.7599    1.4751    0.5247 C   0  0  2  0  0  0  0  0  0  0  0  0
   -1.5143    0.8067    1.0915 C   0  0  0  0  0  0  0  0  0  0  0  0
   -0.9247    1.2213    2.0872 O   0  0  0  0  0  0  0  0  0  0  0  0
   -2.4106    2.3553   -0.6653 C   0  0  0  0  0  0  0  0  0  0  0  0
   -2.8254    2.4352    2.4150 H   0  0  0  0  0  0  0  0  0  0  0  0
   -3.4836    0.7082    0.2278 H   0  0  0  0  0  0  0  0  0  0  0  0
   -1.6866    3.1298   -0.3871 H   0  0  0  0  0  0  0  0  0  0  0  0
   -1.9704    1.7677   -1.4777 H   0  0  0  0  0  0  0  0  0  0  0  0
   -3.3030    2.8584   -1.0531 H   0  0  0  0  0  0  0  0  0  0  0  0
   -1.1107   -0.2839    0.3303 N   0  0  0  0  0  0  0  0  0  0  0  0
    0.0490   -1.0750    0.6539 C   0  0  2  0  0  0  0  0  0  0  0  0
   -0.1690   -1.6649    2.0443 C   0  0  0  0  0  0  0  0  0  0  0  0
   -1.2577   -1.6511    2.6150 O   0  0  0  0  0  0  0  0  0  0  0  0
    1.3561   -0.2724    0.5796 C   0  0  2  0  0  0  0  0  0  0  0  0
    1.3372    0.8102    1.5088 O   0  0  0  0  0  0  0  0  0  0  0  0
    1.5974    0.3092   -0.8081 C   0  0  0  0  0  0  0  0  0  0  0  0
   -1.6733   -0.5660   -0.4691 H   0  0  0  0  0  0  0  0  0  0  0  0
    0.0745   -1.8987   -0.0699 H   0  0  0  0  0  0  0  0  0  0  0  0
    2.2088   -0.9098    0.8406 H   0  0  0  0  0  0  0  0  0  0  0  0
    2.2032    1.2410    1.4461 H   0  0  0  0  0  0  0  0  0  0  0  0
    0.7711    0.9573   -1.1196 H   0  0  0  0  0  0  0  0  0  0  0  0
    1.7273   -0.4812   -1.5536 H   0  0  0  0  0  0  0  0  0  0  0  0
    2.4970    0.9345   -0.8050 H   0  0  0  0  0  0  0  0  0  0  0  0
    1.0050   -2.1631    2.5913 N   0  0  0  0  0  0  0  0  0  0  0  0
    1.0617   -2.7434    3.9124 C   0  0  2  0  0  0  0  0  0  0  0  0
    0.5152   -4.1624    3.8266 C   0  0  0  0  0  0  0  0  0  0  0  0
   -0.2376   -4.5383    2.9305 O   0  0  0  0  0  0  0  0  0  0  0  0
    0.2715   -1.9163    4.9145 C   0  0  0  0  0  0  0  0  0  0  0  0
    1.8576   -2.1179    2.0410 H   0  0  0  0  0  0  0  0  0  0  0  0
    2.1186   -2.7751    4.1988 H   0  0  0  0  0  0  0  0  0  0  0  0
   -0.7898   -1.8730    4.6441 H   0  0  0  0  0  0  0  0  0  0  0  0
    0.3391   -2.3418    5.9211 H   0  0  0  0  0  0  0  0  0  0  0  0
    0.6468   -0.8879    4.9531 H   0  0  0  0  0  0  0  0  0  0  0  0
    0.9325   -4.9476    4.8922 N   0  0  0  0  0  0  0  0  0  0  0  0
    0.5381   -6.3286    5.0444 C   0  0  0  0  0  0  0  0  0  0  0  0
    1.5718   -4.5588    5.5792 H   0  0  0  0  0  0  0  0  0  0  0  0
   -0.3677   -6.3854    5.6660 H   0  0  0  0  0  0  0  0  0  0  0  0
    0.3312   -6.7620    4.0548 H   0  0  0  0  0  0  0  0  0  0  0  0
    1.3505   -6.8907    5.5283 H   0  0  0  0  0  0  0  0  0  0  0  0
  1  3  1  0  0  0  0
  1  7  1  0  0  0  0
  1  2  2  0  0  0  0
 32 33  1  0  0  0  0
 33 41  1  0  0  0  0
 33 34  2  0  0  0  0
  8  9  1  0  0  0  0
  9 17  1  0  0  0  0
  9 10  2  0  0  0  0
 18 19  1  0  0  0  0
 19 31  1  0  0  0  0
 19 20  2  0  0  0  0
 32 35  1  0  0  0  0
  8 11  1  0  0  0  0
 21 23  1  0  0  0  0
 41 42  1  0  0  0  0
 31 32  1  0  0  0  0
  7  8  1  0  0  0  0
 18 21  1  0  0  0  0
 17 18  1  0  0  0  0
 21 22  1  0  0  0  0
  3  4  1  0  0  0  0
  3  5  1  0  0  0  0
  3  6  1  0  0  0  0
 35 38  1  0  0  0  0
 35 39  1  0  0  0  0
 35 40  1  0  0  0  0
 11 14  1  0  0  0  0
 11 15  1  0  0  0  0
 11 16  1  0  0  0  0
 23 28  1  0  0  0  0
 23 29  1  0  0  0  0
 23 30  1  0  0  0  0
 42 44  1  0  0  0  0
 42 45  1  0  0  0  0
 42 46  1  0  0  0  0
 32 37  1  0  0  0  0
  8 13  1  0  0  0  0
 18 25  1  0  0  0  0
 21 26  1  0  0  0  0
 41 43  1  0  0  0  0
  7 12  1  0  0  0  0
 31 36  1  0  0  0  0
 17 24  1  0  0  0  0
 22 27  1  0  0  0  0
M  END
$$$$

  -OEChem-05262214473D

 46 45  0     1  0  0  0  0  0999 V2000
   -4.6700    2.7214    1.5150 C   0  0  0  0  0  0  0  0  0  0  0  0
   -5.4532    2.5715    0.5845 O   0  0  0  0  0  0  0  0  0  0  0  0
   -5.0996    3.4865    2.7226 C   0  0  0  0  0  0  0  0  0  0  0  0
   -4.8796    4.5629    2.6387 H   0  0  0  0  0  0  0  0  0  0  0  0
   -6.1861    3.4241    2.8954 H   0  0  0  0  0  0  0  0  0  0  0  0
   -4.6369    3.1693    3.6708 H   0  0  0  0  0  0  0  0  0  0  0  0
   -3.3731    2.2391    1.5790 N   0  0  0  0  0  0  0  0  0  0  0  0
   -2.7599    1.4751    0.5247 C   0  0  2  0  0  0  0  0  0  0  0  0
   -1.5143    0.8067    1.0915 C   0  0  0  0  0  0  0  0  0  0  0  0
   -0.9247    1.2213    2.0872 O   0  0  0  0  0  0  0  0  0  0  0  0
   -2.4106    2.3553   -0.6653 C   0  0  0  0  0  0  0  0  0  0  0  0
   -2.8254    2.4352    2.4150 H   0  0  0  0  0  0  0  0  0  0  0  0
   -3.4836    0.7082    0.2278 H   0  0  0  0  0  0  0  0  0  0  0  0
   -1.6866    3.1298   -0.3871 H   0  0  0  0  0  0  0  0  0  0  0  0
   -1.9704    1.7677   -1.4777 H   0  0  0  0  0  0  0  0  0  0  0  0
   -3.3030    2.8584   -1.0531 H   0  0  0  0  0  0  0  0  0  0  0  0
   -1.1107   -0.2839    0.3303 N   0  0  0  0  0  0  0  0  0  0  0  0
    0.0490   -1.0750    0.6539 C   0  0  2  0  0  0  0  0  0  0  0  0
   -0.1690   -1.6649    2.0443 C   0  0  0  0  0  0  0  0  0  0  0  0
   -1.2842   -1.8960    2.5070 O   0  0  0  0  0  0  0  0  0  0  0  0
    1.3561   -0.2724    0.5796 C   0  0  2  0  0  0  0  0  0  0  0  0
    1.3372    0.8102    1.5088 O   0  0  0  0  0  0  0  0  0  0  0  0
    1.5974    0.3092   -0.8081 C   0  0  0  0  0  0  0  0  0  0  0  0
   -1.6733   -0.5660   -0.4691 H   0  0  0  0  0  0  0  0  0  0  0  0
    0.0745   -1.8987   -0.0699 H   0  0  0  0  0  0  0  0  0  0  0  0
    2.2088   -0.9098    0.8406 H   0  0  0  0  0  0  0  0  0  0  0  0
    2.2032    1.2410    1.4461 H   0  0  0  0  0  0  0  0  0  0  0  0
    0.7711    0.9573   -1.1196 H   0  0  0  0  0  0  0  0  0  0  0  0
    1.7273   -0.4812   -1.5536 H   0  0  0  0  0  0  0  0  0  0  0  0
    2.4970    0.9345   -0.8050 H   0  0  0  0  0  0  0  0  0  0  0  0
    1.0252   -1.8560    2.7248 N   0  0  0  0  0  0  0  0  0  0  0  0
    1.0778   -2.3729    4.0721 C   0  0  2  0  0  0  0  0  0  0  0  0
    0.8905   -3.8828    4.0041 C   0  0  0  0  0  0  0  0  0  0  0  0
    0.3443   -4.4492    3.0596 O   0  0  0  0  0  0  0  0  0  0  0  0
    0.0158   -1.7326    4.9523 C   0  0  0  0  0  0  0  0  0  0  0  0
    1.8963   -1.6231    2.2569 H   0  0  0  0  0  0  0  0  0  0  0  0
    2.0769   -2.1454    4.4594 H   0  0  0  0  0  0  0  0  0  0  0  0
   -0.9920   -1.9496    4.5799 H   0  0  0  0  0  0  0  0  0  0  0  0
    0.0754   -2.1046    5.9804 H   0  0  0  0  0  0  0  0  0  0  0  0
    0.1339   -0.6439    4.9762 H   0  0  0  0  0  0  0  0  0  0  0  0
    1.3662   -4.5195    5.1418 N   0  0  0  0  0  0  0  0  0  0  0  0
    1.2921   -5.9505    5.3231 C   0  0  0  0  0  0  0  0  0  0  0  0
    1.8214   -3.9729    5.8669 H   0  0  0  0  0  0  0  0  0  0  0  0
    0.3649   -6.2054    5.8573 H   0  0  0  0  0  0  0  0  0  0  0  0
    1.2969   -6.4451    4.3406 H   0  0  0  0  0  0  0  0  0  0  0  0
    2.1583   -6.2910    5.9093 H   0  0  0  0  0  0  0  0  0  0  0  0
  1  3  1  0  0  0  0
  1  7  1  0  0  0  0
  1  2  2  0  0  0  0
 32 33  1  0  0  0  0
 33 41  1  0  0  0  0
 33 34  2  0  0  0  0
  8  9  1  0  0  0  0
  9 17  1  0  0  0  0
  9 10  2  0  0  0  0
 18 19  1  0  0  0  0
 19 31  1  0  0  0  0
 19 20  2  0  0  0  0
 32 35  1  0  0  0  0
  8 11  1  0  0  0  0
 21 23  1  0  0  0  0
 41 42  1  0  0  0  0
 31 32  1  0  0  0  0
  7  8  1  0  0  0  0
 18 21  1  0  0  0  0
 17 18  1  0  0  0  0
 21 22  1  0  0  0  0
  3  4  1  0  0  0  0
  3  5  1  0  0  0  0
  3  6  1  0  0  0  0
 35 38  1  0  0  0  0
 35 39  1  0  0  0  0
 35 40  1  0  0  0  0
 11 14  1  0  0  0  0
 11 15  1  0  0  0  0
 11 16  1  0  0  0  0
 23 28  1  0  0  0  0
 23 29  1  0  0  0  0
 23 30  1  0  0  0  0
 42 44  1  0  0  0  0
 42 45  1  0  0  0  0
 42 46  1  0  0  0  0
 32 37  1  0  0  0  0
  8 13  1  0  0  0  0
 18 25  1  0  0  0  0
 21 26  1  0  0  0  0
 41 43  1  0  0  0  0
  7 12  1  0  0  0  0
 31 36  1  0  0  0  0
 17 24  1  0  0  0  0
 22 27  1  0  0  0  0
M  END
$$$$

  -OEChem-05262214473D

 46 45  0     1  0  0  0  0  0999 V2000
   -4.6700    2.7214    1.5150 C   0  0  0  0  0  0  0  0  0  0  0  0
   -5.4532    2.5715    0.5845 O   0  0  0  0  0  0  0  0  0  0  0  0
   -5.0996    3.4865    2.7226 C   0  0  0  0  0  0  0  0  0  0  0  0
   -4.8796    4.5629    2.6387 H   0  0  0  0  0  0  0  0  0  0  0  0
   -6.1861    3.4241    2.8954 H   0  0  0  0  0  0  0  0  0  0  0  0
   -4.6369    3.1693    3.6708 H   0  0  0  0  0  0  0  0  0  0  0  0
   -3.3731    2.2391    1.5790 N   0  0  0  0  0  0  0  0  0  0  0  0
   -2.7599    1.4751    0.5247 C   0  0  2  0  0  0  0  0  0  0  0  0
   -1.5143    0.8067    1.0915 C   0  0  0  0  0  0  0  0  0  0  0  0
   -0.9247    1.2213    2.0872 O   0  0  0  0  0  0  0  0  0  0  0  0
   -2.4106    2.3553   -0.6653 C   0  0  0  0  0  0  0  0  0  0  0  0
   -2.8254    2.4352    2.4150 H   0  0  0  0  0  0  0  0  0  0  0  0
   -3.4836    0.7082    0.2278 H   0  0  0  0  0  0  0  0  0  0  0  0
   -1.6866    3.1298   -0.3871 H   0  0  0  0  0  0  0  0  0  0  0  0
   -1.9704    1.7677   -1.4777 H   0  0  0  0  0  0  0  0  0  0  0  0
   -3.3030    2.8584   -1.0531 H   0  0  0  0  0  0  0  0  0  0  0  0
   -1.1107   -0.2839    0.3303 N   0  0  0  0  0  0  0  0  0  0  0  0
    0.0490   -1.0750    0.6539 C   0  0  2  0  0  0  0  0  0  0  0  0
   -0.1690   -1.6649    2.0443 C   0  0  0  0  0  0  0  0  0  0  0  0
   -1.2413   -2.1428    2.4090 O   0  0  0  0  0  0  0  0  0  0  0  0
    1.3561   -0.2724    0.5796 C   0  0  2  0  0  0  0  0  0  0  0  0
    1.3372    0.8102    1.5088 O   0  0  0  0  0  0  0  0  0  0  0  0
    1.5974    0.3092   -0.8081 C   0  0  0  0  0  0  0  0  0  0  0  0
   -1.6733   -0.5660   -0.4691 H   0  0  0  0  0  0  0  0  0  0  0  0
    0.0745   -1.8987   -0.0699 H   0  0  0  0  0  0  0  0  0  0  0  0
    2.2088   -0.9098    0.8406 H   0  0  0  0  0  0  0  0  0  0  0  0
    2.2032    1.2410    1.4461 H   0  0  0  0  0  0  0  0  0  0  0  0
    0.7711    0.9573   -1.1196 H   0  0  0  0  0  0  0  0  0  0  0  0
    1.7273   -0.4812   -1.5536 H   0  0  0  0  0  0  0  0  0  0  0  0
    2.4970    0.9345   -0.8050 H   0  0  0  0  0  0  0  0  0  0  0  0
    0.9589   -1.5496    2.8443 N   0  0  0  0  0  0  0  0  0  0  0  0
    0.9899   -2.0054    4.2142 C   0  0  2  0  0  0  0  0  0  0  0  0
    1.1692   -3.5178    4.2027 C   0  0  0  0  0  0  0  0  0  0  0  0
    0.8724   -4.2211    3.2391 O   0  0  0  0  0  0  0  0  0  0  0  0
   -0.2784   -1.6141    4.9565 C   0  0  0  0  0  0  0  0  0  0  0  0
    1.7953   -1.1281    2.4511 H   0  0  0  0  0  0  0  0  0  0  0  0
    1.8620   -1.5373    4.6837 H   0  0  0  0  0  0  0  0  0  0  0  0
   -1.1629   -2.0737    4.5005 H   0  0  0  0  0  0  0  0  0  0  0  0
   -0.2411   -1.9354    6.0026 H   0  0  0  0  0  0  0  0  0  0  0  0
   -0.4213   -0.5282    4.9382 H   0  0  0  0  0  0  0  0  0  0  0  0
    1.6592   -3.9945    5.4105 N   0  0  0  0  0  0  0  0  0  0  0  0
    1.9033   -5.3971    5.6537 C   0  0  0  0  0  0  0  0  0  0  0  0
    1.8955   -3.3374    6.1481 H   0  0  0  0  0  0  0  0  0  0  0  0
    1.0109   -5.8516    6.1087 H   0  0  0  0  0  0  0  0  0  0  0  0
    2.1263   -5.9008    4.7016 H   0  0  0  0  0  0  0  0  0  0  0  0
    2.7590   -5.5072    6.3361 H   0  0  0  0  0  0  0  0  0  0  0  0
  1  3  1  0  0  0  0
  1  7  1  0  0  0  0
  1  2  2  0  0  0  0
 32 33  1  0  0  0  0
 33 41  1  0  0  0  0
 33 34  2  0  0  0  0
  8  9  1  0  0  0  0
  9 17  1  0  0  0  0
  9 10  2  0  0  0  0
 18 19  1  0  0  0  0
 19 31  1  0  0  0  0
 19 20  2  0  0  0  0
 32 35  1  0  0  0  0
  8 11  1  0  0  0  0
 21 23  1  0  0  0  0
 41 42  1  0  0  0  0
 31 32  1  0  0  0  0
  7  8  1  0  0  0  0
 18 21  1  0  0  0  0
 17 18  1  0  0  0  0
 21 22  1  0  0  0  0
  3  4  1  0  0  0  0
  3  5  1  0  0  0  0
  3  6  1  0  0  0  0
 35 38  1  0  0  0  0
 35 39  1  0  0  0  0
 35 40  1  0  0  0  0
 11 14  1  0  0  0  0
 11 15  1  0  0  0  0
 11 16  1  0  0  0  0
 23 28  1  0  0  0  0
 23 29  1  0  0  0  0
 23 30  1  0  0  0  0
 42 44  1  0  0  0  0
 42 45  1  0  0  0  0
 42 46  1  0  0  0  0
 32 37  1  0  0  0  0
  8 13  1  0  0  0  0
 18 25  1  0  0  0  0
 21 26  1  0  0  0  0
 41 43  1  0  0  0  0
  7 12  1  0  0  0  0
 31 36  1  0  0  0  0
 17 24  1  0  0  0  0
 22 27  1  0  0  0  0
M  END
$$$$

  -OEChem-05262214473D

 46 45  0     1  0  0  0  0  0999 V2000
   -4.6700    2.7214    1.5150 C   0  0  0  0  0  0  0  0  0  0  0  0
   -5.4532    2.5715    0.5845 O   0  0  0  0  0  0  0  0  0  0  0  0
   -5.0996    3.4865    2.7226 C   0  0  0  0  0  0  0  0  0  0  0  0
   -4.8796    4.5629    2.6387 H   0  0  0  0  0  0  0  0  0  0  0  0
   -6.1861    3.4241    2.8954 H   0  0  0  0  0  0  0  0  0  0  0  0
   -4.6369    3.1693    3.6708 H   0  0  0  0  0  0  0  0  0  0  0  0
   -3.3731    2.2391    1.5790 N   0  0  0  0  0  0  0  0  0  0  0  0
   -2.7599    1.4751    0.5247 C   0  0  2  0  0  0  0  0  0  0  0  0
   -1.5143    0.8067    1.0915 C   0  0  0  0  0  0  0  0  0  0  0  0
   -0.9247    1.2213    2.0872 O   0  0  0  0  0  0  0  0  0  0  0  0
   -2.4106    2.3553   -0.6653 C   0  0  0  0  0  0  0  0  0  0  0  0
   -2.8254    2.4352    2.4150 H   0  0  0  0  0  0  0  0  0  0  0  0
   -3.4836    0.7082    0.2278 H   0  0  0  0  0  0  0  0  0  0  0  0
   -1.6866    3.1298   -0.3871 H   0  0  0  0  0  0  0  0  0  0  0  0
   -1.9704    1.7677   -1.4777 H   0  0  0  0  0  0  0  0  0  0  0  0
   -3.3030    2.8584   -1.0531 H   0  0  0  0  0  0  0  0  0  0  0  0
   -1.1107   -0.2839    0.3303 N   0  0  0  0  0  0  0  0  0  0  0  0
    0.0490   -1.0750    0.6539 C   0  0  2  0  0  0  0  0  0  0  0  0
   -0.1690   -1.6649    2.0443 C   0  0  0  0  0  0  0  0  0  0  0  0
   -1.1318   -2.3747    2.3278 O   0  0  0  0  0  0  0  0  0  0  0  0
    1.3561   -0.2724    0.5796 C   0  0  2  0  0  0  0  0  0  0  0  0
    1.3372    0.8102    1.5088 O   0  0  0  0  0  0  0  0  0  0  0  0
    1.5974    0.3092   -0.8081 C   0  0  0  0  0  0  0  0  0  0  0  0
   -1.6733   -0.5660   -0.4691 H   0  0  0  0  0  0  0  0  0  0  0  0
    0.0745   -1.8987   -0.0699 H   0  0  0  0  0  0  0  0  0  0  0  0
    2.2088   -0.9098    0.8406 H   0  0  0  0  0  0  0  0  0  0  0  0
    2.2032    1.2410    1.4461 H   0  0  0  0  0  0  0  0  0  0  0  0
    0.7711    0.9573   -1.1196 H   0  0  0  0  0  0  0  0  0  0  0  0
    1.7273   -0.4812   -1.5536 H   0  0  0  0  0  0  0  0  0  0  0  0
    2.4970    0.9345   -0.8050 H   0  0  0  0  0  0  0  0  0  0  0  0
    0.8107   -1.2648    2.9419 N   0  0  0  0  0  0  0  0  0  0  0  0
    0.8042   -1.6658    4.3291 C   0  0  2  0  0  0  0  0  0  0  0  0
    1.3325   -3.0920    4.4089 C   0  0  0  0  0  0  0  0  0  0  0  0
    1.3108   -3.8696    3.4570 O   0  0  0  0  0  0  0  0  0  0  0  0
   -0.5909   -1.5688    4.9267 C   0  0  0  0  0  0  0  0  0  0  0  0
    1.5617   -0.6666    2.6103 H   0  0  0  0  0  0  0  0  0  0  0  0
    1.4886   -0.9923    4.8563 H   0  0  0  0  0  0  0  0  0  0  0  0
   -1.2907   -2.2367    4.4113 H   0  0  0  0  0  0  0  0  0  0  0  0
   -0.5889   -1.8458    5.9860 H   0  0  0  0  0  0  0  0  0  0  0  0
   -0.9812   -0.5489    4.8416 H   0  0  0  0  0  0  0  0  0  0  0  0
    1.7914   -3.4083    5.6799 N   0  0  0  0  0  0  0  0  0  0  0  0
    2.3301   -4.7061    6.0138 C   0  0  0  0  0  0  0  0  0  0  0  0
    1.7891   -2.6957    6.4037 H   0  0  0  0  0  0  0  0  0  0  0  0
    1.5263   -5.3483    6.4030 H   0  0  0  0  0  0  0  0  0  0  0  0
    2.7630   -5.1660    5.1132 H   0  0  0  0  0  0  0  0  0  0  0  0
    3.1118   -4.5926    6.7794 H   0  0  0  0  0  0  0  0  0  0  0  0
  1  3  1  0  0  0  0
  1  7  1  0  0  0  0
  1  2  2  0  0  0  0
 32 33  1  0  0  0  0
 33 41  1  0  0  0  0
 33 34  2  0  0  0  0
  8  9  1  0  0  0  0
  9 17  1  0  0  0  0
  9 10  2  0  0  0  0
 18 19  1  0  0  0  0
 19 31  1  0  0  0  0
 19 20  2  0  0  0  0
 32 35  1  0  0  0  0
  8 11  1  0  0  0  0
 21 23  1  0  0  0  0
 41 42  1  0  0  0  0
 31 32  1  0  0  0  0
  7  8  1  0  0  0  0
 18 21  1  0  0  0  0
 17 18  1  0  0  0  0
 21 22  1  0  0  0  0
  3  4  1  0  0  0  0
  3  5  1  0  0  0  0
  3  6  1  0  0  0  0
 35 38  1  0  0  0  0
 35 39  1  0  0  0  0
 35 40  1  0  0  0  0
 11 14  1  0  0  0  0
 11 15  1  0  0  0  0
 11 16  1  0  0  0  0
 23 28  1  0  0  0  0
 23 29  1  0  0  0  0
 23 30  1  0  0  0  0
 42 44  1  0  0  0  0
 42 45  1  0  0  0  0
 42 46  1  0  0  0  0
 32 37  1  0  0  0  0
  8 13  1  0  0  0  0
 18 25  1  0  0  0  0
 21 26  1  0  0  0  0
 41 43  1  0  0  0  0
  7 12  1  0  0  0  0
 31 36  1  0  0  0  0
 17 24  1  0  0  0  0
 22 27  1  0  0  0  0
M  END
$$$$

  -OEChem-05262214473D

 46 45  0     1  0  0  0  0  0999 V2000
   -4.6700    2.7214    1.5150 C   0  0  0  0  0  0  0  0  0  0  0  0
   -5.4532    2.5715    0.5845 O   0  0  0  0  0  0  0  0  0  0  0  0
   -5.0996    3.4865    2.7226 C   0  0  0  0  0  0  0  0  0  0  0  0
   -4.8796    4.5629    2.6387 H   0  0  0  0  0  0  0  0  0  0  0  0
   -6.1861    3.4241    2.8954 H   0  0  0  0  0  0  0  0  0  0  0  0
   -4.6369    3.1693    3.6708 H   0  0  0  0  0  0  0  0  0  0  0  0
   -3.3731    2.2391    1.5790 N   0  0  0  0  0  0  0  0  0  0  0  0
   -2.7599    1.4751    0.5247 C   0  0  2  0  0  0  0  0  0  0  0  0
   -1.5143    0.8067    1.0915 C   0  0  0  0  0  0  0  0  0  0  0  0
   -0.9247    1.2213    2.0872 O   0  0  0  0  0  0  0  0  0  0  0  0
   -2.4106    2.3553   -0.6653 C   0  0  0  0  0  0  0  0  0  0  0  0
   -2.8254    2.4352    2.4150 H   0  0  0  0  0  0  0  0  0  0  0  0
   -3.4836    0.7082    0.2278 H   0  0  0  0  0  0  0  0  0  0  0  0
   -1.6866    3.1298   -0.3871 H   0  0  0  0  0  0  0  0  0  0  0  0
   -1.9704    1.7677   -1.4777 H   0  0  0  0  0  0  0  0  0  0  0  0
   -3.3030    2.8584   -1.0531 H   0  0  0  0  0  0  0  0  0  0  0  0
   -1.1107   -0.2839    0.3303 N   0  0  0  0  0  0  0  0  0  0  0  0
    0.0490   -1.0750    0.6539 C   0  0  2  0  0  0  0  0  0  0  0  0
   -0.1690   -1.6649    2.0443 C   0  0  0  0  0  0  0  0  0  0  0  0
   -0.9632   -2.5759    2.2689 O   0  0  0  0  0  0  0  0  0  0  0  0
    1.3561   -0.2724    0.5796 C   0  0  2  0  0  0  0  0  0  0  0  0
    1.3372    0.8102    1.5088 O   0  0  0  0  0  0  0  0  0  0  0  0
    1.5974    0.3092   -0.8081 C   0  0  0  0  0  0  0  0  0  0  0  0
   -1.6733   -0.5660   -0.4691 H   0  0  0  0  0  0  0  0  0  0  0  0
    0.0745   -1.8987   -0.0699 H   0  0  0  0  0  0  0  0  0  0  0  0
    2.2088   -0.9098    0.8406 H   0  0  0  0  0  0  0  0  0  0  0  0
    2.2032    1.2410    1.4461 H   0  0  0  0  0  0  0  0  0  0  0  0
    0.7711    0.9573   -1.1196 H   0  0  0  0  0  0  0  0  0  0  0  0
    1.7273   -0.4812   -1.5536 H   0  0  0  0  0  0  0  0  0  0  0  0
    2.4970    0.9345   -0.8050 H   0  0  0  0  0  0  0  0  0  0  0  0
    0.5906   -1.0211    3.0108 N   0  0  0  0  0  0  0  0  0  0  0  0
    0.5332   -1.3774    4.4090 C   0  0  2  0  0  0  0  0  0  0  0  0
    1.3692   -2.6347    4.6086 C   0  0  0  0  0  0  0  0  0  0  0  0
    1.6296   -3.4186    3.6983 O   0  0  0  0  0  0  0  0  0  0  0  0
   -0.9004   -1.5998    4.8649 C   0  0  0  0  0  0  0  0  0  0  0  0
    1.2113   -0.2700    2.7236 H   0  0  0  0  0  0  0  0  0  0  0  0
    0.9821   -0.5475    4.9656 H   0  0  0  0  0  0  0  0  0  0  0  0
   -1.3668   -2.4277    4.3184 H   0  0  0  0  0  0  0  0  0  0  0  0
   -0.9444   -1.8419    5.9319 H   0  0  0  0  0  0  0  0  0  0  0  0
   -1.5074   -0.7044    4.6931 H   0  0  0  0  0  0  0  0  0  0  0  0
    1.7540   -2.8010    5.9317 N   0  0  0  0  0  0  0  0  0  0  0  0
    2.5435   -3.9248    6.3787 C   0  0  0  0  0  0  0  0  0  0  0  0
    1.5094   -2.0914    6.6162 H   0  0  0  0  0  0  0  0  0  0  0  0
    1.8760   -4.7297    6.7203 H   0  0  0  0  0  0  0  0  0  0  0  0
    3.1636   -4.2909    5.5472 H   0  0  0  0  0  0  0  0  0  0  0  0
    3.1925   -3.6097    7.2090 H   0  0  0  0  0  0  0  0  0  0  0  0
  1  3  1  0  0  0  0
  1  7  1  0  0  0  0
  1  2  2  0  0  0  0
 32 33  1  0  0  0  0
 33 41  1  0  0  0  0
 33 34  2  0  0  0  0
  8  9  1  0  0  0  0
  9 17  1  0  0  0  0
  9 10  2  0  0  0  0
 18 19  1  0  0  0  0
 19 31  1  0  0  0  0
 19 20  2  0  0  0  0
 32 35  1  0  0  0  0
  8 11  1  0  0  0  0
 21 23  1  0  0  0  0
 41 42  1  0  0  0  0
 31 32  1  0  0  0  0
  7  8  1  0  0  0  0
 18 21  1  0  0  0  0
 17 18  1  0  0  0  0
 21 22  1  0  0  0  0
  3  4  1  0  0  0  0
  3  5  1  0  0  0  0
  3  6  1  0  0  0  0
 35 38  1  0  0  0  0
 35 39  1  0  0  0  0
 35 40  1  0  0  0  0
 11 14  1  0  0  0  0
 11 15  1  0  0  0  0
 11 16  1  0  0  0  0
 23 28  1  0  0  0  0
 23 29  1  0  0  0  0
 23 30  1  0  0  0  0
 42 44  1  0  0  0  0
 42 45  1  0  0  0  0
 42 46  1  0  0  0  0
 32 37  1  0  0  0  0
  8 13  1  0  0  0  0
 18 25  1  0  0  0  0
 21 26  1  0  0  0  0
 41 43  1  0  0  0  0
  7 12  1  0  0  0  0
 31 36  1  0  0  0  0
 17 24  1  0  0  0  0
 22 27  1  0  0  0  0
M  END
$$$$

  -OEChem-05262214473D

 46 45  0     1  0  0  0  0  0999 V2000
   -4.6700    2.7214    1.5150 C   0  0  0  0  0  0  0  0  0  0  0  0
   -5.4532    2.5715    0.5845 O   0  0  0  0  0  0  0  0  0  0  0  0
   -5.0996    3.4865    2.7226 C   0  0  0  0  0  0  0  0  0  0  0  0
   -4.8796    4.5629    2.6387 H   0  0  0  0  0  0  0  0  0  0  0  0
   -6.1861    3.4241    2.8954 H   0  0  0  0  0  0  0  0  0  0  0  0
   -4.6369    3.1693    3.6708 H   0  0  0  0  0  0  0  0  0  0  0  0
   -3.3731    2.2391    1.5790 N   0  0  0  0  0  0  0  0  0  0  0  0
   -2.7599    1.4751    0.5247 C   0  0  2  0  0  0  0  0  0  0  0  0
   -1.5143    0.8067    1.0915 C   0  0  0  0  0  0  0  0  0  0  0  0
   -0.9247    1.2213    2.0872 O   0  0  0  0  0  0  0  0  0  0  0  0
   -2.4106    2.3553   -0.6653 C   0  0  0  0  0  0  0  0  0  0  0  0
   -2.8254    2.4352    2.4150 H   0  0  0  0  0  0  0  0  0  0  0  0
   -3.4836    0.7082    0.2278 H   0  0  0  0  0  0  0  0  0  0  0  0
   -1.6866    3.1298   -0.3871 H   0  0  0  0  0  0  0  0  0  0  0  0
   -1.9704    1.7677   -1.4777 H   0  0  0  0  0  0  0  0  0  0  0  0
   -3.3030    2.8584   -1.0531 H   0  0  0  0  0  0  0  0  0  0  0  0
   -1.1107   -0.2839    0.3303 N   0  0  0  0  0  0  0  0  0  0  0  0
    0.0490   -1.0750    0.6539 C   0  0  2  0  0  0  0  0  0  0  0  0
   -0.1690   -1.6649    2.0443 C   0  0  0  0  0  0  0  0  0  0  0  0
   -0.7470   -2.7327    2.2363 O   0  0  0  0  0  0  0  0  0  0  0  0
    1.3561   -0.2724    0.5796 C   0  0  2  0  0  0  0  0  0  0  0  0
    1.3372    0.8102    1.5088 O   0  0  0  0  0  0  0  0  0  0  0  0
    1.5974    0.3092   -0.8081 C   0  0  0  0  0  0  0  0  0  0  0  0
   -1.6733   -0.5660   -0.4691 H   0  0  0  0  0  0  0  0  0  0  0  0
    0.0745   -1.8987   -0.0699 H   0  0  0  0  0  0  0  0  0  0  0  0
    2.2088   -0.9098    0.8406 H   0  0  0  0  0  0  0  0  0  0  0  0
    2.2032    1.2410    1.4461 H   0  0  0  0  0  0  0  0  0  0  0  0
    0.7711    0.9573   -1.1196 H   0  0  0  0  0  0  0  0  0  0  0  0
    1.7273   -0.4812   -1.5536 H   0  0  0  0  0  0  0  0  0  0  0  0
    2.4970    0.9345   -0.8050 H   0  0  0  0  0  0  0  0  0  0  0  0
    0.3137   -0.8350    3.0463 N   0  0  0  0  0  0  0  0  0  0  0  0
    0.1955   -1.1597    4.4484 C   0  0  2  0  0  0  0  0  0  0  0  0
    1.2768   -2.1769    4.7884 C   0  0  0  0  0  0  0  0  0  0  0  0
    1.8071   -2.8989    3.9466 O   0  0  0  0  0  0  0  0  0  0  0  0
   -1.1859   -1.7051    4.7755 C   0  0  0  0  0  0  0  0  0  0  0  0
    0.7679    0.0347    2.7833 H   0  0  0  0  0  0  0  0  0  0  0  0
    0.3771   -0.2333    5.0040 H   0  0  0  0  0  0  0  0  0  0  0  0
   -1.3859   -2.6334    4.2281 H   0  0  0  0  0  0  0  0  0  0  0  0
   -1.2833   -1.9240    5.8440 H   0  0  0  0  0  0  0  0  0  0  0  0
   -1.9642   -0.9842    4.5028 H   0  0  0  0  0  0  0  0  0  0  0  0
    1.5495   -2.2138    6.1487 N   0  0  0  0  0  0  0  0  0  0  0  0
    2.5288   -3.1063    6.7236 C   0  0  0  0  0  0  0  0  0  0  0  0
    1.0755   -1.5659    6.7711 H   0  0  0  0  0  0  0  0  0  0  0  0
    2.0362   -4.0379    7.0388 H   0  0  0  0  0  0  0  0  0  0  0  0
    3.3007   -3.3352    5.9742 H   0  0  0  0  0  0  0  0  0  0  0  0
    2.9956   -2.6252    7.5958 H   0  0  0  0  0  0  0  0  0  0  0  0
  1  3  1  0  0  0  0
  1  7  1  0  0  0  0
  1  2  2  0  0  0  0
 32 33  1  0  0  0  0
 33 41  1  0  0  0  0
 33 34  2  0  0  0  0
  8  9  1  0  0  0  0
  9 17  1  0  0  0  0
  9 10  2  0  0  0  0
 18 19  1  0  0  0  0
 19 31  1  0  0  0  0
 19 20  2  0  0  0  0
 32 35  1  0  0  0  0
  8 11  1  0  0  0  0
 21 23  1  0  0  0  0
 41 42  1  0  0  0  0
 31 32  1  0  0  0  0
  7  8  1  0  0  0  0
 18 21  1  0  0  0  0
 17 18  1  0  0  0  0
 21 22  1  0  0  0  0
  3  4  1  0  0  0  0
  3  5  1  0  0  0  0
  3  6  1  0  0  0  0
 35 38  1  0  0  0  0
 35 39  1  0  0  0  0
 35 40  1  0  0  0  0
 11 14  1  0  0  0  0
 11 15  1  0  0  0  0
 11 16  1  0  0  0  0
 23 28  1  0  0  0  0
 23 29  1  0  0  0  0
 23 30  1  0  0  0  0
 42 44  1  0  0  0  0
 42 45  1  0  0  0  0
 42 46  1  0  0  0  0
 32 37  1  0  0  0  0
  8 13  1  0  0  0  0
 18 25  1  0  0  0  0
 21 26  1  0  0  0  0
 41 43  1  0  0  0  0
  7 12  1  0  0  0  0
 31 36  1  0  0  0  0
 17 24  1  0  0  0  0
 22 27  1  0  0  0  0
M  END
$$$$

  -OEChem-05262214473D

 46 45  0     1  0  0  0  0  0999 V2000
   -4.6700    2.7214    1.5150 C   0  0  0  0  0  0  0  0  0  0  0  0
   -5.4532    2.5715    0.5845 O   0  0  0  0  0  0  0  0  0  0  0  0
   -5.0996    3.4865    2.7226 C   0  0  0  0  0  0  0  0  0  0  0  0
   -4.8796    4.5629    2.6387 H   0  0  0  0  0  0  0  0  0  0  0  0
   -6.1861    3.4241    2.8954 H   0  0  0  0  0  0  0  0  0  0  0  0
   -4.6369    3.1693    3.6708 H   0  0  0  0  0  0  0  0  0  0  0  0
   -3.3731    2.2391    1.5790 N   0  0  0  0  0  0  0  0  0  0  0  0
   -2.7599    1.4751    0.5247 C   0  0  2  0  0  0  0  0  0  0  0  0
   -1.5143    0.8067    1.0915 C   0  0  0  0  0  0  0  0  0  0  0  0
   -0.9247    1.2213    2.0872 O   0  0  0  0  0  0  0  0  0  0  0  0
   -2.4106    2.3553   -0.6653 C   0  0  0  0  0  0  0  0  0  0  0  0
   -2.8254    2.4352    2.4150 H   0  0  0  0  0  0  0  0  0  0  0  0
   -3.4836    0.7082    0.2278 H   0  0  0  0  0  0  0  0  0  0  0  0
   -1.6866    3.1298   -0.3871 H   0  0  0  0  0  0  0  0  0  0  0  0
   -1.9704    1.7677   -1.4777 H   0  0  0  0  0  0  0  0  0  0  0  0
   -3.3030    2.8584   -1.0531 H   0  0  0  0  0  0  0  0  0  0  0  0
   -1.1107   -0.2839    0.3303 N   0  0  0  0  0  0  0  0  0  0  0  0
    0.0490   -1.0750    0.6539 C   0  0  2  0  0  0  0  0  0  0  0  0
   -0.1690   -1.6649    2.0443 C   0  0  0  0  0  0  0  0  0  0  0  0
   -0.4980   -2.8344    2.2322 O   0  0  0  0  0  0  0  0  0  0  0  0
    1.3561   -0.2724    0.5796 C   0  0  2  0  0  0  0  0  0  0  0  0
    1.3372    0.8102    1.5088 O   0  0  0  0  0  0  0  0  0  0  0  0
    1.5974    0.3092   -0.8081 C   0  0  0  0  0  0  0  0  0  0  0  0
   -1.6733   -0.5660   -0.4691 H   0  0  0  0  0  0  0  0  0  0  0  0
    0.0745   -1.8987   -0.0699 H   0  0  0  0  0  0  0  0  0  0  0  0
    2.2088   -0.9098    0.8406 H   0  0  0  0  0  0  0  0  0  0  0  0
    2.2032    1.2410    1.4461 H   0  0  0  0  0  0  0  0  0  0  0  0
    0.7711    0.9573   -1.1196 H   0  0  0  0  0  0  0  0  0  0  0  0
    1.7273   -0.4812   -1.5536 H   0  0  0  0  0  0  0  0  0  0  0  0
    2.4970    0.9345   -0.8050 H   0  0  0  0  0  0  0  0  0  0  0  0
   -0.0012   -0.7193    3.0460 N   0  0  0  0  0  0  0  0  0  0  0  0
   -0.1860   -1.0277    4.4446 C   0  0  2  0  0  0  0  0  0  0  0  0
    1.0617   -1.7498    4.9358 C   0  0  0  0  0  0  0  0  0  0  0  0
    1.8310   -2.3459    4.1849 O   0  0  0  0  0  0  0  0  0  0  0  0
   -1.4279   -1.8775    4.6645 C   0  0  0  0  0  0  0  0  0  0  0  0
    0.2618    0.2266    2.7853 H   0  0  0  0  0  0  0  0  0  0  0  0
   -0.2853   -0.0710    4.9690 H   0  0  0  0  0  0  0  0  0  0  0  0
   -1.3469   -2.8401    4.1465 H   0  0  0  0  0  0  0  0  0  0  0  0
   -1.5824   -2.0865    5.7282 H   0  0  0  0  0  0  0  0  0  0  0  0
   -2.3203   -1.3692    4.2836 H   0  0  0  0  0  0  0  0  0  0  0  0
    1.1917   -1.6869    6.3161 N   0  0  0  0  0  0  0  0  0  0  0  0
    2.2870   -2.3063    7.0251 C   0  0  0  0  0  0  0  0  0  0  0  0
    0.5170   -1.1549    6.8578 H   0  0  0  0  0  0  0  0  0  0  0  0
    1.9959   -3.3202    7.3370 H   0  0  0  0  0  0  0  0  0  0  0  0
    3.1651   -2.3638    6.3650 H   0  0  0  0  0  0  0  0  0  0  0  0
    2.5347   -1.7065    7.9133 H   0  0  0  0  0  0  0  0  0  0  0  0
  1  3  1  0  0  0  0
  1  7  1  0  0  0  0
  1  2  2  0  0  0  0
 32 33  1  0  0  0  0
 33 41  1  0  0  0  0
 33 34  2  0  0  0  0
  8  9  1  0  0  0  0
  9 17  1  0  0  0  0
  9 10  2  0  0  0  0
 18 19  1  0  0  0  0
 19 31  1  0  0  0  0
 19 20  2  0  0  0  0
 32 35  1  0  0  0  0
  8 11  1  0  0  0  0
 21 23  1  0  0  0  0
 41 42  1  0  0  0  0
 31 32  1  0  0  0  0
  7  8  1  0  0  0  0
 18 21  1  0  0  0  0
 17 18  1  0  0  0  0
 21 22  1  0  0  0  0
  3  4  1  0  0  0  0
  3  5  1  0  0  0  0
  3  6  1  0  0  0  0
 35 38  1  0  0  0  0
 35 39  1  0  0  0  0
 35 40  1  0  0  0  0
 11 14  1  0  0  0  0
 11 15  1  0  0  0  0
 11 16  1  0  0  0  0
 23 28  1  0  0  0  0
 23 29  1  0  0  0  0
 23 30  1  0  0  0  0
 42 44  1  0  0  0  0
 42 45  1  0  0  0  0
 42 46  1  0  0  0  0
 32 37  1  0  0  0  0
  8 13  1  0  0  0  0
 18 25  1  0  0  0  0
 21 26  1  0  0  0  0
 41 43  1  0  0  0  0
  7 12  1  0  0  0  0
 31 36  1  0  0  0  0
 17 24  1  0  0  0  0
 22 27  1  0  0  0  0
M  END
$$$$

  -OEChem-05262214473D

 46 45  0     1  0  0  0  0  0999 V2000
   -4.6700    2.7214    1.5150 C   0  0  0  0  0  0  0  0  0  0  0  0
   -5.4532    2.5715    0.5845 O   0  0  0  0  0  0  0  0  0  0  0  0
   -5.0996    3.4865    2.7226 C   0  0  0  0  0  0  0  0  0  0  0  0
   -4.8796    4.5629    2.6387 H   0  0  0  0  0  0  0  0  0  0  0  0
   -6.1861    3.4241    2.8954 H   0  0  0  0  0  0  0  0  0  0  0  0
   -4.6369    3.1693    3.6708 H   0  0  0  0  0  0  0  0  0  0  0  0
   -3.3731    2.2391    1.5790 N   0  0  0  0  0  0  0  0  0  0  0  0
   -2.7599    1.4751    0.5247 C   0  0  2  0  0  0  0  0  0  0  0  0
   -1.5143    0.8067    1.0915 C   0  0  0  0  0  0  0  0  0  0  0  0
   -0.9247    1.2213    2.0872 O   0  0  0  0  0  0  0  0  0  0  0  0
   -2.4106    2.3553   -0.6653 C   0  0  0  0  0  0  0  0  0  0  0  0
   -2.8254    2.4352    2.4150 H   0  0  0  0  0  0  0  0  0  0  0  0
   -3.4836    0.7082    0.2278 H   0  0  0  0  0  0  0  0  0  0  0  0
   -1.6866    3.1298   -0.3871 H   0  0  0  0  0  0  0  0  0  0  0  0
   -1.9704    1.7677   -1.4777 H   0  0  0  0  0  0  0  0  0  0  0  0
   -3.3030    2.8584   -1.0531 H   0  0  0  0  0  0  0  0  0  0  0  0
   -1.1107   -0.2839    0.3303 N   0  0  0  0  0  0  0  0  0  0  0  0
    0.0490   -1.0750    0.6539 C   0  0  2  0  0  0  0  0  0  0  0  0
   -0.1690   -1.6649    2.0443 C   0  0  0  0  0  0  0  0  0  0  0  0
   -0.2330   -2.8740    2.2569 O   0  0  0  0  0  0  0  0  0  0  0  0
    1.3561   -0.2724    0.5796 C   0  0  2  0  0  0  0  0  0  0  0  0
    1.3372    0.8102    1.5088 O   0  0  0  0  0  0  0  0  0  0  0  0
    1.5974    0.3092   -0.8081 C   0  0  0  0  0  0  0  0  0  0  0  0
   -1.6733   -0.5660   -0.4691 H   0  0  0  0  0  0  0  0  0  0  0  0
    0.0745   -1.8987   -0.0699 H   0  0  0  0  0  0  0  0  0  0  0  0
    2.2088   -0.9098    0.8406 H   0  0  0  0  0  0  0  0  0  0  0  0
    2.2032    1.2410    1.4461 H   0  0  0  0  0  0  0  0  0  0  0  0
    0.7711    0.9573   -1.1196 H   0  0  0  0  0  0  0  0  0  0  0  0
    1.7273   -0.4812   -1.5536 H   0  0  0  0  0  0  0  0  0  0  0  0
    2.4970    0.9345   -0.8050 H   0  0  0  0  0  0  0  0  0  0  0  0
   -0.3327   -0.6818    3.0099 N   0  0  0  0  0  0  0  0  0  0  0  0
   -0.5853   -0.9902    4.3979 C   0  0  2  0  0  0  0  0  0  0  0  0
    0.7384   -1.3826    5.0409 C   0  0  0  0  0  0  0  0  0  0  0  0
    1.7000   -1.7973    4.3971 O   0  0  0  0  0  0  0  0  0  0  0  0
   -1.6099   -2.1051    4.5394 C   0  0  0  0  0  0  0  0  0  0  0  0
   -0.2725    0.2927    2.7296 H   0  0  0  0  0  0  0  0  0  0  0  0
   -0.9598   -0.0718    4.8629 H   0  0  0  0  0  0  0  0  0  0  0  0
   -1.2523   -3.0335    4.0793 H   0  0  0  0  0  0  0  0  0  0  0  0
   -1.8215   -2.3182    5.5924 H   0  0  0  0  0  0  0  0  0  0  0  0
   -2.5516   -1.8332    4.0505 H   0  0  0  0  0  0  0  0  0  0  0  0
    0.7051   -1.2561    6.4226 N   0  0  0  0  0  0  0  0  0  0  0  0
    1.8347   -1.5795    7.2625 C   0  0  0  0  0  0  0  0  0  0  0  0
   -0.1281   -0.8864    6.8706 H   0  0  0  0  0  0  0  0  0  0  0  0
    1.7579   -2.6254    7.5944 H   0  0  0  0  0  0  0  0  0  0  0  0
    2.7659   -1.4431    6.6930 H   0  0  0  0  0  0  0  0  0  0  0  0
    1.8410   -0.9160    8.1398 H   0  0  0  0  0  0  0  0  0  0  0  0
  1  3  1  0  0  0  0
  1  7  1  0  0  0  0
  1  2  2  0  0  0  0
 32 33  1  0  0  0  0
 33 41  1  0  0  0  0
 33 34  2  0  0  0  0
  8  9  1  0  0  0  0
  9 17  1  0  0  0  0
  9 10  2  0  0  0  0
 18 19  1  0  0  0  0
 19 31  1  0  0  0  0
 19 20  2  0  0  0  0
 32 35  1  0  0  0  0
  8 11  1  0  0  0  0
 21 23  1  0  0  0  0
 41 42  1  0  0  0  0
 31 32  1  0  0  0  0
  7  8  1  0  0  0  0
 18 21  1  0  0  0  0
 17 18  1  0  0  0  0
 21 22  1  0  0  0  0
  3  4  1  0  0  0  0
  3  5  1  0  0  0  0
  3  6  1  0  0  0  0
 35 38  1  0  0  0  0
 35 39  1  0  0  0  0
 35 40  1  0  0  0  0
 11 14  1  0  0  0  0
 11 15  1  0  0  0  0
 11 16  1  0  0  0  0
 23 28  1  0  0  0  0
 23 29  1  0  0  0  0
 23 30  1  0  0  0  0
 42 44  1  0  0  0  0
 42 45  1  0  0  0  0
 42 46  1  0  0  0  0
 32 37  1  0  0  0  0
  8 13  1  0  0  0  0
 18 25  1  0  0  0  0
 21 26  1  0  0  0  0
 41 43  1  0  0  0  0
  7 12  1  0  0  0  0
 31 36  1  0  0  0  0
 17 24  1  0  0  0  0
 22 27  1  0  0  0  0
M  END
$$$$

  -OEChem-05262214473D

 46 45  0     1  0  0  0  0  0999 V2000
   -4.6700    2.7214    1.5150 C   0  0  0  0  0  0  0  0  0  0  0  0
   -5.4532    2.5715    0.5845 O   0  0  0  0  0  0  0  0  0  0  0  0
   -5.0996    3.4865    2.7226 C   0  0  0  0  0  0  0  0  0  0  0  0
   -4.8796    4.5629    2.6387 H   0  0  0  0  0  0  0  0  0  0  0  0
   -6.1861    3.4241    2.8954 H   0  0  0  0  0  0  0  0  0  0  0  0
   -4.6369    3.1693    3.6708 H   0  0  0  0  0  0  0  0  0  0  0  0
   -3.3731    2.2391    1.5790 N   0  0  0  0  0  0  0  0  0  0  0  0
   -2.7599    1.4751    0.5247 C   0  0  2  0  0  0  0  0  0  0  0  0
   -1.5143    0.8067    1.0915 C   0  0  0  0  0  0  0  0  0  0  0  0
   -0.9247    1.2213    2.0872 O   0  0  0  0  0  0  0  0  0  0  0  0
   -2.4106    2.3553   -0.6653 C   0  0  0  0  0  0  0  0  0  0  0  0
   -2.8254    2.4352    2.4150 H   0  0  0  0  0  0  0  0  0  0  0  0
   -3.4836    0.7082    0.2278 H   0  0  0  0  0  0  0  0  0  0  0  0
   -1.6866    3.1298   -0.3871 H   0  0  0  0  0  0  0  0  0  0  0  0
   -1.9704    1.7677   -1.4777 H   0  0  0  0  0  0  0  0  0  0  0  0
   -3.3030    2.8584   -1.0531 H   0  0  0  0  0  0  0  0  0  0  0  0
   -1.1107   -0.2839    0.3303 N   0  0  0  0  0  0  0  0  0  0  0  0
    0.0490   -1.0750    0.6539 C   0  0  2  0  0  0  0  0  0  0  0  0
   -0.1690   -1.6649    2.0443 C   0  0  0  0  0  0  0  0  0  0  0  0
    0.0297   -2.8488    2.3088 O   0  0  0  0  0  0  0  0  0  0  0  0
    1.3561   -0.2724    0.5796 C   0  0  2  0  0  0  0  0  0  0  0  0
    1.3372    0.8102    1.5088 O   0  0  0  0  0  0  0  0  0  0  0  0
    1.5974    0.3092   -0.8081 C   0  0  0  0  0  0  0  0  0  0  0  0
   -1.6733   -0.5660   -0.4691 H   0  0  0  0  0  0  0  0  0  0  0  0
    0.0745   -1.8987   -0.0699 H   0  0  0  0  0  0  0  0  0  0  0  0
    2.2088   -0.9098    0.8406 H   0  0  0  0  0  0  0  0  0  0  0  0
    2.2032    1.2410    1.4461 H   0  0  0  0  0  0  0  0  0  0  0  0
    0.7711    0.9573   -1.1196 H   0  0  0  0  0  0  0  0  0  0  0  0
    1.7273   -0.4812   -1.5536 H   0  0  0  0  0  0  0  0  0  0  0  0
    2.4970    0.9345   -0.8050 H   0  0  0  0  0  0  0  0  0  0  0  0
   -0.6581   -0.7251    2.9405 N   0  0  0  0  0  0  0  0  0  0  0  0
   -0.9751   -1.0500    4.3114 C   0  0  2  0  0  0  0  0  0  0  0  0
    0.3290   -1.1003    5.0965 C   0  0  0  0  0  0  0  0  0  0  0  0
    1.4227   -1.2904    4.5687 O   0  0  0  0  0  0  0  0  0  0  0  0
   -1.7195   -2.3725    4.4087 C   0  0  0  0  0  0  0  0  0  0  0  0
   -0.7986    0.2285    2.6198 H   0  0  0  0  0  0  0  0  0  0  0  0
   -1.6006   -0.2355    4.6929 H   0  0  0  0  0  0  0  0  0  0  0  0
   -1.1085   -3.2005    4.0310 H   0  0  0  0  0  0  0  0  0  0  0  0
   -1.9842   -2.6034    5.4458 H   0  0  0  0  0  0  0  0  0  0  0  0
   -2.6423   -2.3446    3.8193 H   0  0  0  0  0  0  0  0  0  0  0  0
    0.1229   -0.9508    6.4608 N   0  0  0  0  0  0  0  0  0  0  0  0
    1.2027   -0.9754    7.4197 C   0  0  0  0  0  0  0  0  0  0  0  0
   -0.8159   -0.7787    6.8085 H   0  0  0  0  0  0  0  0  0  0  0  0
    1.3385   -2.0009    7.7936 H   0  0  0  0  0  0  0  0  0  0  0  0
    2.1304   -0.6358    6.9358 H   0  0  0  0  0  0  0  0  0  0  0  0
    0.9619   -0.3077    8.2600 H   0  0  0  0  0  0  0  0  0  0  0  0
  1  3  1  0  0  0  0
  1  7  1  0  0  0  0
  1  2  2  0  0  0  0
 32 33  1  0  0  0  0
 33 41  1  0  0  0  0
 33 34  2  0  0  0  0
  8  9  1  0  0  0  0
  9 17  1  0  0  0  0
  9 10  2  0  0  0  0
 18 19  1  0  0  0  0
 19 31  1  0  0  0  0
 19 20  2  0  0  0  0
 32 35  1  0  0  0  0
  8 11  1  0  0  0  0
 21 23  1  0  0  0  0
 41 42  1  0  0  0  0
 31 32  1  0  0  0  0
  7  8  1  0  0  0  0
 18 21  1  0  0  0  0
 17 18  1  0  0  0  0
 21 22  1  0  0  0  0
  3  4  1  0  0  0  0
  3  5  1  0  0  0  0
  3  6  1  0  0  0  0
 35 38  1  0  0  0  0
 35 39  1  0  0  0  0
 35 40  1  0  0  0  0
 11 14  1  0  0  0  0
 11 15  1  0  0  0  0
 11 16  1  0  0  0  0
 23 28  1  0  0  0  0
 23 29  1  0  0  0  0
 23 30  1  0  0  0  0
 42 44  1  0  0  0  0
 42 45  1  0  0  0  0
 42 46  1  0  0  0  0
 32 37  1  0  0  0  0
  8 13  1  0  0  0  0
 18 25  1  0  0  0  0
 21 26  1  0  0  0  0
 41 43  1  0  0  0  0
  7 12  1  0  0  0  0
 31 36  1  0  0  0  0
 17 24  1  0  0  0  0
 22 27  1  0  0  0  0
M  END
$$$$

  -OEChem-05262214473D

 46 45  0     1  0  0  0  0  0999 V2000
   -4.6700    2.7214    1.5150 C   0  0  0  0  0  0  0  0  0  0  0  0
   -5.4532    2.5715    0.5845 O   0  0  0  0  0  0  0  0  0  0  0  0
   -5.0996    3.4865    2.7226 C   0  0  0  0  0  0  0  0  0  0  0  0
   -4.8796    4.5629    2.6387 H   0  0  0  0  0  0  0  0  0  0  0  0
   -6.1861    3.4241    2.8954 H   0  0  0  0  0  0  0  0  0  0  0  0
   -4.6369    3.1693    3.6708 H   0  0  0  0  0  0  0  0  0  0  0  0
   -3.3731    2.2391    1.5790 N   0  0  0  0  0  0  0  0  0  0  0  0
   -2.7599    1.4751    0.5247 C   0  0  2  0  0  0  0  0  0  0  0  0
   -1.5143    0.8067    1.0915 C   0  0  0  0  0  0  0  0  0  0  0  0
   -0.9247    1.2213    2.0872 O   0  0  0  0  0  0  0  0  0  0  0  0
   -2.4106    2.3553   -0.6653 C   0  0  0  0  0  0  0  0  0  0  0  0
   -2.8254    2.4352    2.4150 H   0  0  0  0  0  0  0  0  0  0  0  0
   -3.4836    0.7082    0.2278 H   0  0  0  0  0  0  0  0  0  0  0  0
   -1.6866    3.1298   -0.3871 H   0  0  0  0  0  0  0  0  0  0  0  0
   -1.9704    1.7677   -1.4777 H   0  0  0  0  0  0  0  0  0  0  0  0
   -3.3030    2.8584   -1.0531 H   0  0  0  0  0  0  0  0  0  0  0  0
   -1.1107   -0.2839    0.3303 N   0  0  0  0  0  0  0  0  0  0  0  0
    0.0490   -1.0750    0.6539 C   0  0  2  0  0  0  0  0  0  0  0  0
   -0.1690   -1.6649    2.0443 C   0  0  0  0  0  0  0  0  0  0  0  0
    0.2724   -2.7607    2.3843 O   0  0  0  0  0  0  0  0  0  0  0  0
    1.3561   -0.2724    0.5796 C   0  0  2  0  0  0  0  0  0  0  0  0
    1.3372    0.8102    1.5088 O   0  0  0  0  0  0  0  0  0  0  0  0
    1.5974    0.3092   -0.8081 C   0  0  0  0  0  0  0  0  0  0  0  0
   -1.6733   -0.5660   -0.4691 H   0  0  0  0  0  0  0  0  0  0  0  0
    0.0745   -1.8987   -0.0699 H   0  0  0  0  0  0  0  0  0  0  0  0
    2.2088   -0.9098    0.8406 H   0  0  0  0  0  0  0  0  0  0  0  0
    2.2032    1.2410    1.4461 H   0  0  0  0  0  0  0  0  0  0  0  0
    0.7711    0.9573   -1.1196 H   0  0  0  0  0  0  0  0  0  0  0  0
    1.7273   -0.4812   -1.5536 H   0  0  0  0  0  0  0  0  0  0  0  0
    2.4970    0.9345   -0.8050 H   0  0  0  0  0  0  0  0  0  0  0  0
   -0.9553   -0.8462    2.8426 N   0  0  0  0  0  0  0  0  0  0  0  0
   -1.3289   -1.2028    4.1911 C   0  0  2  0  0  0  0  0  0  0  0  0
   -0.1386   -0.9220    5.0988 C   0  0  0  0  0  0  0  0  0  0  0  0
    1.0183   -0.8599    4.6879 O   0  0  0  0  0  0  0  0  0  0  0  0
   -1.7492   -2.6615    4.2815 C   0  0  0  0  0  0  0  0  0  0  0  0
   -1.2806    0.0383    2.4636 H   0  0  0  0  0  0  0  0  0  0  0  0
   -2.1639   -0.5511    4.4707 H   0  0  0  0  0  0  0  0  0  0  0  0
   -0.9255   -3.3297    4.0049 H   0  0  0  0  0  0  0  0  0  0  0  0
   -2.0594   -2.9228    5.2986 H   0  0  0  0  0  0  0  0  0  0  0  0
   -2.5862   -2.8685    3.6059 H   0  0  0  0  0  0  0  0  0  0  0  0
   -0.5153   -0.7918    6.4282 N   0  0  0  0  0  0  0  0  0  0  0  0
    0.4340   -0.5350    7.4859 C   0  0  0  0  0  0  0  0  0  0  0  0
   -1.4993   -0.8391    6.6756 H   0  0  0  0  0  0  0  0  0  0  0  0
    0.7661   -1.4892    7.9209 H   0  0  0  0  0  0  0  0  0  0  0  0
    1.3018    0.0031    7.0769 H   0  0  0  0  0  0  0  0  0  0  0  0
   -0.0428    0.0770    8.2657 H   0  0  0  0  0  0  0  0  0  0  0  0
  1  3  1  0  0  0  0
  1  7  1  0  0  0  0
  1  2  2  0  0  0  0
 32 33  1  0  0  0  0
 33 41  1  0  0  0  0
 33 34  2  0  0  0  0
  8  9  1  0  0  0  0
  9 17  1  0  0  0  0
  9 10  2  0  0  0  0
 18 19  1  0  0  0  0
 19 31  1  0  0  0  0
 19 20  2  0  0  0  0
 32 35  1  0  0  0  0
  8 11  1  0  0  0  0
 21 23  1  0  0  0  0
 41 42  1  0  0  0  0
 31 32  1  0  0  0  0
  7  8  1  0  0  0  0
 18 21  1  0  0  0  0
 17 18  1  0  0  0  0
 21 22  1  0  0  0  0
  3  4  1  0  0  0  0
  3  5  1  0  0  0  0
  3  6  1  0  0  0  0
 35 38  1  0  0  0  0
 35 39  1  0  0  0  0
 35 40  1  0  0  0  0
 11 14  1  0  0  0  0
 11 15  1  0  0  0  0
 11 16  1  0  0  0  0
 23 28  1  0  0  0  0
 23 29  1  0  0  0  0
 23 30  1  0  0  0  0
 42 44  1  0  0  0  0
 42 45  1  0  0  0  0
 42 46  1  0  0  0  0
 32 37  1  0  0  0  0
  8 13  1  0  0  0  0
 18 25  1  0  0  0  0
 21 26  1  0  0  0  0
 41 43  1  0  0  0  0
  7 12  1  0  0  0  0
 31 36  1  0  0  0  0
 17 24  1  0  0  0  0
 22 27  1  0  0  0  0
M  END
$$$$

  -OEChem-05262214473D

 46 45  0     1  0  0  0  0  0999 V2000
   -4.6700    2.7214    1.5150 C   0  0  0  0  0  0  0  0  0  0  0  0
   -5.4532    2.5715    0.5845 O   0  0  0  0  0  0  0  0  0  0  0  0
   -5.0996    3.4865    2.7226 C   0  0  0  0  0  0  0  0  0  0  0  0
   -4.8796    4.5629    2.6387 H   0  0  0  0  0  0  0  0  0  0  0  0
   -6.1861    3.4241    2.8954 H   0  0  0  0  0  0  0  0  0  0  0  0
   -4.6369    3.1693    3.6708 H   0  0  0  0  0  0  0  0  0  0  0  0
   -3.3731    2.2391    1.5790 N   0  0  0  0  0  0  0  0  0  0  0  0
   -2.7599    1.4751    0.5247 C   0  0  2  0  0  0  0  0  0  0  0  0
   -1.5143    0.8067    1.0915 C   0  0  0  0  0  0  0  0  0  0  0  0
   -0.9247    1.2213    2.0872 O   0  0  0  0  0  0  0  0  0  0  0  0
   -2.4106    2.3553   -0.6653 C   0  0  0  0  0  0  0  0  0  0  0  0
   -2.8254    2.4352    2.4150 H   0  0  0  0  0  0  0  0  0  0  0  0
   -3.4836    0.7082    0.2278 H   0  0  0  0  0  0  0  0  0  0  0  0
   -1.6866    3.1298   -0.3871 H   0  0  0  0  0  0  0  0  0  0  0  0
   -1.9704    1.7677   -1.4777 H   0  0  0  0  0  0  0  0  0  0  0  0
   -3.3030    2.8584   -1.0531 H   0  0  0  0  0  0  0  0  0  0  0  0
   -1.1107   -0.2839    0.3303 N   0  0  0  0  0  0  0  0  0  0  0  0
    0.0490   -1.0750    0.6539 C   0  0  2  0  0  0  0  0  0  0  0  0
   -0.1690   -1.6649    2.0443 C   0  0  0  0  0  0  0  0  0  0  0  0
    0.4785   -2.6155    2.4782 O   0  0  0  0  0  0  0  0  0  0  0  0
    1.3561   -0.2724    0.5796 C   0  0  2  0  0  0  0  0  0  0  0  0
    1.3372    0.8102    1.5088 O   0  0  0  0  0  0  0  0  0  0  0  0
    1.5974    0.3092   -0.8081 C   0  0  0  0  0  0  0  0  0  0  0  0
   -1.6733   -0.5660   -0.4691 H   0  0  0  0  0  0  0  0  0  0  0  0
    0.0745   -1.8987   -0.0699 H   0  0  0  0  0  0  0  0  0  0  0  0
    2.2088   -0.9098    0.8406 H   0  0  0  0  0  0  0  0  0  0  0  0
    2.2032    1.2410    1.4461 H   0  0  0  0  0  0  0  0  0  0  0  0
    0.7711    0.9573   -1.1196 H   0  0  0  0  0  0  0  0  0  0  0  0
    1.7273   -0.4812   -1.5536 H   0  0  0  0  0  0  0  0  0  0  0  0
    2.4970    0.9345   -0.8050 H   0  0  0  0  0  0  0  0  0  0  0  0
   -1.2039   -1.0369    2.7227 N   0  0  0  0  0  0  0  0  0  0  0  0
   -1.6226   -1.4382    4.0452 C   0  0  2  0  0  0  0  0  0  0  0  0
   -0.6325   -0.8600    5.0476 C   0  0  0  0  0  0  0  0  0  0  0  0
    0.5141   -0.5349    4.7467 O   0  0  0  0  0  0  0  0  0  0  0  0
   -1.6971   -2.9523    4.1663 C   0  0  0  0  0  0  0  0  0  0  0  0
   -1.6857   -0.2648    2.2715 H   0  0  0  0  0  0  0  0  0  0  0  0
   -2.6114   -0.9969    4.2114 H   0  0  0  0  0  0  0  0  0  0  0  0
   -0.7156   -3.4123    4.0028 H   0  0  0  0  0  0  0  0  0  0  0  0
   -2.0421   -3.2544    5.1606 H   0  0  0  0  0  0  0  0  0  0  0  0
   -2.3871   -3.3692    3.4247 H   0  0  0  0  0  0  0  0  0  0  0  0
   -1.1660   -0.7899    6.3269 N   0  0  0  0  0  0  0  0  0  0  0  0
   -0.4190   -0.2885    7.4568 C   0  0  0  0  0  0  0  0  0  0  0  0
   -2.1320   -1.0636    6.4812 H   0  0  0  0  0  0  0  0  0  0  0  0
    0.0798   -1.1253    7.9677 H   0  0  0  0  0  0  0  0  0  0  0  0
    0.3367    0.4301    7.1067 H   0  0  0  0  0  0  0  0  0  0  0  0
   -1.1045    0.2120    8.1565 H   0  0  0  0  0  0  0  0  0  0  0  0
  1  3  1  0  0  0  0
  1  7  1  0  0  0  0
  1  2  2  0  0  0  0
 32 33  1  0  0  0  0
 33 41  1  0  0  0  0
 33 34  2  0  0  0  0
  8  9  1  0  0  0  0
  9 17  1  0  0  0  0
  9 10  2  0  0  0  0
 18 19  1  0  0  0  0
 19 31  1  0  0  0  0
 19 20  2  0  0  0  0
 32 35  1  0  0  0  0
  8 11  1  0  0  0  0
 21 23  1  0  0  0  0
 41 42  1  0  0  0  0
 31 32  1  0  0  0  0
  7  8  1  0  0  0  0
 18 21  1  0  0  0  0
 17 18  1  0  0  0  0
 21 22  1  0  0  0  0
  3  4  1  0  0  0  0
  3  5  1  0  0  0  0
  3  6  1  0  0  0  0
 35 38  1  0  0  0  0
 35 39  1  0  0  0  0
 35 40  1  0  0  0  0
 11 14  1  0  0  0  0
 11 15  1  0  0  0  0
 11 16  1  0  0  0  0
 23 28  1  0  0  0  0
 23 29  1  0  0  0  0
 23 30  1  0  0  0  0
 42 44  1  0  0  0  0
 42 45  1  0  0  0  0
 42 46  1  0  0  0  0
 32 37  1  0  0  0  0
  8 13  1  0  0  0  0
 18 25  1  0  0  0  0
 21 26  1  0  0  0  0
 41 43  1  0  0  0  0
  7 12  1  0  0  0  0
 31 36  1  0  0  0  0
 17 24  1  0  0  0  0
 22 27  1  0  0  0  0
M  END
$$$$

  -OEChem-05262214473D

 46 45  0     1  0  0  0  0  0999 V2000
   -4.6700    2.7214    1.5150 C   0  0  0  0  0  0  0  0  0  0  0  0
   -5.4532    2.5715    0.5845 O   0  0  0  0  0  0  0  0  0  0  0  0
   -5.0996    3.4865    2.7226 C   0  0  0  0  0  0  0  0  0  0  0  0
   -4.8796    4.5629    2.6387 H   0  0  0  0  0  0  0  0  0  0  0  0
   -6.1861    3.4241    2.8954 H   0  0  0  0  0  0  0  0  0  0  0  0
   -4.6369    3.1693    3.6708 H   0  0  0  0  0  0  0  0  0  0  0  0
   -3.3731    2.2391    1.5790 N   0  0  0  0  0  0  0  0  0  0  0  0
   -2.7599    1.4751    0.5247 C   0  0  2  0  0  0  0  0  0  0  0  0
   -1.5143    0.8067    1.0915 C   0  0  0  0  0  0  0  0  0  0  0  0
   -0.9247    1.2213    2.0872 O   0  0  0  0  0  0  0  0  0  0  0  0
   -2.4106    2.3553   -0.6653 C   0  0  0  0  0  0  0  0  0  0  0  0
   -2.8254    2.4352    2.4150 H   0  0  0  0  0  0  0  0  0  0  0  0
   -3.4836    0.7082    0.2278 H   0  0  0  0  0  0  0  0  0  0  0  0
   -1.6866    3.1298   -0.3871 H   0  0  0  0  0  0  0  0  0  0  0  0
   -1.9704    1.7677   -1.4777 H   0  0  0  0  0  0  0  0  0  0  0  0
   -3.3030    2.8584   -1.0531 H   0  0  0  0  0  0  0  0  0  0  0  0
   -1.1107   -0.2839    0.3303 N   0  0  0  0  0  0  0  0  0  0  0  0
    0.0490   -1.0750    0.6539 C   0  0  2  0  0  0  0  0  0  0  0  0
   -0.1690   -1.6649    2.0443 C   0  0  0  0  0  0  0  0  0  0  0  0
    0.6340   -2.4232    2.5841 O   0  0  0  0  0  0  0  0  0  0  0  0
    1.3561   -0.2724    0.5796 C   0  0  2  0  0  0  0  0  0  0  0  0
    1.3372    0.8102    1.5088 O   0  0  0  0  0  0  0  0  0  0  0  0
    1.5974    0.3092   -0.8081 C   0  0  0  0  0  0  0  0  0  0  0  0
   -1.6733   -0.5660   -0.4691 H   0  0  0  0  0  0  0  0  0  0  0  0
    0.0745   -1.8987   -0.0699 H   0  0  0  0  0  0  0  0  0  0  0  0
    2.2088   -0.9098    0.8406 H   0  0  0  0  0  0  0  0  0  0  0  0
    2.2032    1.2410    1.4461 H   0  0  0  0  0  0  0  0  0  0  0  0
    0.7711    0.9573   -1.1196 H   0  0  0  0  0  0  0  0  0  0  0  0
    1.7273   -0.4812   -1.5536 H   0  0  0  0  0  0  0  0  0  0  0  0
    2.4970    0.9345   -0.8050 H   0  0  0  0  0  0  0  0  0  0  0  0
   -1.3872   -1.2841    2.5891 N   0  0  0  0  0  0  0  0  0  0  0  0
   -1.8361   -1.7404    3.8835 C   0  0  2  0  0  0  0  0  0  0  0  0
   -1.1191   -0.9185    4.9465 C   0  0  0  0  0  0  0  0  0  0  0  0
   -0.0553   -0.3378    4.7411 O   0  0  0  0  0  0  0  0  0  0  0  0
   -1.5666   -3.2252    4.0709 C   0  0  0  0  0  0  0  0  0  0  0  0
   -1.9864   -0.6602    2.0566 H   0  0  0  0  0  0  0  0  0  0  0  0
   -2.9125   -1.5427    3.9327 H   0  0  0  0  0  0  0  0  0  0  0  0
   -0.4932   -3.4426    4.0248 H   0  0  0  0  0  0  0  0  0  0  0  0
   -1.9333   -3.5757    5.0414 H   0  0  0  0  0  0  0  0  0  0  0  0
   -2.0586   -3.8125    3.2881 H   0  0  0  0  0  0  0  0  0  0  0  0
   -1.7849   -0.9453    6.1640 N   0  0  0  0  0  0  0  0  0  0  0  0
   -1.2981   -0.2526    7.3341 C   0  0  0  0  0  0  0  0  0  0  0  0
   -2.6707   -1.4368    6.2384 H   0  0  0  0  0  0  0  0  0  0  0  0
   -0.6736   -0.9338    7.9308 H   0  0  0  0  0  0  0  0  0  0  0  0
   -0.6992    0.6160    7.0232 H   0  0  0  0  0  0  0  0  0  0  0  0
   -2.1509    0.0879    7.9397 H   0  0  0  0  0  0  0  0  0  0  0  0
  1  3  1  0  0  0  0
  1  7  1  0  0  0  0
  1  2  2  0  0  0  0
 32 33  1  0  0  0  0
 33 41  1  0  0  0  0
 33 34  2  0  0  0  0
  8  9  1  0  0  0  0
  9 17  1  0  0  0  0
  9 10  2  0  0  0  0
 18 19  1  0  0  0  0
 19 31  1  0  0  0  0
 19 20  2  0  0  0  0
 32 35  1  0  0  0  0
  8 11  1  0  0  0  0
 21 23  1  0  0  0  0
 41 42  1  0  0  0  0
 31 32  1  0  0  0  0
  7  8  1  0  0  0  0
 18 21  1  0  0  0  0
 17 18  1  0  0  0  0
 21 22  1  0  0  0  0
  3  4  1  0  0  0  0
  3  5  1  0  0  0  0
  3  6  1  0  0  0  0
 35 38  1  0  0  0  0
 35 39  1  0  0  0  0
 35 40  1  0  0  0  0
 11 14  1  0  0  0  0
 11 15  1  0  0  0  0
 11 16  1  0  0  0  0
 23 28  1  0  0  0  0
 23 29  1  0  0  0  0
 23 30  1  0  0  0  0
 42 44  1  0  0  0  0
 42 45  1  0  0  0  0
 42 46  1  0  0  0  0
 32 37  1  0  0  0  0
  8 13  1  0  0  0  0
 18 25  1  0  0  0  0
 21 26  1  0  0  0  0
 41 43  1  0  0  0  0
  7 12  1  0  0  0  0
 31 36  1  0  0  0  0
 17 24  1  0  0  0  0
 22 27  1  0  0  0  0
M  END
$$$$

  -OEChem-05262214473D

 46 45  0     1  0  0  0  0  0999 V2000
   -4.6700    2.7214    1.5150 C   0  0  0  0  0  0  0  0  0  0  0  0
   -5.4532    2.5715    0.5845 O   0  0  0  0  0  0  0  0  0  0  0  0
   -5.0996    3.4865    2.7226 C   0  0  0  0  0  0  0  0  0  0  0  0
   -4.8796    4.5629    2.6387 H   0  0  0  0  0  0  0  0  0  0  0  0
   -6.1861    3.4241    2.8954 H   0  0  0  0  0  0  0  0  0  0  0  0
   -4.6369    3.1693    3.6708 H   0  0  0  0  0  0  0  0  0  0  0  0
   -3.3731    2.2391    1.5790 N   0  0  0  0  0  0  0  0  0  0  0  0
   -2.7599    1.4751    0.5247 C   0  0  2  0  0  0  0  0  0  0  0  0
   -1.5143    0.8067    1.0915 C   0  0  0  0  0  0  0  0  0  0  0  0
   -0.9247    1.2213    2.0872 O   0  0  0  0  0  0  0  0  0  0  0  0
   -2.4106    2.3553   -0.6653 C   0  0  0  0  0  0  0  0  0  0  0  0
   -2.8254    2.4352    2.4150 H   0  0  0  0  0  0  0  0  0  0  0  0
   -3.4836    0.7082    0.2278 H   0  0  0  0  0  0  0  0  0  0  0  0
   -1.6866    3.1298   -0.3871 H   0  0  0  0  0  0  0  0  0  0  0  0
   -1.9704    1.7677   -1.4777 H   0  0  0  0  0  0  0  0  0  0  0  0
   -3.3030    2.8584   -1.0531 H   0  0  0  0  0  0  0  0  0  0  0  0
   -1.1107   -0.2839    0.3303 N   0  0  0  0  0  0  0  0  0  0  0  0
    0.0490   -1.0750    0.6539 C   0  0  2  0  0  0  0  0  0  0  0  0
   -0.1690   -1.6649    2.0443 C   0  0  0  0  0  0  0  0  0  0  0  0
    0.7282   -2.1968    2.6949 O   0  0  0  0  0  0  0  0  0  0  0  0
    1.3561   -0.2724    0.5796 C   0  0  2  0  0  0  0  0  0  0  0  0
    1.3372    0.8102    1.5088 O   0  0  0  0  0  0  0  0  0  0  0  0
    1.5974    0.3092   -0.8081 C   0  0  0  0  0  0  0  0  0  0  0  0
   -1.6733   -0.5660   -0.4691 H   0  0  0  0  0  0  0  0  0  0  0  0
    0.0745   -1.8987   -0.0699 H   0  0  0  0  0  0  0  0  0  0  0  0
    2.2088   -0.9098    0.8406 H   0  0  0  0  0  0  0  0  0  0  0  0
    2.2032    1.2410    1.4461 H   0  0  0  0  0  0  0  0  0  0  0  0
    0.7711    0.9573   -1.1196 H   0  0  0  0  0  0  0  0  0  0  0  0
    1.7273   -0.4812   -1.5536 H   0  0  0  0  0  0  0  0  0  0  0  0
    2.4970    0.9345   -0.8050 H   0  0  0  0  0  0  0  0  0  0  0  0
   -1.4925   -1.5711    2.4508 N   0  0  0  0  0  0  0  0  0  0  0  0
   -1.9550   -2.0885    3.7172 C   0  0  2  0  0  0  0  0  0  0  0  0
   -1.5652   -1.0935    4.8023 C   0  0  0  0  0  0  0  0  0  0  0  0
   -0.6513   -0.2819    4.6713 O   0  0  0  0  0  0  0  0  0  0  0  0
   -1.3666   -3.4616    4.0020 C   0  0  0  0  0  0  0  0  0  0  0  0
   -2.1620   -1.1210    1.8335 H   0  0  0  0  0  0  0  0  0  0  0  0
   -3.0468   -2.1512    3.6535 H   0  0  0  0  0  0  0  0  0  0  0  0
   -0.2734   -3.4187    4.0694 H   0  0  0  0  0  0  0  0  0  0  0  0
   -1.7405   -3.8648    4.9489 H   0  0  0  0  0  0  0  0  0  0  0  0
   -1.6230   -4.1684    3.2055 H   0  0  0  0  0  0  0  0  0  0  0  0
   -2.3297   -1.2474    5.9504 N   0  0  0  0  0  0  0  0  0  0  0  0
   -2.1435   -0.4298    7.1264 C   0  0  0  0  0  0  0  0  0  0  0  0
   -3.0787   -1.9333    5.9638 H   0  0  0  0  0  0  0  0  0  0  0  0
   -1.4428   -0.9279    7.8127 H   0  0  0  0  0  0  0  0  0  0  0  0
   -1.7352    0.5483    6.8320 H   0  0  0  0  0  0  0  0  0  0  0  0
   -3.1108   -0.2868    7.6303 H   0  0  0  0  0  0  0  0  0  0  0  0
  1  3  1  0  0  0  0
  1  7  1  0  0  0  0
  1  2  2  0  0  0  0
 32 33  1  0  0  0  0
 33 41  1  0  0  0  0
 33 34  2  0  0  0  0
  8  9  1  0  0  0  0
  9 17  1  0  0  0  0
  9 10  2  0  0  0  0
 18 19  1  0  0  0  0
 19 31  1  0  0  0  0
 19 20  2  0  0  0  0
 32 35  1  0  0  0  0
  8 11  1  0  0  0  0
 21 23  1  0  0  0  0
 41 42  1  0  0  0  0
 31 32  1  0  0  0  0
  7  8  1  0  0  0  0
 18 21  1  0  0  0  0
 17 18  1  0  0  0  0
 21 22  1  0  0  0  0
  3  4  1  0  0  0  0
  3  5  1  0  0  0  0
  3  6  1  0  0  0  0
 35 38  1  0  0  0  0
 35 39  1  0  0  0  0
 35 40  1  0  0  0  0
 11 14  1  0  0  0  0
 11 15  1  0  0  0  0
 11 16  1  0  0  0  0
 23 28  1  0  0  0  0
 23 29  1  0  0  0  0
 23 30  1  0  0  0  0
 42 44  1  0  0  0  0
 42 45  1  0  0  0  0
 42 46  1  0  0  0  0
 32 37  1  0  0  0  0
  8 13  1  0  0  0  0
 18 25  1  0  0  0  0
 21 26  1  0  0  0  0
 41 43  1  0  0  0  0
  7 12  1  0  0  0  0
 31 36  1  0  0  0  0
 17 24  1  0  0  0  0
 22 27  1  0  0  0  0
M  END
$$$$

  -OEChem-05262214473D

 46 45  0     1  0  0  0  0  0999 V2000
   -4.6700    2.7214    1.5150 C   0  0  0  0  0  0  0  0  0  0  0  0
   -5.4532    2.5715    0.5845 O   0  0  0  0  0  0  0  0  0  0  0  0
   -5.0996    3.4865    2.7226 C   0  0  0  0  0  0  0  0  0  0  0  0
   -4.8796    4.5629    2.6387 H   0  0  0  0  0  0  0  0  0  0  0  0
   -6.1861    3.4241    2.8954 H   0  0  0  0  0  0  0  0  0  0  0  0
   -4.6369    3.1693    3.6708 H   0  0  0  0  0  0  0  0  0  0  0  0
   -3.3731    2.2391    1.5790 N   0  0  0  0  0  0  0  0  0  0  0  0
   -2.7599    1.4751    0.5247 C   0  0  2  0  0  0  0  0  0  0  0  0
   -1.5143    0.8067    1.0915 C   0  0  0  0  0  0  0  0  0  0  0  0
   -0.9247    1.2213    2.0872 O   0  0  0  0  0  0  0  0  0  0  0  0
   -2.4106    2.3553   -0.6653 C   0  0  0  0  0  0  0  0  0  0  0  0
   -2.8254    2.4352    2.4150 H   0  0  0  0  0  0  0  0  0  0  0  0
   -3.4836    0.7082    0.2278 H   0  0  0  0  0  0  0  0  0  0  0  0
   -1.6866    3.1298   -0.3871 H   0  0  0  0  0  0  0  0  0  0  0  0
   -1.9704    1.7677   -1.4777 H   0  0  0  0  0  0  0  0  0  0  0  0
   -3.3030    2.8584   -1.0531 H   0  0  0  0  0  0  0  0  0  0  0  0
   -1.1107   -0.2839    0.3303 N   0  0  0  0  0  0  0  0  0  0  0  0
    0.0490   -1.0750    0.6539 C   0  0  2  0  0  0  0  0  0  0  0  0
   -0.1690   -1.6649    2.0443 C   0  0  0  0  0  0  0  0  0  0  0  0
    0.7547   -1.9519    2.8030 O   0  0  0  0  0  0  0  0  0  0  0  0
    1.3561   -0.2724    0.5796 C   0  0  2  0  0  0  0  0  0  0  0  0
    1.3372    0.8102    1.5088 O   0  0  0  0  0  0  0  0  0  0  0  0
    1.5974    0.3092   -0.8081 C   0  0  0  0  0  0  0  0  0  0  0  0
   -1.6733   -0.5660   -0.4691 H   0  0  0  0  0  0  0  0  0  0  0  0
    0.0745   -1.8987   -0.0699 H   0  0  0  0  0  0  0  0  0  0  0  0
    2.2088   -0.9098    0.8406 H   0  0  0  0  0  0  0  0  0  0  0  0
    2.2032    1.2410    1.4461 H   0  0  0  0  0  0  0  0  0  0  0  0
    0.7711    0.9573   -1.1196 H   0  0  0  0  0  0  0  0  0  0  0  0
    1.7273   -0.4812   -1.5536 H   0  0  0  0  0  0  0  0  0  0  0  0
    2.4970    0.9345   -0.8050 H   0  0  0  0  0  0  0  0  0  0  0  0
   -1.5127   -1.8783    2.3173 N   0  0  0  0  0  0  0  0  0  0  0  0
   -1.9711   -2.4590    3.5575 C   0  0  2  0  0  0  0  0  0  0  0  0
   -1.9405   -1.3731    4.6249 C   0  0  0  0  0  0  0  0  0  0  0  0
   -1.2332   -0.3710    4.5423 O   0  0  0  0  0  0  0  0  0  0  0  0
   -1.1109   -3.6453    3.9642 C   0  0  0  0  0  0  0  0  0  0  0  0
   -2.2007   -1.6158    1.6176 H   0  0  0  0  0  0  0  0  0  0  0  0
   -3.0051   -2.7810    3.3928 H   0  0  0  0  0  0  0  0  0  0  0  0
   -0.0712   -3.3421    4.1336 H   0  0  0  0  0  0  0  0  0  0  0  0
   -1.4769   -4.1020    4.8896 H   0  0  0  0  0  0  0  0  0  0  0  0
   -1.1102   -4.4124    3.1824 H   0  0  0  0  0  0  0  0  0  0  0  0
   -2.7633   -1.6755    5.7008 N   0  0  0  0  0  0  0  0  0  0  0  0
   -2.8975   -0.8080    6.8477 C   0  0  0  0  0  0  0  0  0  0  0  0
   -3.3283   -2.5192    5.6761 H   0  0  0  0  0  0  0  0  0  0  0  0
   -2.1753   -1.1079    7.6214 H   0  0  0  0  0  0  0  0  0  0  0  0
   -2.7009    0.2314    6.5461 H   0  0  0  0  0  0  0  0  0  0  0  0
   -3.9186   -0.8865    7.2492 H   0  0  0  0  0  0  0  0  0  0  0  0
  1  3  1  0  0  0  0
  1  7  1  0  0  0  0
  1  2  2  0  0  0  0
 32 33  1  0  0  0  0
 33 41  1  0  0  0  0
 33 34  2  0  0  0  0
  8  9  1  0  0  0  0
  9 17  1  0  0  0  0
  9 10  2  0  0  0  0
 18 19  1  0  0  0  0
 19 31  1  0  0  0  0
 19 20  2  0  0  0  0
 32 35  1  0  0  0  0
  8 11  1  0  0  0  0
 21 23  1  0  0  0  0
 41 42  1  0  0  0  0
 31 32  1  0  0  0  0
  7  8  1  0  0  0  0
 18 21  1  0  0  0  0
 17 18  1  0  0  0  0
 21 22  1  0  0  0  0
  3  4  1  0  0  0  0
  3  5  1  0  0  0  0
  3  6  1  0  0  0  0
 35 38  1  0  0  0  0
 35 39  1  0  0  0  0
 35 40  1  0  0  0  0
 11 14  1  0  0  0  0
 11 15  1  0  0  0  0
 11 16  1  0  0  0  0
 23 28  1  0  0  0  0
 23 29  1  0  0  0  0
 23 30  1  0  0  0  0
 42 44  1  0  0  0  0
 42 45  1  0  0  0  0
 42 46  1  0  0  0  0
 32 37  1  0  0  0  0
  8 13  1  0  0  0  0
 18 25  1  0  0  0  0
 21 26  1  0  0  0  0
 41 43  1  0  0  0  0
  7 12  1  0  0  0  0
 31 36  1  0  0  0  0
 17 24  1  0  0  0  0
 22 27  1  0  0  0  0
M  END
$$$$

  -OEChem-05262214473D

 46 45  0     1  0  0  0  0  0999 V2000
   -4.6700    2.7214    1.5150 C   0  0  0  0  0  0  0  0  0  0  0  0
   -5.4532    2.5715    0.5845 O   0  0  0  0  0  0  0  0  0  0  0  0
   -5.0996    3.4865    2.7226 C   0  0  0  0  0  0  0  0  0  0  0  0
   -4.8796    4.5629    2.6387 H   0  0  0  0  0  0  0  0  0  0  0  0
   -6.1861    3.4241    2.8954 H   0  0  0  0  0  0  0  0  0  0  0  0
   -4.6369    3.1693    3.6708 H   0  0  0  0  0  0  0  0  0  0  0  0
   -3.3731    2.2391    1.5790 N   0  0  0  0  0  0  0  0  0  0  0  0
   -2.7599    1.4751    0.5247 C   0  0  2  0  0  0  0  0  0  0  0  0
   -1.5143    0.8067    1.0915 C   0  0  0  0  0  0  0  0  0  0  0  0
   -0.9247    1.2213    2.0872 O   0  0  0  0  0  0  0  0  0  0  0  0
   -2.4106    2.3553   -0.6653 C   0  0  0  0  0  0  0  0  0  0  0  0
   -2.8254    2.4352    2.4150 H   0  0  0  0  0  0  0  0  0  0  0  0
   -3.4836    0.7082    0.2278 H   0  0  0  0  0  0  0  0  0  0  0  0
   -1.6866    3.1298   -0.3871 H   0  0  0  0  0  0  0  0  0  0  0  0
   -1.9704    1.7677   -1.4777 H   0  0  0  0  0  0  0  0  0  0  0  0
   -3.3030    2.8584   -1.0531 H   0  0  0  0  0  0  0  0  0  0  0  0
   -1.1107   -0.2839    0.3303 N   0  0  0  0  0  0  0  0  0  0  0  0
    0.0490   -1.0750    0.6539 C   0  0  2  0  0  0  0  0  0  0  0  0
   -0.1690   -1.6649    2.0443 C   0  0  0  0  0  0  0  0  0  0  0  0
    0.7117   -1.7050    2.9010 O   0  0  0  0  0  0  0  0  0  0  0  0
    1.3561   -0.2724    0.5796 C   0  0  2  0  0  0  0  0  0  0  0  0
    1.3372    0.8102    1.5088 O   0  0  0  0  0  0  0  0  0  0  0  0
    1.5974    0.3092   -0.8081 C   0  0  0  0  0  0  0  0  0  0  0  0
   -1.6733   -0.5660   -0.4691 H   0  0  0  0  0  0  0  0  0  0  0  0
    0.0745   -1.8987   -0.0699 H   0  0  0  0  0  0  0  0  0  0  0  0
    2.2088   -0.9098    0.8406 H   0  0  0  0  0  0  0  0  0  0  0  0
    2.2032    1.2410    1.4461 H   0  0  0  0  0  0  0  0  0  0  0  0
    0.7711    0.9573   -1.1196 H   0  0  0  0  0  0  0  0  0  0  0  0
    1.7273   -0.4812   -1.5536 H   0  0  0  0  0  0  0  0  0  0  0  0
    2.4970    0.9345   -0.8050 H   0  0  0  0  0  0  0  0  0  0  0  0
   -1.4465   -2.1847    2.1977 N   0  0  0  0  0  0  0  0  0  0  0  0
   -1.8832   -2.8265    3.4153 C   0  0  2  0  0  0  0  0  0  0  0  0
   -2.2192   -1.7381    4.4263 C   0  0  0  0  0  0  0  0  0  0  0  0
   -1.7614   -0.5991    4.3627 O   0  0  0  0  0  0  0  0  0  0  0  0
   -0.8167   -3.7638    3.9600 C   0  0  0  0  0  0  0  0  0  0  0  0
   -2.0998   -2.1108    1.4234 H   0  0  0  0  0  0  0  0  0  0  0  0
   -2.7902   -3.3891    3.1686 H   0  0  0  0  0  0  0  0  0  0  0  0
    0.0996   -3.2181    4.2130 H   0  0  0  0  0  0  0  0  0  0  0  0
   -1.1603   -4.2712    4.8675 H   0  0  0  0  0  0  0  0  0  0  0  0
   -0.5549   -4.5281    3.2204 H   0  0  0  0  0  0  0  0  0  0  0  0
   -3.0563   -2.2005    5.4321 N   0  0  0  0  0  0  0  0  0  0  0  0
   -3.5087   -1.3614    6.5171 C   0  0  0  0  0  0  0  0  0  0  0  0
   -3.4024   -3.1547    5.3949 H   0  0  0  0  0  0  0  0  0  0  0  0
   -2.8214   -1.4617    7.3701 H   0  0  0  0  0  0  0  0  0  0  0  0
   -3.5304   -0.3129    6.1851 H   0  0  0  0  0  0  0  0  0  0  0  0
   -4.5193   -1.6703    6.8225 H   0  0  0  0  0  0  0  0  0  0  0  0
  1  3  1  0  0  0  0
  1  7  1  0  0  0  0
  1  2  2  0  0  0  0
 32 33  1  0  0  0  0
 33 41  1  0  0  0  0
 33 34  2  0  0  0  0
  8  9  1  0  0  0  0
  9 17  1  0  0  0  0
  9 10  2  0  0  0  0
 18 19  1  0  0  0  0
 19 31  1  0  0  0  0
 19 20  2  0  0  0  0
 32 35  1  0  0  0  0
  8 11  1  0  0  0  0
 21 23  1  0  0  0  0
 41 42  1  0  0  0  0
 31 32  1  0  0  0  0
  7  8  1  0  0  0  0
 18 21  1  0  0  0  0
 17 18  1  0  0  0  0
 21 22  1  0  0  0  0
  3  4  1  0  0  0  0
  3  5  1  0  0  0  0
  3  6  1  0  0  0  0
 35 38  1  0  0  0  0
 35 39  1  0  0  0  0
 35 40  1  0  0  0  0
 11 14  1  0  0  0  0
 11 15  1  0  0  0  0
 11 16  1  0  0  0  0
 23 28  1  0  0  0  0
 23 29  1  0  0  0  0
 23 30  1  0  0  0  0
 42 44  1  0  0  0  0
 42 45  1  0  0  0  0
 42 46  1  0  0  0  0
 32 37  1  0  0  0  0
  8 13  1  0  0  0  0
 18 25  1  0  0  0  0
 21 26  1  0  0  0  0
 41 43  1  0  0  0  0
  7 12  1  0  0  0  0
 31 36  1  0  0  0  0
 17 24  1  0  0  0  0
 22 27  1  0  0  0  0
M  END
$$$$

  -OEChem-05262214473D

 46 45  0     1  0  0  0  0  0999 V2000
   -4.6700    2.7214    1.5150 C   0  0  0  0  0  0  0  0  0  0  0  0
   -5.4532    2.5715    0.5845 O   0  0  0  0  0  0  0  0  0  0  0  0
   -5.0996    3.4865    2.7226 C   0  0  0  0  0  0  0  0  0  0  0  0
   -4.8796    4.5629    2.6387 H   0  0  0  0  0  0  0  0  0  0  0  0
   -6.1861    3.4241    2.8954 H   0  0  0  0  0  0  0  0  0  0  0  0
   -4.6369    3.1693    3.6708 H   0  0  0  0  0  0  0  0  0  0  0  0
   -3.3731    2.2391    1.5790 N   0  0  0  0  0  0  0  0  0  0  0  0
   -2.7599    1.4751    0.5247 C   0  0  2  0  0  0  0  0  0  0  0  0
   -1.5143    0.8067    1.0915 C   0  0  0  0  0  0  0  0  0  0  0  0
   -0.9247    1.2213    2.0872 O   0  0  0  0  0  0  0  0  0  0  0  0
   -2.4106    2.3553   -0.6653 C   0  0  0  0  0  0  0  0  0  0  0  0
   -2.8254    2.4352    2.4150 H   0  0  0  0  0  0  0  0  0  0  0  0
   -3.4836    0.7082    0.2278 H   0  0  0  0  0  0  0  0  0  0  0  0
   -1.6866    3.1298   -0.3871 H   0  0  0  0  0  0  0  0  0  0  0  0
   -1.9704    1.7677   -1.4777 H   0  0  0  0  0  0  0  0  0  0  0  0
   -3.3030    2.8584   -1.0531 H   0  0  0  0  0  0  0  0  0  0  0  0
   -1.1107   -0.2839    0.3303 N   0  0  0  0  0  0  0  0  0  0  0  0
    0.0490   -1.0750    0.6539 C   0  0  2  0  0  0  0  0  0  0  0  0
   -0.1690   -1.6649    2.0443 C   0  0  0  0  0  0  0  0  0  0  0  0
    0.6022   -1.4731    2.9822 O   0  0  0  0  0  0  0  0  0  0  0  0
    1.3561   -0.2724    0.5796 C   0  0  2  0  0  0  0  0  0  0  0  0
    1.3372    0.8102    1.5088 O   0  0  0  0  0  0  0  0  0  0  0  0
    1.5974    0.3092   -0.8081 C   0  0  0  0  0  0  0  0  0  0  0  0
   -1.6733   -0.5660   -0.4691 H   0  0  0  0  0  0  0  0  0  0  0  0
    0.0745   -1.8987   -0.0699 H   0  0  0  0  0  0  0  0  0  0  0  0
    2.2088   -0.9098    0.8406 H   0  0  0  0  0  0  0  0  0  0  0  0
    2.2032    1.2410    1.4461 H   0  0  0  0  0  0  0  0  0  0  0  0
    0.7711    0.9573   -1.1196 H   0  0  0  0  0  0  0  0  0  0  0  0
    1.7273   -0.4812   -1.5536 H   0  0  0  0  0  0  0  0  0  0  0  0
    2.4970    0.9345   -0.8050 H   0  0  0  0  0  0  0  0  0  0  0  0
   -1.2983   -2.4694    2.1002 N   0  0  0  0  0  0  0  0  0  0  0  0
   -1.6975   -3.1661    3.3004 C   0  0  2  0  0  0  0  0  0  0  0  0
   -2.3825   -2.1638    4.2201 C   0  0  0  0  0  0  0  0  0  0  0  0
   -2.1998   -0.9506    4.1448 O   0  0  0  0  0  0  0  0  0  0  0  0
   -0.5042   -3.8091    3.9898 C   0  0  0  0  0  0  0  0  0  0  0  0
   -1.8662   -2.5724    1.2642 H   0  0  0  0  0  0  0  0  0  0  0  0
   -2.4168   -3.9341    2.9959 H   0  0  0  0  0  0  0  0  0  0  0  0
    0.2274   -3.0550    4.3022 H   0  0  0  0  0  0  0  0  0  0  0  0
   -0.8125   -4.3608    4.8841 H   0  0  0  0  0  0  0  0  0  0  0  0
    0.0049   -4.5074    3.3169 H   0  0  0  0  0  0  0  0  0  0  0  0
   -3.1885   -2.7867    5.1627 N   0  0  0  0  0  0  0  0  0  0  0  0
   -3.9355   -2.0523    6.1571 C   0  0  0  0  0  0  0  0  0  0  0  0
   -3.2960   -3.7965    5.1393 H   0  0  0  0  0  0  0  0  0  0  0  0
   -3.3368   -1.9650    7.0757 H   0  0  0  0  0  0  0  0  0  0  0  0
   -4.1671   -1.0477    5.7736 H   0  0  0  0  0  0  0  0  0  0  0  0
   -4.8721   -2.5848    6.3792 H   0  0  0  0  0  0  0  0  0  0  0  0
  1  3  1  0  0  0  0
  1  7  1  0  0  0  0
  1  2  2  0  0  0  0
 32 33  1  0  0  0  0
 33 41  1  0  0  0  0
 33 34  2  0  0  0  0
  8  9  1  0  0  0  0
  9 17  1  0  0  0  0
  9 10  2  0  0  0  0
 18 19  1  0  0  0  0
 19 31  1  0  0  0  0
 19 20  2  0  0  0  0
 32 35  1  0  0  0  0
  8 11  1  0  0  0  0
 21 23  1  0  0  0  0
 41 42  1  0  0  0  0
 31 32  1  0  0  0  0
  7  8  1  0  0  0  0
 18 21  1  0  0  0  0
 17 18  1  0  0  0  0
 21 22  1  0  0  0  0
  3  4  1  0  0  0  0
  3  5  1  0  0  0  0
  3  6  1  0  0  0  0
 35 38  1  0  0  0  0
 35 39  1  0  0  0  0
 35 40  1  0  0  0  0
 11 14  1  0  0  0  0
 11 15  1  0  0  0  0
 11 16  1  0  0  0  0
 23 28  1  0  0  0  0
 23 29  1  0  0  0  0
 23 30  1  0  0  0  0
 42 44  1  0  0  0  0
 42 45  1  0  0  0  0
 42 46  1  0  0  0  0
 32 37  1  0  0  0  0
  8 13  1  0  0  0  0
 18 25  1  0  0  0  0
 21 26  1  0  0  0  0
 41 43  1  0  0  0  0
  7 12  1  0  0  0  0
 31 36  1  0  0  0  0
 17 24  1  0  0  0  0
 22 27  1  0  0  0  0
M  END
$$$$

  -OEChem-05262214473D

 46 45  0     1  0  0  0  0  0999 V2000
   -4.6700    2.7214    1.5150 C   0  0  0  0  0  0  0  0  0  0  0  0
   -5.4532    2.5715    0.5845 O   0  0  0  0  0  0  0  0  0  0  0  0
   -5.0996    3.4865    2.7226 C   0  0  0  0  0  0  0  0  0  0  0  0
   -4.8796    4.5629    2.6387 H   0  0  0  0  0  0  0  0  0  0  0  0
   -6.1861    3.4241    2.8954 H   0  0  0  0  0  0  0  0  0  0  0  0
   -4.6369    3.1693    3.6708 H   0  0  0  0  0  0  0  0  0  0  0  0
   -3.3731    2.2391    1.5790 N   0  0  0  0  0  0  0  0  0  0  0  0
   -2.7599    1.4751    0.5247 C   0  0  2  0  0  0  0  0  0  0  0  0
   -1.5143    0.8067    1.0915 C   0  0  0  0  0  0  0  0  0  0  0  0
   -0.9247    1.2213    2.0872 O   0  0  0  0  0  0  0  0  0  0  0  0
   -2.4106    2.3553   -0.6653 C   0  0  0  0  0  0  0  0  0  0  0  0
   -2.8254    2.4352    2.4150 H   0  0  0  0  0  0  0  0  0  0  0  0
   -3.4836    0.7082    0.2278 H   0  0  0  0  0  0  0  0  0  0  0  0
   -1.6866    3.1298   -0.3871 H   0  0  0  0  0  0  0  0  0  0  0  0
   -1.9704    1.7677   -1.4777 H   0  0  0  0  0  0  0  0  0  0  0  0
   -3.3030    2.8584   -1.0531 H   0  0  0  0  0  0  0  0  0  0  0  0
   -1.1107   -0.2839    0.3303 N   0  0  0  0  0  0  0  0  0  0  0  0
    0.0490   -1.0750    0.6539 C   0  0  2  0  0  0  0  0  0  0  0  0
   -0.1690   -1.6649    2.0443 C   0  0  0  0  0  0  0  0  0  0  0  0
    0.4336   -1.2719    3.0411 O   0  0  0  0  0  0  0  0  0  0  0  0
    1.3561   -0.2724    0.5796 C   0  0  2  0  0  0  0  0  0  0  0  0
    1.3372    0.8102    1.5088 O   0  0  0  0  0  0  0  0  0  0  0  0
    1.5974    0.3092   -0.8081 C   0  0  0  0  0  0  0  0  0  0  0  0
   -1.6733   -0.5660   -0.4691 H   0  0  0  0  0  0  0  0  0  0  0  0
    0.0745   -1.8987   -0.0699 H   0  0  0  0  0  0  0  0  0  0  0  0
    2.2088   -0.9098    0.8406 H   0  0  0  0  0  0  0  0  0  0  0  0
    2.2032    1.2410    1.4461 H   0  0  0  0  0  0  0  0  0  0  0  0
    0.7711    0.9573   -1.1196 H   0  0  0  0  0  0  0  0  0  0  0  0
    1.7273   -0.4812   -1.5536 H   0  0  0  0  0  0  0  0  0  0  0  0
    2.4970    0.9345   -0.8050 H   0  0  0  0  0  0  0  0  0  0  0  0
   -1.0782   -2.7131    2.0313 N   0  0  0  0  0  0  0  0  0  0  0  0
   -1.4265   -3.4545    3.2205 C   0  0  2  0  0  0  0  0  0  0  0  0
   -2.4192   -2.6212    4.0203 C   0  0  0  0  0  0  0  0  0  0  0  0
   -2.5186   -1.4015    3.9035 O   0  0  0  0  0  0  0  0  0  0  0  0
   -0.1947   -3.7780    4.0516 C   0  0  0  0  0  0  0  0  0  0  0  0
   -1.5157   -2.9690    1.1509 H   0  0  0  0  0  0  0  0  0  0  0  0
   -1.9103   -4.3789    2.8866 H   0  0  0  0  0  0  0  0  0  0  0  0
    0.3035   -2.8641    4.3951 H   0  0  0  0  0  0  0  0  0  0  0  0
   -0.4570   -4.3647    4.9381 H   0  0  0  0  0  0  0  0  0  0  0  0
    0.5312   -4.3519    3.4654 H   0  0  0  0  0  0  0  0  0  0  0  0
   -3.1511   -3.3940    4.9109 N   0  0  0  0  0  0  0  0  0  0  0  0
   -4.1489   -2.8337    5.7922 C   0  0  0  0  0  0  0  0  0  0  0  0
   -3.0164   -4.4007    4.9268 H   0  0  0  0  0  0  0  0  0  0  0  0
   -3.6865   -2.5836    6.7584 H   0  0  0  0  0  0  0  0  0  0  0  0
   -4.5676   -1.9228    5.3395 H   0  0  0  0  0  0  0  0  0  0  0  0
   -4.9528   -3.5678    5.9495 H   0  0  0  0  0  0  0  0  0  0  0  0
  1  3  1  0  0  0  0
  1  7  1  0  0  0  0
  1  2  2  0  0  0  0
 32 33  1  0  0  0  0
 33 41  1  0  0  0  0
 33 34  2  0  0  0  0
  8  9  1  0  0  0  0
  9 17  1  0  0  0  0
  9 10  2  0  0  0  0
 18 19  1  0  0  0  0
 19 31  1  0  0  0  0
 19 20  2  0  0  0  0
 32 35  1  0  0  0  0
  8 11  1  0  0  0  0
 21 23  1  0  0  0  0
 41 42  1  0  0  0  0
 31 32  1  0  0  0  0
  7  8  1  0  0  0  0
 18 21  1  0  0  0  0
 17 18  1  0  0  0  0
 21 22  1  0  0  0  0
  3  4  1  0  0  0  0
  3  5  1  0  0  0  0
  3  6  1  0  0  0  0
 35 38  1  0  0  0  0
 35 39  1  0  0  0  0
 35 40  1  0  0  0  0
 11 14  1  0  0  0  0
 11 15  1  0  0  0  0
 11 16  1  0  0  0  0
 23 28  1  0  0  0  0
 23 29  1  0  0  0  0
 23 30  1  0  0  0  0
 42 44  1  0  0  0  0
 42 45  1  0  0  0  0
 42 46  1  0  0  0  0
 32 37  1  0  0  0  0
  8 13  1  0  0  0  0
 18 25  1  0  0  0  0
 21 26  1  0  0  0  0
 41 43  1  0  0  0  0
  7 12  1  0  0  0  0
 31 36  1  0  0  0  0
 17 24  1  0  0  0  0
 22 27  1  0  0  0  0
M  END
$$$$

  -OEChem-05262214473D

 46 45  0     1  0  0  0  0  0999 V2000
   -4.6700    2.7214    1.5150 C   0  0  0  0  0  0  0  0  0  0  0  0
   -5.4532    2.5715    0.5845 O   0  0  0  0  0  0  0  0  0  0  0  0
   -5.0996    3.4865    2.7226 C   0  0  0  0  0  0  0  0  0  0  0  0
   -4.8796    4.5629    2.6387 H   0  0  0  0  0  0  0  0  0  0  0  0
   -6.1861    3.4241    2.8954 H   0  0  0  0  0  0  0  0  0  0  0  0
   -4.6369    3.1693    3.6708 H   0  0  0  0  0  0  0  0  0  0  0  0
   -3.3731    2.2391    1.5790 N   0  0  0  0  0  0  0  0  0  0  0  0
   -2.7599    1.4751    0.5247 C   0  0  2  0  0  0  0  0  0  0  0  0
   -1.5143    0.8067    1.0915 C   0  0  0  0  0  0  0  0  0  0  0  0
   -0.9247    1.2213    2.0872 O   0  0  0  0  0  0  0  0  0  0  0  0
   -2.4106    2.3553   -0.6653 C   0  0  0  0  0  0  0  0  0  0  0  0
   -2.8254    2.4352    2.4150 H   0  0  0  0  0  0  0  0  0  0  0  0
   -3.4836    0.7082    0.2278 H   0  0  0  0  0  0  0  0  0  0  0  0
   -1.6866    3.1298   -0.3871 H   0  0  0  0  0  0  0  0  0  0  0  0
   -1.9704    1.7677   -1.4777 H   0  0  0  0  0  0  0  0  0  0  0  0
   -3.3030    2.8584   -1.0531 H   0  0  0  0  0  0  0  0  0  0  0  0
   -1.1107   -0.2839    0.3303 N   0  0  0  0  0  0  0  0  0  0  0  0
    0.0490   -1.0750    0.6539 C   0  0  2  0  0  0  0  0  0  0  0  0
   -0.1690   -1.6649    2.0443 C   0  0  0  0  0  0  0  0  0  0  0  0
    0.2175   -1.1152    3.0737 O   0  0  0  0  0  0  0  0  0  0  0  0
    1.3561   -0.2724    0.5796 C   0  0  2  0  0  0  0  0  0  0  0  0
    1.3372    0.8102    1.5088 O   0  0  0  0  0  0  0  0  0  0  0  0
    1.5974    0.3092   -0.8081 C   0  0  0  0  0  0  0  0  0  0  0  0
   -1.6733   -0.5660   -0.4691 H   0  0  0  0  0  0  0  0  0  0  0  0
    0.0745   -1.8987   -0.0699 H   0  0  0  0  0  0  0  0  0  0  0  0
    2.2088   -0.9098    0.8406 H   0  0  0  0  0  0  0  0  0  0  0  0
    2.2032    1.2410    1.4461 H   0  0  0  0  0  0  0  0  0  0  0  0
    0.7711    0.9573   -1.1196 H   0  0  0  0  0  0  0  0  0  0  0  0
    1.7273   -0.4812   -1.5536 H   0  0  0  0  0  0  0  0  0  0  0  0
    2.4970    0.9345   -0.8050 H   0  0  0  0  0  0  0  0  0  0  0  0
   -0.8013   -2.8992    1.9958 N   0  0  0  0  0  0  0  0  0  0  0  0
   -1.0888   -3.6722    3.1812 C   0  0  2  0  0  0  0  0  0  0  0  0
   -2.3268   -3.0790    3.8406 C   0  0  0  0  0  0  0  0  0  0  0  0
   -2.6960   -1.9212    3.6553 O   0  0  0  0  0  0  0  0  0  0  0  0
    0.0908   -3.6727    4.1410 C   0  0  0  0  0  0  0  0  0  0  0  0
   -1.0724   -3.2736    1.0912 H   0  0  0  0  0  0  0  0  0  0  0  0
   -1.3053   -4.6931    2.8482 H   0  0  0  0  0  0  0  0  0  0  0  0
    0.3227   -2.6583    4.4854 H   0  0  0  0  0  0  0  0  0  0  0  0
   -0.1182   -4.2826    5.0261 H   0  0  0  0  0  0  0  0  0  0  0  0
    0.9879   -4.0721    3.6557 H   0  0  0  0  0  0  0  0  0  0  0  0
   -2.9466   -3.9812    4.6939 N   0  0  0  0  0  0  0  0  0  0  0  0
   -4.1342   -3.6522    5.4472 C   0  0  0  0  0  0  0  0  0  0  0  0
   -2.5825   -4.9262    4.7719 H   0  0  0  0  0  0  0  0  0  0  0  0
   -3.8467   -3.2754    6.4399 H   0  0  0  0  0  0  0  0  0  0  0  0
   -4.7048   -2.8785    4.9126 H   0  0  0  0  0  0  0  0  0  0  0  0
   -4.7559   -4.5522    5.5628 H   0  0  0  0  0  0  0  0  0  0  0  0
  1  3  1  0  0  0  0
  1  7  1  0  0  0  0
  1  2  2  0  0  0  0
 32 33  1  0  0  0  0
 33 41  1  0  0  0  0
 33 34  2  0  0  0  0
  8  9  1  0  0  0  0
  9 17  1  0  0  0  0
  9 10  2  0  0  0  0
 18 19  1  0  0  0  0
 19 31  1  0  0  0  0
 19 20  2  0  0  0  0
 32 35  1  0  0  0  0
  8 11  1  0  0  0  0
 21 23  1  0  0  0  0
 41 42  1  0  0  0  0
 31 32  1  0  0  0  0
  7  8  1  0  0  0  0
 18 21  1  0  0  0  0
 17 18  1  0  0  0  0
 21 22  1  0  0  0  0
  3  4  1  0  0  0  0
  3  5  1  0  0  0  0
  3  6  1  0  0  0  0
 35 38  1  0  0  0  0
 35 39  1  0  0  0  0
 35 40  1  0  0  0  0
 11 14  1  0  0  0  0
 11 15  1  0  0  0  0
 11 16  1  0  0  0  0
 23 28  1  0  0  0  0
 23 29  1  0  0  0  0
 23 30  1  0  0  0  0
 42 44  1  0  0  0  0
 42 45  1  0  0  0  0
 42 46  1  0  0  0  0
 32 37  1  0  0  0  0
  8 13  1  0  0  0  0
 18 25  1  0  0  0  0
 21 26  1  0  0  0  0
 41 43  1  0  0  0  0
  7 12  1  0  0  0  0
 31 36  1  0  0  0  0
 17 24  1  0  0  0  0
 22 27  1  0  0  0  0
M  END
$$$$

  -OEChem-05262214473D

 46 45  0     1  0  0  0  0  0999 V2000
   -4.6700    2.7214    1.5150 C   0  0  0  0  0  0  0  0  0  0  0  0
   -5.4532    2.5715    0.5845 O   0  0  0  0  0  0  0  0  0  0  0  0
   -5.0996    3.4865    2.7226 C   0  0  0  0  0  0  0  0  0  0  0  0
   -4.8796    4.5629    2.6387 H   0  0  0  0  0  0  0  0  0  0  0  0
   -6.1861    3.4241    2.8954 H   0  0  0  0  0  0  0  0  0  0  0  0
   -4.6369    3.1693    3.6708 H   0  0  0  0  0  0  0  0  0  0  0  0
   -3.3731    2.2391    1.5790 N   0  0  0  0  0  0  0  0  0  0  0  0
   -2.7599    1.4751    0.5247 C   0  0  2  0  0  0  0  0  0  0  0  0
   -1.5143    0.8067    1.0915 C   0  0  0  0  0  0  0  0  0  0  0  0
   -0.9247    1.2213    2.0872 O   0  0  0  0  0  0  0  0  0  0  0  0
   -2.4106    2.3553   -0.6653 C   0  0  0  0  0  0  0  0  0  0  0  0
   -2.8254    2.4352    2.4150 H   0  0  0  0  0  0  0  0  0  0  0  0
   -3.4836    0.7082    0.2278 H   0  0  0  0  0  0  0  0  0  0  0  0
   -1.6866    3.1298   -0.3871 H   0  0  0  0  0  0  0  0  0  0  0  0
   -1.9704    1.7677   -1.4777 H   0  0  0  0  0  0  0  0  0  0  0  0
   -3.3030    2.8584   -1.0531 H   0  0  0  0  0  0  0  0  0  0  0  0
   -1.1107   -0.2839    0.3303 N   0  0  0  0  0  0  0  0  0  0  0  0
    0.0490   -1.0750    0.6539 C   0  0  2  0  0  0  0  0  0  0  0  0
   -0.1690   -1.6649    2.0443 C   0  0  0  0  0  0  0  0  0  0  0  0
   -0.0316   -1.0135    3.0778 O   0  0  0  0  0  0  0  0  0  0  0  0
    1.3561   -0.2724    0.5796 C   0  0  2  0  0  0  0  0  0  0  0  0
    1.3372    0.8102    1.5088 O   0  0  0  0  0  0  0  0  0  0  0  0
    1.5974    0.3092   -0.8081 C   0  0  0  0  0  0  0  0  0  0  0  0
   -1.6733   -0.5660   -0.4691 H   0  0  0  0  0  0  0  0  0  0  0  0
    0.0745   -1.8987   -0.0699 H   0  0  0  0  0  0  0  0  0  0  0  0
    2.2088   -0.9098    0.8406 H   0  0  0  0  0  0  0  0  0  0  0  0
    2.2032    1.2410    1.4461 H   0  0  0  0  0  0  0  0  0  0  0  0
    0.7711    0.9573   -1.1196 H   0  0  0  0  0  0  0  0  0  0  0  0
    1.7273   -0.4812   -1.5536 H   0  0  0  0  0  0  0  0  0  0  0  0
    2.4970    0.9345   -0.8050 H   0  0  0  0  0  0  0  0  0  0  0  0
   -0.4863   -3.0149    1.9961 N   0  0  0  0  0  0  0  0  0  0  0  0
   -0.7073   -3.8042    3.1850 C   0  0  2  0  0  0  0  0  0  0  0  0
   -2.1117   -3.5061    3.6932 C   0  0  0  0  0  0  0  0  0  0  0  0
   -2.7200   -2.4742    3.4169 O   0  0  0  0  0  0  0  0  0  0  0  0
    0.3328   -3.5004    4.2520 C   0  0  0  0  0  0  0  0  0  0  0  0
   -0.5663   -3.4655    1.0892 H   0  0  0  0  0  0  0  0  0  0  0  0
   -0.6429   -4.8553    2.8832 H   0  0  0  0  0  0  0  0  0  0  0  0
    0.2836   -2.4517    4.5670 H   0  0  0  0  0  0  0  0  0  0  0  0
    0.1810   -4.1202    5.1419 H   0  0  0  0  0  0  0  0  0  0  0  0
    1.3441   -3.6871    3.8749 H   0  0  0  0  0  0  0  0  0  0  0  0
   -2.5888   -4.5081    4.5265 N   0  0  0  0  0  0  0  0  0  0  0  0
   -3.8924   -4.4521    5.1458 C   0  0  0  0  0  0  0  0  0  0  0  0
   -2.0239   -5.3372    4.6852 H   0  0  0  0  0  0  0  0  0  0  0  0
   -3.8064   -3.9931    6.1417 H   0  0  0  0  0  0  0  0  0  0  0  0
   -4.5691   -3.8499    4.5218 H   0  0  0  0  0  0  0  0  0  0  0  0
   -4.2949   -5.4710    5.2453 H   0  0  0  0  0  0  0  0  0  0  0  0
  1  3  1  0  0  0  0
  1  7  1  0  0  0  0
  1  2  2  0  0  0  0
 32 33  1  0  0  0  0
 33 41  1  0  0  0  0
 33 34  2  0  0  0  0
  8  9  1  0  0  0  0
  9 17  1  0  0  0  0
  9 10  2  0  0  0  0
 18 19  1  0  0  0  0
 19 31  1  0  0  0  0
 19 20  2  0  0  0  0
 32 35  1  0  0  0  0
  8 11  1  0  0  0  0
 21 23  1  0  0  0  0
 41 42  1  0  0  0  0
 31 32  1  0  0  0  0
  7  8  1  0  0  0  0
 18 21  1  0  0  0  0
 17 18  1  0  0  0  0
 21 22  1  0  0  0  0
  3  4  1  0  0  0  0
  3  5  1  0  0  0  0
  3  6  1  0  0  0  0
 35 38  1  0  0  0  0
 35 39  1  0  0  0  0
 35 40  1  0  0  0  0
 11 14  1  0  0  0  0
 11 15  1  0  0  0  0
 11 16  1  0  0  0  0
 23 28  1  0  0  0  0
 23 29  1  0  0  0  0
 23 30  1  0  0  0  0
 42 44  1  0  0  0  0
 42 45  1  0  0  0  0
 42 46  1  0  0  0  0
 32 37  1  0  0  0  0
  8 13  1  0  0  0  0
 18 25  1  0  0  0  0
 21 26  1  0  0  0  0
 41 43  1  0  0  0  0
  7 12  1  0  0  0  0
 31 36  1  0  0  0  0
 17 24  1  0  0  0  0
 22 27  1  0  0  0  0
M  END
$$$$

  -OEChem-05262214473D

 46 45  0     1  0  0  0  0  0999 V2000
   -4.6700    2.7214    1.5150 C   0  0  0  0  0  0  0  0  0  0  0  0
   -5.4532    2.5715    0.5845 O   0  0  0  0  0  0  0  0  0  0  0  0
   -5.0996    3.4865    2.7226 C   0  0  0  0  0  0  0  0  0  0  0  0
   -4.8796    4.5629    2.6387 H   0  0  0  0  0  0  0  0  0  0  0  0
   -6.1861    3.4241    2.8954 H   0  0  0  0  0  0  0  0  0  0  0  0
   -4.6369    3.1693    3.6708 H   0  0  0  0  0  0  0  0  0  0  0  0
   -3.3731    2.2391    1.5790 N   0  0  0  0  0  0  0  0  0  0  0  0
   -2.7599    1.4751    0.5247 C   0  0  2  0  0  0  0  0  0  0  0  0
   -1.5143    0.8067    1.0915 C   0  0  0  0  0  0  0  0  0  0  0  0
   -0.9247    1.2213    2.0872 O   0  0  0  0  0  0  0  0  0  0  0  0
   -2.4106    2.3553   -0.6653 C   0  0  0  0  0  0  0  0  0  0  0  0
   -2.8254    2.4352    2.4150 H   0  0  0  0  0  0  0  0  0  0  0  0
   -3.4836    0.7082    0.2278 H   0  0  0  0  0  0  0  0  0  0  0  0
   -1.6866    3.1298   -0.3871 H   0  0  0  0  0  0  0  0  0  0  0  0
   -1.9704    1.7677   -1.4777 H   0  0  0  0  0  0  0  0  0  0  0  0
   -3.3030    2.8584   -1.0531 H   0  0  0  0  0  0  0  0  0  0  0  0
   -1.1107   -0.2839    0.3303 N   0  0  0  0  0  0  0  0  0  0  0  0
    0.0490   -1.0750    0.6539 C   0  0  2  0  0  0  0  0  0  0  0  0
   -0.1690   -1.6649    2.0443 C   0  0  0  0  0  0  0  0  0  0  0  0
   -0.2965   -0.9739    3.0530 O   0  0  0  0  0  0  0  0  0  0  0  0
    1.3561   -0.2724    0.5796 C   0  0  2  0  0  0  0  0  0  0  0  0
    1.3372    0.8102    1.5088 O   0  0  0  0  0  0  0  0  0  0  0  0
    1.5974    0.3092   -0.8081 C   0  0  0  0  0  0  0  0  0  0  0  0
   -1.6733   -0.5660   -0.4691 H   0  0  0  0  0  0  0  0  0  0  0  0
    0.0745   -1.8987   -0.0699 H   0  0  0  0  0  0  0  0  0  0  0  0
    2.2088   -0.9098    0.8406 H   0  0  0  0  0  0  0  0  0  0  0  0
    2.2032    1.2410    1.4461 H   0  0  0  0  0  0  0  0  0  0  0  0
    0.7711    0.9573   -1.1196 H   0  0  0  0  0  0  0  0  0  0  0  0
    1.7273   -0.4812   -1.5536 H   0  0  0  0  0  0  0  0  0  0  0  0
    2.4970    0.9345   -0.8050 H   0  0  0  0  0  0  0  0  0  0  0  0
   -0.1549   -3.0524    2.0321 N   0  0  0  0  0  0  0  0  0  0  0  0
   -0.3080   -3.8417    3.2317 C   0  0  2  0  0  0  0  0  0  0  0  0
   -1.7884   -3.8733    3.5881 C   0  0  0  0  0  0  0  0  0  0  0  0
   -2.5889   -3.0228    3.2047 O   0  0  0  0  0  0  0  0  0  0  0  0
    0.5148   -3.2728    4.3772 C   0  0  0  0  0  0  0  0  0  0  0  0
   -0.0320   -3.5316    1.1449 H   0  0  0  0  0  0  0  0  0  0  0  0
    0.0316   -4.8546    2.9893 H   0  0  0  0  0  0  0  0  0  0  0  0
    0.1890   -2.2583    4.6342 H   0  0  0  0  0  0  0  0  0  0  0  0
    0.4201   -3.8884    5.2777 H   0  0  0  0  0  0  0  0  0  0  0  0
    1.5754   -3.2231    4.1080 H   0  0  0  0  0  0  0  0  0  0  0  0
   -2.1022   -4.9389    4.4200 N   0  0  0  0  0  0  0  0  0  0  0  0
   -3.4401   -5.1789    4.9084 C   0  0  0  0  0  0  0  0  0  0  0  0
   -1.3788   -5.6057    4.6724 H   0  0  0  0  0  0  0  0  0  0  0  0
   -3.5684   -4.6879    5.8843 H   0  0  0  0  0  0  0  0  0  0  0  0
   -4.1699   -4.7706    4.1938 H   0  0  0  0  0  0  0  0  0  0  0  0
   -3.6013   -6.2615    5.0188 H   0  0  0  0  0  0  0  0  0  0  0  0
  1  3  1  0  0  0  0
  1  7  1  0  0  0  0
  1  2  2  0  0  0  0
 32 33  1  0  0  0  0
 33 41  1  0  0  0  0
 33 34  2  0  0  0  0
  8  9  1  0  0  0  0
  9 17  1  0  0  0  0
  9 10  2  0  0  0  0
 18 19  1  0  0  0  0
 19 31  1  0  0  0  0
 19 20  2  0  0  0  0
 32 35  1  0  0  0  0
  8 11  1  0  0  0  0
 21 23  1  0  0  0  0
 41 42  1  0  0  0  0
 31 32  1  0  0  0  0
  7  8  1  0  0  0  0
 18 21  1  0  0  0  0
 17 18  1  0  0  0  0
 21 22  1  0  0  0  0
  3  4  1  0  0  0  0
  3  5  1  0  0  0  0
  3  6  1  0  0  0  0
 35 38  1  0  0  0  0
 35 39  1  0  0  0  0
 35 40  1  0  0  0  0
 11 14  1  0  0  0  0
 11 15  1  0  0  0  0
 11 16  1  0  0  0  0
 23 28  1  0  0  0  0
 23 29  1  0  0  0  0
 23 30  1  0  0  0  0
 42 44  1  0  0  0  0
 42 45  1  0  0  0  0
 42 46  1  0  0  0  0
 32 37  1  0  0  0  0
  8 13  1  0  0  0  0
 18 25  1  0  0  0  0
 21 26  1  0  0  0  0
 41 43  1  0  0  0  0
  7 12  1  0  0  0  0
 31 36  1  0  0  0  0
 17 24  1  0  0  0  0
 22 27  1  0  0  0  0
M  END
$$$$

  -OEChem-05262214473D

 46 45  0     1  0  0  0  0  0999 V2000
   -4.6700    2.7214    1.5150 C   0  0  0  0  0  0  0  0  0  0  0  0
   -5.4532    2.5715    0.5845 O   0  0  0  0  0  0  0  0  0  0  0  0
   -5.0996    3.4865    2.7226 C   0  0  0  0  0  0  0  0  0  0  0  0
   -4.8796    4.5629    2.6387 H   0  0  0  0  0  0  0  0  0  0  0  0
   -6.1861    3.4241    2.8954 H   0  0  0  0  0  0  0  0  0  0  0  0
   -4.6369    3.1693    3.6708 H   0  0  0  0  0  0  0  0  0  0  0  0
   -3.3731    2.2391    1.5790 N   0  0  0  0  0  0  0  0  0  0  0  0
   -2.7599    1.4751    0.5247 C   0  0  2  0  0  0  0  0  0  0  0  0
   -1.5143    0.8067    1.0915 C   0  0  0  0  0  0  0  0  0  0  0  0
   -0.9247    1.2213    2.0872 O   0  0  0  0  0  0  0  0  0  0  0  0
   -2.4106    2.3553   -0.6653 C   0  0  0  0  0  0  0  0  0  0  0  0
   -2.8254    2.4352    2.4150 H   0  0  0  0  0  0  0  0  0  0  0  0
   -3.4836    0.7082    0.2278 H   0  0  0  0  0  0  0  0  0  0  0  0
   -1.6866    3.1298   -0.3871 H   0  0  0  0  0  0  0  0  0  0  0  0
   -1.9704    1.7677   -1.4777 H   0  0  0  0  0  0  0  0  0  0  0  0
   -3.3030    2.8584   -1.0531 H   0  0  0  0  0  0  0  0  0  0  0  0
   -1.1107   -0.2839    0.3303 N   0  0  0  0  0  0  0  0  0  0  0  0
    0.0490   -1.0750    0.6539 C   0  0  2  0  0  0  0  0  0  0  0  0
   -0.1690   -1.6649    2.0443 C   0  0  0  0  0  0  0  0  0  0  0  0
   -0.5593   -0.9990    3.0012 O   0  0  0  0  0  0  0  0  0  0  0  0
    1.3561   -0.2724    0.5796 C   0  0  2  0  0  0  0  0  0  0  0  0
    1.3372    0.8102    1.5088 O   0  0  0  0  0  0  0  0  0  0  0  0
    1.5974    0.3092   -0.8081 C   0  0  0  0  0  0  0  0  0  0  0  0
   -1.6733   -0.5660   -0.4691 H   0  0  0  0  0  0  0  0  0  0  0  0
    0.0745   -1.8987   -0.0699 H   0  0  0  0  0  0  0  0  0  0  0  0
    2.2088   -0.9098    0.8406 H   0  0  0  0  0  0  0  0  0  0  0  0
    2.2032    1.2410    1.4461 H   0  0  0  0  0  0  0  0  0  0  0  0
    0.7711    0.9573   -1.1196 H   0  0  0  0  0  0  0  0  0  0  0  0
    1.7273   -0.4812   -1.5536 H   0  0  0  0  0  0  0  0  0  0  0  0
    2.4970    0.9345   -0.8050 H   0  0  0  0  0  0  0  0  0  0  0  0
    0.1705   -3.0091    2.1015 N   0  0  0  0  0  0  0  0  0  0  0  0
    0.0818   -3.7820    3.3182 C   0  0  2  0  0  0  0  0  0  0  0  0
   -1.3790   -4.1556    3.5325 C   0  0  0  0  0  0  0  0  0  0  0  0
   -2.3117   -3.5297    3.0331 O   0  0  0  0  0  0  0  0  0  0  0  0
    0.6244   -3.0054    4.5078 C   0  0  0  0  0  0  0  0  0  0  0  0
    0.4941   -3.4674    1.2547 H   0  0  0  0  0  0  0  0  0  0  0  0
    0.6724   -4.6908    3.1593 H   0  0  0  0  0  0  0  0  0  0  0  0
    0.0453   -2.0913    4.6825 H   0  0  0  0  0  0  0  0  0  0  0  0
    0.5828   -3.6032    5.4242 H   0  0  0  0  0  0  0  0  0  0  0  0
    1.6661   -2.7117    4.3392 H   0  0  0  0  0  0  0  0  0  0  0  0
   -1.5200   -5.2442    4.3818 N   0  0  0  0  0  0  0  0  0  0  0  0
   -2.8081   -5.7831    4.7512 C   0  0  0  0  0  0  0  0  0  0  0  0
   -0.6911   -5.7134    4.7345 H   0  0  0  0  0  0  0  0  0  0  0  0
   -3.1490   -5.3124    5.6851 H   0  0  0  0  0  0  0  0  0  0  0  0
   -3.5344   -5.5779    3.9509 H   0  0  0  0  0  0  0  0  0  0  0  0
   -2.7221   -6.8698    4.8985 H   0  0  0  0  0  0  0  0  0  0  0  0
  1  3  1  0  0  0  0
  1  7  1  0  0  0  0
  1  2  2  0  0  0  0
 32 33  1  0  0  0  0
 33 41  1  0  0  0  0
 33 34  2  0  0  0  0
  8  9  1  0  0  0  0
  9 17  1  0  0  0  0
  9 10  2  0  0  0  0
 18 19  1  0  0  0  0
 19 31  1  0  0  0  0
 19 20  2  0  0  0  0
 32 35  1  0  0  0  0
  8 11  1  0  0  0  0
 21 23  1  0  0  0  0
 41 42  1  0  0  0  0
 31 32  1  0  0  0  0
  7  8  1  0  0  0  0
 18 21  1  0  0  0  0
 17 18  1  0  0  0  0
 21 22  1  0  0  0  0
  3  4  1  0  0  0  0
  3  5  1  0  0  0  0
  3  6  1  0  0  0  0
 35 38  1  0  0  0  0
 35 39  1  0  0  0  0
 35 40  1  0  0  0  0
 11 14  1  0  0  0  0
 11 15  1  0  0  0  0
 11 16  1  0  0  0  0
 23 28  1  0  0  0  0
 23 29  1  0  0  0  0
 23 30  1  0  0  0  0
 42 44  1  0  0  0  0
 42 45  1  0  0  0  0
 42 46  1  0  0  0  0
 32 37  1  0  0  0  0
  8 13  1  0  0  0  0
 18 25  1  0  0  0  0
 21 26  1  0  0  0  0
 41 43  1  0  0  0  0
  7 12  1  0  0  0  0
 31 36  1  0  0  0  0
 17 24  1  0  0  0  0
 22 27  1  0  0  0  0
M  END
$$$$

  -OEChem-05262214473D

 46 45  0     1  0  0  0  0  0999 V2000
   -4.6700    2.7214    1.5150 C   0  0  0  0  0  0  0  0  0  0  0  0
   -5.4532    2.5715    0.5845 O   0  0  0  0  0  0  0  0  0  0  0  0
   -5.0996    3.4865    2.7226 C   0  0  0  0  0  0  0  0  0  0  0  0
   -4.8796    4.5629    2.6387 H   0  0  0  0  0  0  0  0  0  0  0  0
   -6.1861    3.4241    2.8954 H   0  0  0  0  0  0  0  0  0  0  0  0
   -4.6369    3.1693    3.6708 H   0  0  0  0  0  0  0  0  0  0  0  0
   -3.3731    2.2391    1.5790 N   0  0  0  0  0  0  0  0  0  0  0  0
   -2.7599    1.4751    0.5247 C   0  0  2  0  0  0  0  0  0  0  0  0
   -1.5143    0.8067    1.0915 C   0  0  0  0  0  0  0  0  0  0  0  0
   -0.9247    1.2213    2.0872 O   0  0  0  0  0  0  0  0  0  0  0  0
   -2.4106    2.3553   -0.6653 C   0  0  0  0  0  0  0  0  0  0  0  0
   -2.8254    2.4352    2.4150 H   0  0  0  0  0  0  0  0  0  0  0  0
   -3.4836    0.7082    0.2278 H   0  0  0  0  0  0  0  0  0  0  0  0
   -1.6866    3.1298   -0.3871 H   0  0  0  0  0  0  0  0  0  0  0  0
   -1.9704    1.7677   -1.4777 H   0  0  0  0  0  0  0  0  0  0  0  0
   -3.3030    2.8584   -1.0531 H   0  0  0  0  0  0  0  0  0  0  0  0
   -1.1107   -0.2839    0.3303 N   0  0  0  0  0  0  0  0  0  0  0  0
    0.0490   -1.0750    0.6539 C   0  0  2  0  0  0  0  0  0  0  0  0
   -0.1690   -1.6649    2.0443 C   0  0  0  0  0  0  0  0  0  0  0  0
   -0.8020   -1.0872    2.9257 O   0  0  0  0  0  0  0  0  0  0  0  0
    1.3561   -0.2724    0.5796 C   0  0  2  0  0  0  0  0  0  0  0  0
    1.3372    0.8102    1.5088 O   0  0  0  0  0  0  0  0  0  0  0  0
    1.5974    0.3092   -0.8081 C   0  0  0  0  0  0  0  0  0  0  0  0
   -1.6733   -0.5660   -0.4691 H   0  0  0  0  0  0  0  0  0  0  0  0
    0.0745   -1.8987   -0.0699 H   0  0  0  0  0  0  0  0  0  0  0  0
    2.2088   -0.9098    0.8406 H   0  0  0  0  0  0  0  0  0  0  0  0
    2.2032    1.2410    1.4461 H   0  0  0  0  0  0  0  0  0  0  0  0
    0.7711    0.9573   -1.1196 H   0  0  0  0  0  0  0  0  0  0  0  0
    1.7273   -0.4812   -1.5536 H   0  0  0  0  0  0  0  0  0  0  0  0
    2.4970    0.9345   -0.8050 H   0  0  0  0  0  0  0  0  0  0  0  0
    0.4677   -2.8880    2.1995 N   0  0  0  0  0  0  0  0  0  0  0  0
    0.4356   -3.6292    3.4385 C   0  0  2  0  0  0  0  0  0  0  0  0
   -0.9114   -4.3339    3.5302 C   0  0  0  0  0  0  0  0  0  0  0  0
   -1.9072   -3.9603    2.9139 O   0  0  0  0  0  0  0  0  0  0  0  0
    0.6541   -2.7164    4.6350 C   0  0  0  0  0  0  0  0  0  0  0  0
    0.9761   -3.2772    1.4109 H   0  0  0  0  0  0  0  0  0  0  0  0
    1.2357   -4.3753    3.3815 H   0  0  0  0  0  0  0  0  0  0  0  0
   -0.1378   -1.9621    4.7086 H   0  0  0  0  0  0  0  0  0  0  0  0
    0.6580   -3.2839    5.5715 H   0  0  0  0  0  0  0  0  0  0  0  0
    1.6100   -2.1878    4.5526 H   0  0  0  0  0  0  0  0  0  0  0  0
   -0.8818   -5.4032    4.4144 N   0  0  0  0  0  0  0  0  0  0  0  0
   -2.0394   -6.2234    4.6849 C   0  0  0  0  0  0  0  0  0  0  0  0
   -0.0076   -5.6530    4.8674 H   0  0  0  0  0  0  0  0  0  0  0  0
   -2.5766   -5.8241    5.5578 H   0  0  0  0  0  0  0  0  0  0  0  0
   -2.7059   -6.2168    3.8098 H   0  0  0  0  0  0  0  0  0  0  0  0
   -1.7175   -7.2545    4.8929 H   0  0  0  0  0  0  0  0  0  0  0  0
  1  3  1  0  0  0  0
  1  7  1  0  0  0  0
  1  2  2  0  0  0  0
 32 33  1  0  0  0  0
 33 41  1  0  0  0  0
 33 34  2  0  0  0  0
  8  9  1  0  0  0  0
  9 17  1  0  0  0  0
  9 10  2  0  0  0  0
 18 19  1  0  0  0  0
 19 31  1  0  0  0  0
 19 20  2  0  0  0  0
 32 35  1  0  0  0  0
  8 11  1  0  0  0  0
 21 23  1  0  0  0  0
 41 42  1  0  0  0  0
 31 32  1  0  0  0  0
  7  8  1  0  0  0  0
 18 21  1  0  0  0  0
 17 18  1  0  0  0  0
 21 22  1  0  0  0  0
  3  4  1  0  0  0  0
  3  5  1  0  0  0  0
  3  6  1  0  0  0  0
 35 38  1  0  0  0  0
 35 39  1  0  0  0  0
 35 40  1  0  0  0  0
 11 14  1  0  0  0  0
 11 15  1  0  0  0  0
 11 16  1  0  0  0  0
 23 28  1  0  0  0  0
 23 29  1  0  0  0  0
 23 30  1  0  0  0  0
 42 44  1  0  0  0  0
 42 45  1  0  0  0  0
 42 46  1  0  0  0  0
 32 37  1  0  0  0  0
  8 13  1  0  0  0  0
 18 25  1  0  0  0  0
 21 26  1  0  0  0  0
 41 43  1  0  0  0  0
  7 12  1  0  0  0  0
 31 36  1  0  0  0  0
 17 24  1  0  0  0  0
 22 27  1  0  0  0  0
M  END
$$$$

  -OEChem-05262214473D

 46 45  0     1  0  0  0  0  0999 V2000
   -4.6700    2.7214    1.5150 C   0  0  0  0  0  0  0  0  0  0  0  0
   -5.4532    2.5715    0.5845 O   0  0  0  0  0  0  0  0  0  0  0  0
   -5.0996    3.4865    2.7226 C   0  0  0  0  0  0  0  0  0  0  0  0
   -4.8796    4.5629    2.6387 H   0  0  0  0  0  0  0  0  0  0  0  0
   -6.1861    3.4241    2.8954 H   0  0  0  0  0  0  0  0  0  0  0  0
   -4.6369    3.1693    3.6708 H   0  0  0  0  0  0  0  0  0  0  0  0
   -3.3731    2.2391    1.5790 N   0  0  0  0  0  0  0  0  0  0  0  0
   -2.7599    1.4751    0.5247 C   0  0  2  0  0  0  0  0  0  0  0  0
   -1.5143    0.8067    1.0915 C   0  0  0  0  0  0  0  0  0  0  0  0
   -0.9247    1.2213    2.0872 O   0  0  0  0  0  0  0  0  0  0  0  0
   -2.4106    2.3553   -0.6653 C   0  0  0  0  0  0  0  0  0  0  0  0
   -2.8254    2.4352    2.4150 H   0  0  0  0  0  0  0  0  0  0  0  0
   -3.4836    0.7082    0.2278 H   0  0  0  0  0  0  0  0  0  0  0  0
   -1.6866    3.1298   -0.3871 H   0  0  0  0  0  0  0  0  0  0  0  0
   -1.9704    1.7677   -1.4777 H   0  0  0  0  0  0  0  0  0  0  0  0
   -3.3030    2.8584   -1.0531 H   0  0  0  0  0  0  0  0  0  0  0  0
   -1.1107   -0.2839    0.3303 N   0  0  0  0  0  0  0  0  0  0  0  0
    0.0490   -1.0750    0.6539 C   0  0  2  0  0  0  0  0  0  0  0  0
   -0.1690   -1.6649    2.0443 C   0  0  0  0  0  0  0  0  0  0  0  0
   -1.0081   -1.2324    2.8318 O   0  0  0  0  0  0  0  0  0  0  0  0
    1.3561   -0.2724    0.5796 C   0  0  2  0  0  0  0  0  0  0  0  0
    1.3372    0.8102    1.5088 O   0  0  0  0  0  0  0  0  0  0  0  0
    1.5974    0.3092   -0.8081 C   0  0  0  0  0  0  0  0  0  0  0  0
   -1.6733   -0.5660   -0.4691 H   0  0  0  0  0  0  0  0  0  0  0  0
    0.0745   -1.8987   -0.0699 H   0  0  0  0  0  0  0  0  0  0  0  0
    2.2088   -0.9098    0.8406 H   0  0  0  0  0  0  0  0  0  0  0  0
    2.2032    1.2410    1.4461 H   0  0  0  0  0  0  0  0  0  0  0  0
    0.7711    0.9573   -1.1196 H   0  0  0  0  0  0  0  0  0  0  0  0
    1.7273   -0.4812   -1.5536 H   0  0  0  0  0  0  0  0  0  0  0  0
    2.4970    0.9345   -0.8050 H   0  0  0  0  0  0  0  0  0  0  0  0
    0.7164   -2.6974    2.3194 N   0  0  0  0  0  0  0  0  0  0  0  0
    0.7293   -3.3937    3.5844 C   0  0  2  0  0  0  0  0  0  0  0  0
   -0.4175   -4.3959    3.5813 C   0  0  0  0  0  0  0  0  0  0  0  0
   -1.4031   -4.2852    2.8551 O   0  0  0  0  0  0  0  0  0  0  0  0
    0.6020   -2.4255    4.7503 C   0  0  0  0  0  0  0  0  0  0  0  0
    1.3813   -2.9741    1.6030 H   0  0  0  0  0  0  0  0  0  0  0  0
    1.6832   -3.9294    3.6408 H   0  0  0  0  0  0  0  0  0  0  0  0
   -0.3476   -1.8795    4.7107 H   0  0  0  0  0  0  0  0  0  0  0  0
    0.6406   -2.9523    5.7095 H   0  0  0  0  0  0  0  0  0  0  0  0
    1.4109   -1.6871    4.7338 H   0  0  0  0  0  0  0  0  0  0  0  0
   -0.2311   -5.4050    4.5157 N   0  0  0  0  0  0  0  0  0  0  0  0
   -1.1864   -6.4700    4.7141 C   0  0  0  0  0  0  0  0  0  0  0  0
    0.6250   -5.4285    5.0618 H   0  0  0  0  0  0  0  0  0  0  0  0
   -1.8903   -6.1880    5.5110 H   0  0  0  0  0  0  0  0  0  0  0  0
   -1.7408   -6.6438    3.7800 H   0  0  0  0  0  0  0  0  0  0  0  0
   -0.6558   -7.3894    5.0021 H   0  0  0  0  0  0  0  0  0  0  0  0
  1  3  1  0  0  0  0
  1  7  1  0  0  0  0
  1  2  2  0  0  0  0
 32 33  1  0  0  0  0
 33 41  1  0  0  0  0
 33 34  2  0  0  0  0
  8  9  1  0  0  0  0
  9 17  1  0  0  0  0
  9 10  2  0  0  0  0
 18 19  1  0  0  0  0
 19 31  1  0  0  0  0
 19 20  2  0  0  0  0
 32 35  1  0  0  0  0
  8 11  1  0  0  0  0
 21 23  1  0  0  0  0
 41 42  1  0  0  0  0
 31 32  1  0  0  0  0
  7  8  1  0  0  0  0
 18 21  1  0  0  0  0
 17 18  1  0  0  0  0
 21 22  1  0  0  0  0
  3  4  1  0  0  0  0
  3  5  1  0  0  0  0
  3  6  1  0  0  0  0
 35 38  1  0  0  0  0
 35 39  1  0  0  0  0
 35 40  1  0  0  0  0
 11 14  1  0  0  0  0
 11 15  1  0  0  0  0
 11 16  1  0  0  0  0
 23 28  1  0  0  0  0
 23 29  1  0  0  0  0
 23 30  1  0  0  0  0
 42 44  1  0  0  0  0
 42 45  1  0  0  0  0
 42 46  1  0  0  0  0
 32 37  1  0  0  0  0
  8 13  1  0  0  0  0
 18 25  1  0  0  0  0
 21 26  1  0  0  0  0
 41 43  1  0  0  0  0
  7 12  1  0  0  0  0
 31 36  1  0  0  0  0
 17 24  1  0  0  0  0
 22 27  1  0  0  0  0
M  END
$$$$

  -OEChem-05262214473D

 46 45  0     1  0  0  0  0  0999 V2000
   -4.6700    2.7214    1.5150 C   0  0  0  0  0  0  0  0  0  0  0  0
   -5.4532    2.5715    0.5845 O   0  0  0  0  0  0  0  0  0  0  0  0
   -5.0996    3.4865    2.7226 C   0  0  0  0  0  0  0  0  0  0  0  0
   -4.8796    4.5629    2.6387 H   0  0  0  0  0  0  0  0  0  0  0  0
   -6.1861    3.4241    2.8954 H   0  0  0  0  0  0  0  0  0  0  0  0
   -4.6369    3.1693    3.6708 H   0  0  0  0  0  0  0  0  0  0  0  0
   -3.3731    2.2391    1.5790 N   0  0  0  0  0  0  0  0  0  0  0  0
   -2.7599    1.4751    0.5247 C   0  0  2  0  0  0  0  0  0  0  0  0
   -1.5143    0.8067    1.0915 C   0  0  0  0  0  0  0  0  0  0  0  0
   -0.9247    1.2213    2.0872 O   0  0  0  0  0  0  0  0  0  0  0  0
   -2.4106    2.3553   -0.6653 C   0  0  0  0  0  0  0  0  0  0  0  0
   -2.8254    2.4352    2.4150 H   0  0  0  0  0  0  0  0  0  0  0  0
   -3.4836    0.7082    0.2278 H   0  0  0  0  0  0  0  0  0  0  0  0
   -1.6866    3.1298   -0.3871 H   0  0  0  0  0  0  0  0  0  0  0  0
   -1.9704    1.7677   -1.4777 H   0  0  0  0  0  0  0  0  0  0  0  0
   -3.3030    2.8584   -1.0531 H   0  0  0  0  0  0  0  0  0  0  0  0
   -1.1107   -0.2839    0.3303 N   0  0  0  0  0  0  0  0  0  0  0  0
    0.0490   -1.0750    0.6539 C   0  0  2  0  0  0  0  0  0  0  0  0
   -0.3123   -1.9557    1.8465 C   0  0  0  0  0  0  0  0  0  0  0  0
   -1.4051   -1.9090    2.4076 O   0  0  0  0  0  0  0  0  0  0  0  0
    1.2918   -0.2194    0.9397 C   0  0  2  0  0  0  0  0  0  0  0  0
    1.0675    0.6391    2.0570 O   0  0  0  0  0  0  0  0  0  0  0  0
    1.6763    0.6537   -0.2487 C   0  0  0  0  0  0  0  0  0  0  0  0
   -1.6733   -0.5660   -0.4691 H   0  0  0  0  0  0  0  0  0  0  0  0
    0.2328   -1.7242   -0.2108 H   0  0  0  0  0  0  0  0  0  0  0  0
    2.1454   -0.8604    1.1886 H   0  0  0  0  0  0  0  0  0  0  0  0
    1.9002    1.1103    2.2127 H   0  0  0  0  0  0  0  0  0  0  0  0
    0.8548    1.3170   -0.5402 H   0  0  0  0  0  0  0  0  0  0  0  0
    1.9638    0.0462   -1.1120 H   0  0  0  0  0  0  0  0  0  0  0  0
    2.5189    1.3022    0.0154 H   0  0  0  0  0  0  0  0  0  0  0  0
    0.7455   -2.7631    2.2402 N   0  0  0  0  0  0  0  0  0  0  0  0
    0.6593   -3.6623    3.3669 C   0  0  2  0  0  0  0  0  0  0  0  0
   -0.1041   -4.9026    2.9215 C   0  0  0  0  0  0  0  0  0  0  0  0
   -0.8737   -4.9083    1.9629 O   0  0  0  0  0  0  0  0  0  0  0  0
   -0.0246   -2.9997    4.5526 C   0  0  0  0  0  0  0  0  0  0  0  0
    1.6141   -2.7200    1.7154 H   0  0  0  0  0  0  0  0  0  0  0  0
    1.6861   -3.9395    3.6296 H   0  0  0  0  0  0  0  0  0  0  0  0
   -1.0546   -2.7150    4.3084 H   0  0  0  0  0  0  0  0  0  0  0  0
   -0.0636   -3.6730    5.4152 H   0  0  0  0  0  0  0  0  0  0  0  0
    0.5090   -2.0915    4.8527 H   0  0  0  0  0  0  0  0  0  0  0  0
    0.1420   -5.9912    3.7464 N   0  0  0  0  0  0  0  0  0  0  0  0
   -0.4742   -7.2810    3.5399 C   0  0  0  0  0  0  0  0  0  0  0  0
    0.8094   -5.9011    4.5068 H   0  0  0  0  0  0  0  0  0  0  0  0
   -1.3998   -7.3446    4.1308 H   0  0  0  0  0  0  0  0  0  0  0  0
   -0.7110   -7.4075    2.4731 H   0  0  0  0  0  0  0  0  0  0  0  0
    0.2190   -8.0736    3.8581 H   0  0  0  0  0  0  0  0  0  0  0  0
  1  3  1  0  0  0  0
  1  7  1  0  0  0  0
  1  2  2  0  0  0  0
 32 33  1  0  0  0  0
 33 41  1  0  0  0  0
 33 34  2  0  0  0  0
  8  9  1  0  0  0  0
  9 17  1  0  0  0  0
  9 10  2  0  0  0  0
 18 19  1  0  0  0  0
 19 31  1  0  0  0  0
 19 20  2  0  0  0  0
 32 35  1  0  0  0  0
  8 11  1  0  0  0  0
 21 23  1  0  0  0  0
 41 42  1  0  0  0  0
 31 32  1  0  0  0  0
  7  8  1  0  0  0  0
 18 21  1  0  0  0  0
 17 18  1  0  0  0  0
 21 22  1  0  0  0  0
  3  4  1  0  0  0  0
  3  5  1  0  0  0  0
  3  6  1  0  0  0  0
 35 38  1  0  0  0  0
 35 39  1  0  0  0  0
 35 40  1  0  0  0  0
 11 14  1  0  0  0  0
 11 15  1  0  0  0  0
 11 16  1  0  0  0  0
 23 28  1  0  0  0  0
 23 29  1  0  0  0  0
 23 30  1  0  0  0  0
 42 44  1  0  0  0  0
 42 45  1  0  0  0  0
 42 46  1  0  0  0  0
 32 37  1  0  0  0  0
  8 13  1  0  0  0  0
 18 25  1  0  0  0  0
 21 26  1  0  0  0  0
 41 43  1  0  0  0  0
  7 12  1  0  0  0  0
 31 36  1  0  0  0  0
 17 24  1  0  0  0  0
 22 27  1  0  0  0  0
M  END
$$$$

  -OEChem-05262214473D

 46 45  0     1  0  0  0  0  0999 V2000
   -4.6700    2.7214    1.5150 C   0  0  0  0  0  0  0  0  0  0  0  0
   -5.4532    2.5715    0.5845 O   0  0  0  0  0  0  0  0  0  0  0  0
   -5.0996    3.4865    2.7226 C   0  0  0  0  0  0  0  0  0  0  0  0
   -4.8796    4.5629    2.6387 H   0  0  0  0  0  0  0  0  0  0  0  0
   -6.1861    3.4241    2.8954 H   0  0  0  0  0  0  0  0  0  0  0  0
   -4.6369    3.1693    3.6708 H   0  0  0  0  0  0  0  0  0  0  0  0
   -3.3731    2.2391    1.5790 N   0  0  0  0  0  0  0  0  0  0  0  0
   -2.7599    1.4751    0.5247 C   0  0  2  0  0  0  0  0  0  0  0  0
   -1.5143    0.8067    1.0915 C   0  0  0  0  0  0  0  0  0  0  0  0
   -0.9247    1.2213    2.0872 O   0  0  0  0  0  0  0  0  0  0  0  0
   -2.4106    2.3553   -0.6653 C   0  0  0  0  0  0  0  0  0  0  0  0
   -2.8254    2.4352    2.4150 H   0  0  0  0  0  0  0  0  0  0  0  0
   -3.4836    0.7082    0.2278 H   0  0  0  0  0  0  0  0  0  0  0  0
   -1.6866    3.1298   -0.3871 H   0  0  0  0  0  0  0  0  0  0  0  0
   -1.9704    1.7677   -1.4777 H   0  0  0  0  0  0  0  0  0  0  0  0
   -3.3030    2.8584   -1.0531 H   0  0  0  0  0  0  0  0  0  0  0  0
   -1.1107   -0.2839    0.3303 N   0  0  0  0  0  0  0  0  0  0  0  0
    0.0490   -1.0750    0.6539 C   0  0  2  0  0  0  0  0  0  0  0  0
   -0.3123   -1.9557    1.8465 C   0  0  0  0  0  0  0  0  0  0  0  0
   -1.4665   -2.1105    2.2402 O   0  0  0  0  0  0  0  0  0  0  0  0
    1.2918   -0.2194    0.9397 C   0  0  2  0  0  0  0  0  0  0  0  0
    1.0675    0.6391    2.0570 O   0  0  0  0  0  0  0  0  0  0  0  0
    1.6763    0.6537   -0.2487 C   0  0  0  0  0  0  0  0  0  0  0  0
   -1.6733   -0.5660   -0.4691 H   0  0  0  0  0  0  0  0  0  0  0  0
    0.2328   -1.7242   -0.2108 H   0  0  0  0  0  0  0  0  0  0  0  0
    2.1454   -0.8604    1.1886 H   0  0  0  0  0  0  0  0  0  0  0  0
    1.9002    1.1103    2.2127 H   0  0  0  0  0  0  0  0  0  0  0  0
    0.8548    1.3170   -0.5402 H   0  0  0  0  0  0  0  0  0  0  0  0
    1.9638    0.0462   -1.1120 H   0  0  0  0  0  0  0  0  0  0  0  0
    2.5189    1.3022    0.0154 H   0  0  0  0  0  0  0  0  0  0  0  0
    0.8097   -2.5078    2.4482 N   0  0  0  0  0  0  0  0  0  0  0  0
    0.7286   -3.3527    3.6165 C   0  0  2  0  0  0  0  0  0  0  0  0
    0.3042   -4.7432    3.1628 C   0  0  0  0  0  0  0  0  0  0  0  0
   -0.2902   -4.9521    2.1074 O   0  0  0  0  0  0  0  0  0  0  0  0
   -0.2488   -2.7923    4.6379 C   0  0  0  0  0  0  0  0  0  0  0  0
    1.7236   -2.3100    2.0514 H   0  0  0  0  0  0  0  0  0  0  0  0
    1.7362   -3.3990    4.0439 H   0  0  0  0  0  0  0  0  0  0  0  0
   -1.2639   -2.7383    4.2277 H   0  0  0  0  0  0  0  0  0  0  0  0
   -0.2878   -3.4187    5.5351 H   0  0  0  0  0  0  0  0  0  0  0  0
    0.0414   -1.7804    4.9408 H   0  0  0  0  0  0  0  0  0  0  0  0
    0.6291   -5.7183    4.0955 N   0  0  0  0  0  0  0  0  0  0  0  0
    0.3198   -7.1158    3.9024 C   0  0  0  0  0  0  0  0  0  0  0  0
    1.1388   -5.4572    4.9344 H   0  0  0  0  0  0  0  0  0  0  0  0
   -0.6555   -7.3423    4.3580 H   0  0  0  0  0  0  0  0  0  0  0  0
    0.2817   -7.3373    2.8256 H   0  0  0  0  0  0  0  0  0  0  0  0
    1.0978   -7.7323    4.3763 H   0  0  0  0  0  0  0  0  0  0  0  0
  1  3  1  0  0  0  0
  1  7  1  0  0  0  0
  1  2  2  0  0  0  0
 32 33  1  0  0  0  0
 33 41  1  0  0  0  0
 33 34  2  0  0  0  0
  8  9  1  0  0  0  0
  9 17  1  0  0  0  0
  9 10  2  0  0  0  0
 18 19  1  0  0  0  0
 19 31  1  0  0  0  0
 19 20  2  0  0  0  0
 32 35  1  0  0  0  0
  8 11  1  0  0  0  0
 21 23  1  0  0  0  0
 41 42  1  0  0  0  0
 31 32  1  0  0  0  0
  7  8  1  0  0  0  0
 18 21  1  0  0  0  0
 17 18  1  0  0  0  0
 21 22  1  0  0  0  0
  3  4  1  0  0  0  0
  3  5  1  0  0  0  0
  3  6  1  0  0  0  0
 35 38  1  0  0  0  0
 35 39  1  0  0  0  0
 35 40  1  0  0  0  0
 11 14  1  0  0  0  0
 11 15  1  0  0  0  0
 11 16  1  0  0  0  0
 23 28  1  0  0  0  0
 23 29  1  0  0  0  0
 23 30  1  0  0  0  0
 42 44  1  0  0  0  0
 42 45  1  0  0  0  0
 42 46  1  0  0  0  0
 32 37  1  0  0  0  0
  8 13  1  0  0  0  0
 18 25  1  0  0  0  0
 21 26  1  0  0  0  0
 41 43  1  0  0  0  0
  7 12  1  0  0  0  0
 31 36  1  0  0  0  0
 17 24  1  0  0  0  0
 22 27  1  0  0  0  0
M  END
$$$$

  -OEChem-05262214473D

 46 45  0     1  0  0  0  0  0999 V2000
   -4.6700    2.7214    1.5150 C   0  0  0  0  0  0  0  0  0  0  0  0
   -5.4532    2.5715    0.5845 O   0  0  0  0  0  0  0  0  0  0  0  0
   -5.0996    3.4865    2.7226 C   0  0  0  0  0  0  0  0  0  0  0  0
   -4.8796    4.5629    2.6387 H   0  0  0  0  0  0  0  0  0  0  0  0
   -6.1861    3.4241    2.8954 H   0  0  0  0  0  0  0  0  0  0  0  0
   -4.6369    3.1693    3.6708 H   0  0  0  0  0  0  0  0  0  0  0  0
   -3.3731    2.2391    1.5790 N   0  0  0  0  0  0  0  0  0  0  0  0
   -2.7599    1.4751    0.5247 C   0  0  2  0  0  0  0  0  0  0  0  0
   -1.5143    0.8067    1.0915 C   0  0  0  0  0  0  0  0  0  0  0  0
   -0.9247    1.2213    2.0872 O   0  0  0  0  0  0  0  0  0  0  0  0
   -2.4106    2.3553   -0.6653 C   0  0  0  0  0  0  0  0  0  0  0  0
   -2.8254    2.4352    2.4150 H   0  0  0  0  0  0  0  0  0  0  0  0
   -3.4836    0.7082    0.2278 H   0  0  0  0  0  0  0  0  0  0  0  0
   -1.6866    3.1298   -0.3871 H   0  0  0  0  0  0  0  0  0  0  0  0
   -1.9704    1.7677   -1.4777 H   0  0  0  0  0  0  0  0  0  0  0  0
   -3.3030    2.8584   -1.0531 H   0  0  0  0  0  0  0  0  0  0  0  0
   -1.1107   -0.2839    0.3303 N   0  0  0  0  0  0  0  0  0  0  0  0
    0.0490   -1.0750    0.6539 C   0  0  2  0  0  0  0  0  0  0  0  0
   -0.3123   -1.9557    1.8465 C   0  0  0  0  0  0  0  0  0  0  0  0
   -1.4601   -2.3277    2.0817 O   0  0  0  0  0  0  0  0  0  0  0  0
    1.2918   -0.2194    0.9397 C   0  0  2  0  0  0  0  0  0  0  0  0
    1.0675    0.6391    2.0570 O   0  0  0  0  0  0  0  0  0  0  0  0
    1.6763    0.6537   -0.2487 C   0  0  0  0  0  0  0  0  0  0  0  0
   -1.6733   -0.5660   -0.4691 H   0  0  0  0  0  0  0  0  0  0  0  0
    0.2328   -1.7242   -0.2108 H   0  0  0  0  0  0  0  0  0  0  0  0
    2.1454   -0.8604    1.1886 H   0  0  0  0  0  0  0  0  0  0  0  0
    1.9002    1.1103    2.2127 H   0  0  0  0  0  0  0  0  0  0  0  0
    0.8548    1.3170   -0.5402 H   0  0  0  0  0  0  0  0  0  0  0  0
    1.9638    0.0462   -1.1120 H   0  0  0  0  0  0  0  0  0  0  0  0
    2.5189    1.3022    0.0154 H   0  0  0  0  0  0  0  0  0  0  0  0
    0.7891   -2.2355    2.6431 N   0  0  0  0  0  0  0  0  0  0  0  0
    0.6957   -3.0243    3.8491 C   0  0  2  0  0  0  0  0  0  0  0  0
    0.6304   -4.4919    3.4472 C   0  0  0  0  0  0  0  0  0  0  0  0
    0.2606   -4.8675    2.3367 O   0  0  0  0  0  0  0  0  0  0  0  0
   -0.5201   -2.6320    4.6741 C   0  0  0  0  0  0  0  0  0  0  0  0
    1.6963   -1.8712    2.3671 H   0  0  0  0  0  0  0  0  0  0  0  0
    1.6135   -2.8414    4.4184 H   0  0  0  0  0  0  0  0  0  0  0  0
   -1.4493   -2.8081    4.1200 H   0  0  0  0  0  0  0  0  0  0  0  0
   -0.5737   -3.2111    5.6018 H   0  0  0  0  0  0  0  0  0  0  0  0
   -0.4863   -1.5692    4.9369 H   0  0  0  0  0  0  0  0  0  0  0  0
    0.9923   -5.3347    4.4888 N   0  0  0  0  0  0  0  0  0  0  0  0
    0.9992   -6.7733    4.3611 C   0  0  0  0  0  0  0  0  0  0  0  0
    1.3034   -4.9356    5.3695 H   0  0  0  0  0  0  0  0  0  0  0  0
    0.0291   -7.1756    4.6884 H   0  0  0  0  0  0  0  0  0  0  0  0
    1.1737   -7.0472    3.3101 H   0  0  0  0  0  0  0  0  0  0  0  0
    1.8002   -7.1931    4.9873 H   0  0  0  0  0  0  0  0  0  0  0  0
  1  3  1  0  0  0  0
  1  7  1  0  0  0  0
  1  2  2  0  0  0  0
 32 33  1  0  0  0  0
 33 41  1  0  0  0  0
 33 34  2  0  0  0  0
  8  9  1  0  0  0  0
  9 17  1  0  0  0  0
  9 10  2  0  0  0  0
 18 19  1  0  0  0  0
 19 31  1  0  0  0  0
 19 20  2  0  0  0  0
 32 35  1  0  0  0  0
  8 11  1  0  0  0  0
 21 23  1  0  0  0  0
 41 42  1  0  0  0  0
 31 32  1  0  0  0  0
  7  8  1  0  0  0  0
 18 21  1  0  0  0  0
 17 18  1  0  0  0  0
 21 22  1  0  0  0  0
  3  4  1  0  0  0  0
  3  5  1  0  0  0  0
  3  6  1  0  0  0  0
 35 38  1  0  0  0  0
 35 39  1  0  0  0  0
 35 40  1  0  0  0  0
 11 14  1  0  0  0  0
 11 15  1  0  0  0  0
 11 16  1  0  0  0  0
 23 28  1  0  0  0  0
 23 29  1  0  0  0  0
 23 30  1  0  0  0  0
 42 44  1  0  0  0  0
 42 45  1  0  0  0  0
 42 46  1  0  0  0  0
 32 37  1  0  0  0  0
  8 13  1  0  0  0  0
 18 25  1  0  0  0  0
 21 26  1  0  0  0  0
 41 43  1  0  0  0  0
  7 12  1  0  0  0  0
 31 36  1  0  0  0  0
 17 24  1  0  0  0  0
 22 27  1  0  0  0  0
M  END
$$$$

  -OEChem-05262214473D

 46 45  0     1  0  0  0  0  0999 V2000
   -4.6700    2.7214    1.5150 C   0  0  0  0  0  0  0  0  0  0  0  0
   -5.4532    2.5715    0.5845 O   0  0  0  0  0  0  0  0  0  0  0  0
   -5.0996    3.4865    2.7226 C   0  0  0  0  0  0  0  0  0  0  0  0
   -4.8796    4.5629    2.6387 H   0  0  0  0  0  0  0  0  0  0  0  0
   -6.1861    3.4241    2.8954 H   0  0  0  0  0  0  0  0  0  0  0  0
   -4.6369    3.1693    3.6708 H   0  0  0  0  0  0  0  0  0  0  0  0
   -3.3731    2.2391    1.5790 N   0  0  0  0  0  0  0  0  0  0  0  0
   -2.7599    1.4751    0.5247 C   0  0  2  0  0  0  0  0  0  0  0  0
   -1.5143    0.8067    1.0915 C   0  0  0  0  0  0  0  0  0  0  0  0
   -0.9247    1.2213    2.0872 O   0  0  0  0  0  0  0  0  0  0  0  0
   -2.4106    2.3553   -0.6653 C   0  0  0  0  0  0  0  0  0  0  0  0
   -2.8254    2.4352    2.4150 H   0  0  0  0  0  0  0  0  0  0  0  0
   -3.4836    0.7082    0.2278 H   0  0  0  0  0  0  0  0  0  0  0  0
   -1.6866    3.1298   -0.3871 H   0  0  0  0  0  0  0  0  0  0  0  0
   -1.9704    1.7677   -1.4777 H   0  0  0  0  0  0  0  0  0  0  0  0
   -3.3030    2.8584   -1.0531 H   0  0  0  0  0  0  0  0  0  0  0  0
   -1.1107   -0.2839    0.3303 N   0  0  0  0  0  0  0  0  0  0  0  0
    0.0490   -1.0750    0.6539 C   0  0  2  0  0  0  0  0  0  0  0  0
   -0.3123   -1.9557    1.8465 C   0  0  0  0  0  0  0  0  0  0  0  0
   -1.3863   -2.5460    1.9429 O   0  0  0  0  0  0  0  0  0  0  0  0
    1.2918   -0.2194    0.9397 C   0  0  2  0  0  0  0  0  0  0  0  0
    1.0675    0.6391    2.0570 O   0  0  0  0  0  0  0  0  0  0  0  0
    1.6763    0.6537   -0.2487 C   0  0  0  0  0  0  0  0  0  0  0  0
   -1.6733   -0.5660   -0.4691 H   0  0  0  0  0  0  0  0  0  0  0  0
    0.2328   -1.7242   -0.2108 H   0  0  0  0  0  0  0  0  0  0  0  0
    2.1454   -0.8604    1.1886 H   0  0  0  0  0  0  0  0  0  0  0  0
    1.9002    1.1103    2.2127 H   0  0  0  0  0  0  0  0  0  0  0  0
    0.8548    1.3170   -0.5402 H   0  0  0  0  0  0  0  0  0  0  0  0
    1.9638    0.0462   -1.1120 H   0  0  0  0  0  0  0  0  0  0  0  0
    2.5189    1.3022    0.0154 H   0  0  0  0  0  0  0  0  0  0  0  0
    0.6849   -1.9647    2.8115 N   0  0  0  0  0  0  0  0  0  0  0  0
    0.5627   -2.6995    4.0486 C   0  0  2  0  0  0  0  0  0  0  0  0
    0.8521   -4.1657    3.7553 C   0  0  0  0  0  0  0  0  0  0  0  0
    0.7413   -4.6602    2.6353 O   0  0  0  0  0  0  0  0  0  0  0  0
   -0.8200   -2.5298    4.6587 C   0  0  0  0  0  0  0  0  0  0  0  0
    1.5339   -1.4336    2.6411 H   0  0  0  0  0  0  0  0  0  0  0  0
    1.3262   -2.3047    4.7278 H   0  0  0  0  0  0  0  0  0  0  0  0
   -1.5982   -2.9197    3.9925 H   0  0  0  0  0  0  0  0  0  0  0  0
   -0.9019   -3.0643    5.6109 H   0  0  0  0  0  0  0  0  0  0  0  0
   -1.0382   -1.4721    4.8414 H   0  0  0  0  0  0  0  0  0  0  0  0
    1.2068   -4.8667    4.8994 N   0  0  0  0  0  0  0  0  0  0  0  0
    1.5176   -6.2770    4.8846 C   0  0  0  0  0  0  0  0  0  0  0  0
    1.2919   -4.3718    5.7823 H   0  0  0  0  0  0  0  0  0  0  0  0
    0.6073   -6.8559    5.0997 H   0  0  0  0  0  0  0  0  0  0  0  0
    1.9043   -6.5568    3.8935 H   0  0  0  0  0  0  0  0  0  0  0  0
    2.2784   -6.4928    5.6493 H   0  0  0  0  0  0  0  0  0  0  0  0
  1  3  1  0  0  0  0
  1  7  1  0  0  0  0
  1  2  2  0  0  0  0
 32 33  1  0  0  0  0
 33 41  1  0  0  0  0
 33 34  2  0  0  0  0
  8  9  1  0  0  0  0
  9 17  1  0  0  0  0
  9 10  2  0  0  0  0
 18 19  1  0  0  0  0
 19 31  1  0  0  0  0
 19 20  2  0  0  0  0
 32 35  1  0  0  0  0
  8 11  1  0  0  0  0
 21 23  1  0  0  0  0
 41 42  1  0  0  0  0
 31 32  1  0  0  0  0
  7  8  1  0  0  0  0
 18 21  1  0  0  0  0
 17 18  1  0  0  0  0
 21 22  1  0  0  0  0
  3  4  1  0  0  0  0
  3  5  1  0  0  0  0
  3  6  1  0  0  0  0
 35 38  1  0  0  0  0
 35 39  1  0  0  0  0
 35 40  1  0  0  0  0
 11 14  1  0  0  0  0
 11 15  1  0  0  0  0
 11 16  1  0  0  0  0
 23 28  1  0  0  0  0
 23 29  1  0  0  0  0
 23 30  1  0  0  0  0
 42 44  1  0  0  0  0
 42 45  1  0  0  0  0
 42 46  1  0  0  0  0
 32 37  1  0  0  0  0
  8 13  1  0  0  0  0
 18 25  1  0  0  0  0
 21 26  1  0  0  0  0
 41 43  1  0  0  0  0
  7 12  1  0  0  0  0
 31 36  1  0  0  0  0
 17 24  1  0  0  0  0
 22 27  1  0  0  0  0
M  END
$$$$

  -OEChem-05262214473D

 46 45  0     1  0  0  0  0  0999 V2000
   -4.6700    2.7214    1.5150 C   0  0  0  0  0  0  0  0  0  0  0  0
   -5.4532    2.5715    0.5845 O   0  0  0  0  0  0  0  0  0  0  0  0
   -5.0996    3.4865    2.7226 C   0  0  0  0  0  0  0  0  0  0  0  0
   -4.8796    4.5629    2.6387 H   0  0  0  0  0  0  0  0  0  0  0  0
   -6.1861    3.4241    2.8954 H   0  0  0  0  0  0  0  0  0  0  0  0
   -4.6369    3.1693    3.6708 H   0  0  0  0  0  0  0  0  0  0  0  0
   -3.3731    2.2391    1.5790 N   0  0  0  0  0  0  0  0  0  0  0  0
   -2.7599    1.4751    0.5247 C   0  0  2  0  0  0  0  0  0  0  0  0
   -1.5143    0.8067    1.0915 C   0  0  0  0  0  0  0  0  0  0  0  0
   -0.9247    1.2213    2.0872 O   0  0  0  0  0  0  0  0  0  0  0  0
   -2.4106    2.3553   -0.6653 C   0  0  0  0  0  0  0  0  0  0  0  0
   -2.8254    2.4352    2.4150 H   0  0  0  0  0  0  0  0  0  0  0  0
   -3.4836    0.7082    0.2278 H   0  0  0  0  0  0  0  0  0  0  0  0
   -1.6866    3.1298   -0.3871 H   0  0  0  0  0  0  0  0  0  0  0  0
   -1.9704    1.7677   -1.4777 H   0  0  0  0  0  0  0  0  0  0  0  0
   -3.3030    2.8584   -1.0531 H   0  0  0  0  0  0  0  0  0  0  0  0
   -1.1107   -0.2839    0.3303 N   0  0  0  0  0  0  0  0  0  0  0  0
    0.0490   -1.0750    0.6539 C   0  0  2  0  0  0  0  0  0  0  0  0
   -0.3123   -1.9557    1.8465 C   0  0  0  0  0  0  0  0  0  0  0  0
   -1.2501   -2.7504    1.8332 O   0  0  0  0  0  0  0  0  0  0  0  0
    1.2918   -0.2194    0.9397 C   0  0  2  0  0  0  0  0  0  0  0  0
    1.0675    0.6391    2.0570 O   0  0  0  0  0  0  0  0  0  0  0  0
    1.6763    0.6537   -0.2487 C   0  0  0  0  0  0  0  0  0  0  0  0
   -1.6733   -0.5660   -0.4691 H   0  0  0  0  0  0  0  0  0  0  0  0
    0.2328   -1.7242   -0.2108 H   0  0  0  0  0  0  0  0  0  0  0  0
    2.1454   -0.8604    1.1886 H   0  0  0  0  0  0  0  0  0  0  0  0
    1.9002    1.1103    2.2127 H   0  0  0  0  0  0  0  0  0  0  0  0
    0.8548    1.3170   -0.5402 H   0  0  0  0  0  0  0  0  0  0  0  0
    1.9638    0.0462   -1.1120 H   0  0  0  0  0  0  0  0  0  0  0  0
    2.5189    1.3022    0.0154 H   0  0  0  0  0  0  0  0  0  0  0  0
    0.5044   -1.7138    2.9421 N   0  0  0  0  0  0  0  0  0  0  0  0
    0.3387   -2.4004    4.2016 C   0  0  2  0  0  0  0  0  0  0  0  0
    0.9542   -3.7869    4.0659 C   0  0  0  0  0  0  0  0  0  0  0  0
    1.1191   -4.3445    2.9829 O   0  0  0  0  0  0  0  0  0  0  0  0
   -1.1280   -2.4928    4.5927 C   0  0  0  0  0  0  0  0  0  0  0  0
    1.2477   -1.0270    2.8547 H   0  0  0  0  0  0  0  0  0  0  0  0
    0.8939   -1.8255    4.9507 H   0  0  0  0  0  0  0  0  0  0  0  0
   -1.7005   -3.0654    3.8539 H   0  0  0  0  0  0  0  0  0  0  0  0
   -1.2498   -2.9883    5.5616 H   0  0  0  0  0  0  0  0  0  0  0  0
   -1.5767   -1.4959    4.6608 H   0  0  0  0  0  0  0  0  0  0  0  0
    1.2580   -4.3460    5.2993 N   0  0  0  0  0  0  0  0  0  0  0  0
    1.8398   -5.6607    5.4373 C   0  0  0  0  0  0  0  0  0  0  0  0
    1.1051   -3.8043    6.1448 H   0  0  0  0  0  0  0  0  0  0  0  0
    1.0397   -6.4049    5.5637 H   0  0  0  0  0  0  0  0  0  0  0  0
    2.4236   -5.8996    4.5362 H   0  0  0  0  0  0  0  0  0  0  0  0
    2.4997   -5.6790    6.3172 H   0  0  0  0  0  0  0  0  0  0  0  0
  1  3  1  0  0  0  0
  1  7  1  0  0  0  0
  1  2  2  0  0  0  0
 32 33  1  0  0  0  0
 33 41  1  0  0  0  0
 33 34  2  0  0  0  0
  8  9  1  0  0  0  0
  9 17  1  0  0  0  0
  9 10  2  0  0  0  0
 18 19  1  0  0  0  0
 19 31  1  0  0  0  0
 19 20  2  0  0  0  0
 32 35  1  0  0  0  0
  8 11  1  0  0  0  0
 21 23  1  0  0  0  0
 41 42  1  0  0  0  0
 31 32  1  0  0  0  0
  7  8  1  0  0  0  0
 18 21  1  0  0  0  0
 17 18  1  0  0  0  0
 21 22  1  0  0  0  0
  3  4  1  0  0  0  0
  3  5  1  0  0  0  0
  3  6  1  0  0  0  0
 35 38  1  0  0  0  0
 35 39  1  0  0  0  0
 35 40  1  0  0  0  0
 11 14  1  0  0  0  0
 11 15  1  0  0  0  0
 11 16  1  0  0  0  0
 23 28  1  0  0  0  0
 23 29  1  0  0  0  0
 23 30  1  0  0  0  0
 42 44  1  0  0  0  0
 42 45  1  0  0  0  0
 42 46  1  0  0  0  0
 32 37  1  0  0  0  0
  8 13  1  0  0  0  0
 18 25  1  0  0  0  0
 21 26  1  0  0  0  0
 41 43  1  0  0  0  0
  7 12  1  0  0  0  0
 31 36  1  0  0  0  0
 17 24  1  0  0  0  0
 22 27  1  0  0  0  0
M  END
$$$$

  -OEChem-05262214473D

 46 45  0     1  0  0  0  0  0999 V2000
   -4.6700    2.7214    1.5150 C   0  0  0  0  0  0  0  0  0  0  0  0
   -5.4532    2.5715    0.5845 O   0  0  0  0  0  0  0  0  0  0  0  0
   -5.0996    3.4865    2.7226 C   0  0  0  0  0  0  0  0  0  0  0  0
   -4.8796    4.5629    2.6387 H   0  0  0  0  0  0  0  0  0  0  0  0
   -6.1861    3.4241    2.8954 H   0  0  0  0  0  0  0  0  0  0  0  0
   -4.6369    3.1693    3.6708 H   0  0  0  0  0  0  0  0  0  0  0  0
   -3.3731    2.2391    1.5790 N   0  0  0  0  0  0  0  0  0  0  0  0
   -2.7599    1.4751    0.5247 C   0  0  2  0  0  0  0  0  0  0  0  0
   -1.5143    0.8067    1.0915 C   0  0  0  0  0  0  0  0  0  0  0  0
   -0.9247    1.2213    2.0872 O   0  0  0  0  0  0  0  0  0  0  0  0
   -2.4106    2.3553   -0.6653 C   0  0  0  0  0  0  0  0  0  0  0  0
   -2.8254    2.4352    2.4150 H   0  0  0  0  0  0  0  0  0  0  0  0
   -3.4836    0.7082    0.2278 H   0  0  0  0  0  0  0  0  0  0  0  0
   -1.6866    3.1298   -0.3871 H   0  0  0  0  0  0  0  0  0  0  0  0
   -1.9704    1.7677   -1.4777 H   0  0  0  0  0  0  0  0  0  0  0  0
   -3.3030    2.8584   -1.0531 H   0  0  0  0  0  0  0  0  0  0  0  0
   -1.1107   -0.2839    0.3303 N   0  0  0  0  0  0  0  0  0  0  0  0
    0.0490   -1.0750    0.6539 C   0  0  2  0  0  0  0  0  0  0  0  0
   -0.3123   -1.9557    1.8465 C   0  0  0  0  0  0  0  0  0  0  0  0
   -1.0608   -2.9271    1.7601 O   0  0  0  0  0  0  0  0  0  0  0  0
    1.2918   -0.2194    0.9397 C   0  0  2  0  0  0  0  0  0  0  0  0
    1.0675    0.6391    2.0570 O   0  0  0  0  0  0  0  0  0  0  0  0
    1.6763    0.6537   -0.2487 C   0  0  0  0  0  0  0  0  0  0  0  0
   -1.6733   -0.5660   -0.4691 H   0  0  0  0  0  0  0  0  0  0  0  0
    0.2328   -1.7242   -0.2108 H   0  0  0  0  0  0  0  0  0  0  0  0
    2.1454   -0.8604    1.1886 H   0  0  0  0  0  0  0  0  0  0  0  0
    1.9002    1.1103    2.2127 H   0  0  0  0  0  0  0  0  0  0  0  0
    0.8548    1.3170   -0.5402 H   0  0  0  0  0  0  0  0  0  0  0  0
    1.9638    0.0462   -1.1120 H   0  0  0  0  0  0  0  0  0  0  0  0
    2.5189    1.3022    0.0154 H   0  0  0  0  0  0  0  0  0  0  0  0
    0.2597   -1.5000    3.0259 N   0  0  0  0  0  0  0  0  0  0  0  0
    0.0390   -2.1475    4.2976 C   0  0  2  0  0  0  0  0  0  0  0  0
    0.9298   -3.3813    4.3580 C   0  0  0  0  0  0  0  0  0  0  0  0
    1.3683   -3.9419    3.3557 O   0  0  0  0  0  0  0  0  0  0  0  0
   -1.4232   -2.5233    4.4808 C   0  0  0  0  0  0  0  0  0  0  0  0
    0.8570   -0.6790    2.9933 H   0  0  0  0  0  0  0  0  0  0  0  0
    0.3461   -1.4363    5.0721 H   0  0  0  0  0  0  0  0  0  0  0  0
   -1.7490   -3.2353    3.7137 H   0  0  0  0  0  0  0  0  0  0  0  0
   -1.5940   -2.9883    5.4573 H   0  0  0  0  0  0  0  0  0  0  0  0
   -2.0650   -1.6388    4.4073 H   0  0  0  0  0  0  0  0  0  0  0  0
    1.1423   -3.8083    5.6614 N   0  0  0  0  0  0  0  0  0  0  0  0
    1.9438   -4.9663    5.9816 C   0  0  0  0  0  0  0  0  0  0  0  0
    0.7556   -3.2716    6.4323 H   0  0  0  0  0  0  0  0  0  0  0  0
    1.2968   -5.8534    6.0488 H   0  0  0  0  0  0  0  0  0  0  0  0
    2.6963   -5.1203    5.1942 H   0  0  0  0  0  0  0  0  0  0  0  0
    2.4490   -4.8072    6.9456 H   0  0  0  0  0  0  0  0  0  0  0  0
  1  3  1  0  0  0  0
  1  7  1  0  0  0  0
  1  2  2  0  0  0  0
 32 33  1  0  0  0  0
 33 41  1  0  0  0  0
 33 34  2  0  0  0  0
  8  9  1  0  0  0  0
  9 17  1  0  0  0  0
  9 10  2  0  0  0  0
 18 19  1  0  0  0  0
 19 31  1  0  0  0  0
 19 20  2  0  0  0  0
 32 35  1  0  0  0  0
  8 11  1  0  0  0  0
 21 23  1  0  0  0  0
 41 42  1  0  0  0  0
 31 32  1  0  0  0  0
  7  8  1  0  0  0  0
 18 21  1  0  0  0  0
 17 18  1  0  0  0  0
 21 22  1  0  0  0  0
  3  4  1  0  0  0  0
  3  5  1  0  0  0  0
  3  6  1  0  0  0  0
 35 38  1  0  0  0  0
 35 39  1  0  0  0  0
 35 40  1  0  0  0  0
 11 14  1  0  0  0  0
 11 15  1  0  0  0  0
 11 16  1  0  0  0  0
 23 28  1  0  0  0  0
 23 29  1  0  0  0  0
 23 30  1  0  0  0  0
 42 44  1  0  0  0  0
 42 45  1  0  0  0  0
 42 46  1  0  0  0  0
 32 37  1  0  0  0  0
  8 13  1  0  0  0  0
 18 25  1  0  0  0  0
 21 26  1  0  0  0  0
 41 43  1  0  0  0  0
  7 12  1  0  0  0  0
 31 36  1  0  0  0  0
 17 24  1  0  0  0  0
 22 27  1  0  0  0  0
M  END
$$$$

  -OEChem-05262214473D

 46 45  0     1  0  0  0  0  0999 V2000
   -4.6700    2.7214    1.5150 C   0  0  0  0  0  0  0  0  0  0  0  0
   -5.4532    2.5715    0.5845 O   0  0  0  0  0  0  0  0  0  0  0  0
   -5.0996    3.4865    2.7226 C   0  0  0  0  0  0  0  0  0  0  0  0
   -4.8796    4.5629    2.6387 H   0  0  0  0  0  0  0  0  0  0  0  0
   -6.1861    3.4241    2.8954 H   0  0  0  0  0  0  0  0  0  0  0  0
   -4.6369    3.1693    3.6708 H   0  0  0  0  0  0  0  0  0  0  0  0
   -3.3731    2.2391    1.5790 N   0  0  0  0  0  0  0  0  0  0  0  0
   -2.7599    1.4751    0.5247 C   0  0  2  0  0  0  0  0  0  0  0  0
   -1.5143    0.8067    1.0915 C   0  0  0  0  0  0  0  0  0  0  0  0
   -0.9247    1.2213    2.0872 O   0  0  0  0  0  0  0  0  0  0  0  0
   -2.4106    2.3553   -0.6653 C   0  0  0  0  0  0  0  0  0  0  0  0
   -2.8254    2.4352    2.4150 H   0  0  0  0  0  0  0  0  0  0  0  0
   -3.4836    0.7082    0.2278 H   0  0  0  0  0  0  0  0  0  0  0  0
   -1.6866    3.1298   -0.3871 H   0  0  0  0  0  0  0  0  0  0  0  0
   -1.9704    1.7677   -1.4777 H   0  0  0  0  0  0  0  0  0  0  0  0
   -3.3030    2.8584   -1.0531 H   0  0  0  0  0  0  0  0  0  0  0  0
   -1.1107   -0.2839    0.3303 N   0  0  0  0  0  0  0  0  0  0  0  0
    0.0490   -1.0750    0.6539 C   0  0  2  0  0  0  0  0  0  0  0  0
   -0.3123   -1.9557    1.8465 C   0  0  0  0  0  0  0  0  0  0  0  0
   -0.8313   -3.0639    1.7286 O   0  0  0  0  0  0  0  0  0  0  0  0
    1.2918   -0.2194    0.9397 C   0  0  2  0  0  0  0  0  0  0  0  0
    1.0675    0.6391    2.0570 O   0  0  0  0  0  0  0  0  0  0  0  0
    1.6763    0.6537   -0.2487 C   0  0  0  0  0  0  0  0  0  0  0  0
   -1.6733   -0.5660   -0.4691 H   0  0  0  0  0  0  0  0  0  0  0  0
    0.2328   -1.7242   -0.2108 H   0  0  0  0  0  0  0  0  0  0  0  0
    2.1454   -0.8604    1.1886 H   0  0  0  0  0  0  0  0  0  0  0  0
    1.9002    1.1103    2.2127 H   0  0  0  0  0  0  0  0  0  0  0  0
    0.8548    1.3170   -0.5402 H   0  0  0  0  0  0  0  0  0  0  0  0
    1.9638    0.0462   -1.1120 H   0  0  0  0  0  0  0  0  0  0  0  0
    2.5189    1.3022    0.0154 H   0  0  0  0  0  0  0  0  0  0  0  0
   -0.0323   -1.3378    3.0571 N   0  0  0  0  0  0  0  0  0  0  0  0
   -0.3160   -1.9579    4.3301 C   0  0  2  0  0  0  0  0  0  0  0  0
    0.7806   -2.9766    4.6117 C   0  0  0  0  0  0  0  0  0  0  0  0
    1.4718   -3.4797    3.7284 O   0  0  0  0  0  0  0  0  0  0  0  0
   -1.6854   -2.6194    4.3304 C   0  0  0  0  0  0  0  0  0  0  0  0
    0.3885   -0.4134    3.0475 H   0  0  0  0  0  0  0  0  0  0  0  0
   -0.2799   -1.1638    5.0837 H   0  0  0  0  0  0  0  0  0  0  0  0
   -1.7406   -3.4178    3.5815 H   0  0  0  0  0  0  0  0  0  0  0  0
   -1.9108   -3.0644    5.3052 H   0  0  0  0  0  0  0  0  0  0  0  0
   -2.4700   -1.8912    4.0983 H   0  0  0  0  0  0  0  0  0  0  0  0
    0.8677   -3.2900    5.9609 N   0  0  0  0  0  0  0  0  0  0  0  0
    1.8224   -4.2412    6.4803 C   0  0  0  0  0  0  0  0  0  0  0  0
    0.2674   -2.8102    6.6251 H   0  0  0  0  0  0  0  0  0  0  0  0
    1.3611   -5.2390    6.5221 H   0  0  0  0  0  0  0  0  0  0  0  0
    2.7038   -4.2722    5.8228 H   0  0  0  0  0  0  0  0  0  0  0  0
    2.1299   -3.9369    7.4916 H   0  0  0  0  0  0  0  0  0  0  0  0
  1  3  1  0  0  0  0
  1  7  1  0  0  0  0
  1  2  2  0  0  0  0
 32 33  1  0  0  0  0
 33 41  1  0  0  0  0
 33 34  2  0  0  0  0
  8  9  1  0  0  0  0
  9 17  1  0  0  0  0
  9 10  2  0  0  0  0
 18 19  1  0  0  0  0
 19 31  1  0  0  0  0
 19 20  2  0  0  0  0
 32 35  1  0  0  0  0
  8 11  1  0  0  0  0
 21 23  1  0  0  0  0
 41 42  1  0  0  0  0
 31 32  1  0  0  0  0
  7  8  1  0  0  0  0
 18 21  1  0  0  0  0
 17 18  1  0  0  0  0
 21 22  1  0  0  0  0
  3  4  1  0  0  0  0
  3  5  1  0  0  0  0
  3  6  1  0  0  0  0
 35 38  1  0  0  0  0
 35 39  1  0  0  0  0
 35 40  1  0  0  0  0
 11 14  1  0  0  0  0
 11 15  1  0  0  0  0
 11 16  1  0  0  0  0
 23 28  1  0  0  0  0
 23 29  1  0  0  0  0
 23 30  1  0  0  0  0
 42 44  1  0  0  0  0
 42 45  1  0  0  0  0
 42 46  1  0  0  0  0
 32 37  1  0  0  0  0
  8 13  1  0  0  0  0
 18 25  1  0  0  0  0
 21 26  1  0  0  0  0
 41 43  1  0  0  0  0
  7 12  1  0  0  0  0
 31 36  1  0  0  0  0
 17 24  1  0  0  0  0
 22 27  1  0  0  0  0
M  END
$$$$

  -OEChem-05262214473D

 46 45  0     1  0  0  0  0  0999 V2000
   -4.6700    2.7214    1.5150 C   0  0  0  0  0  0  0  0  0  0  0  0
   -5.4532    2.5715    0.5845 O   0  0  0  0  0  0  0  0  0  0  0  0
   -5.0996    3.4865    2.7226 C   0  0  0  0  0  0  0  0  0  0  0  0
   -4.8796    4.5629    2.6387 H   0  0  0  0  0  0  0  0  0  0  0  0
   -6.1861    3.4241    2.8954 H   0  0  0  0  0  0  0  0  0  0  0  0
   -4.6369    3.1693    3.6708 H   0  0  0  0  0  0  0  0  0  0  0  0
   -3.3731    2.2391    1.5790 N   0  0  0  0  0  0  0  0  0  0  0  0
   -2.7599    1.4751    0.5247 C   0  0  2  0  0  0  0  0  0  0  0  0
   -1.5143    0.8067    1.0915 C   0  0  0  0  0  0  0  0  0  0  0  0
   -0.9247    1.2213    2.0872 O   0  0  0  0  0  0  0  0  0  0  0  0
   -2.4106    2.3553   -0.6653 C   0  0  0  0  0  0  0  0  0  0  0  0
   -2.8254    2.4352    2.4150 H   0  0  0  0  0  0  0  0  0  0  0  0
   -3.4836    0.7082    0.2278 H   0  0  0  0  0  0  0  0  0  0  0  0
   -1.6866    3.1298   -0.3871 H   0  0  0  0  0  0  0  0  0  0  0  0
   -1.9704    1.7677   -1.4777 H   0  0  0  0  0  0  0  0  0  0  0  0
   -3.3030    2.8584   -1.0531 H   0  0  0  0  0  0  0  0  0  0  0  0
   -1.1107   -0.2839    0.3303 N   0  0  0  0  0  0  0  0  0  0  0  0
    0.0490   -1.0750    0.6539 C   0  0  2  0  0  0  0  0  0  0  0  0
   -0.3123   -1.9557    1.8465 C   0  0  0  0  0  0  0  0  0  0  0  0
   -0.5772   -3.1515    1.7408 O   0  0  0  0  0  0  0  0  0  0  0  0
    1.2918   -0.2194    0.9397 C   0  0  2  0  0  0  0  0  0  0  0  0
    1.0675    0.6391    2.0570 O   0  0  0  0  0  0  0  0  0  0  0  0
    1.6763    0.6537   -0.2487 C   0  0  0  0  0  0  0  0  0  0  0  0
   -1.6733   -0.5660   -0.4691 H   0  0  0  0  0  0  0  0  0  0  0  0
    0.2328   -1.7242   -0.2108 H   0  0  0  0  0  0  0  0  0  0  0  0
    2.1454   -0.8604    1.1886 H   0  0  0  0  0  0  0  0  0  0  0  0
    1.9002    1.1103    2.2127 H   0  0  0  0  0  0  0  0  0  0  0  0
    0.8548    1.3170   -0.5402 H   0  0  0  0  0  0  0  0  0  0  0  0
    1.9638    0.0462   -1.1120 H   0  0  0  0  0  0  0  0  0  0  0  0
    2.5189    1.3022    0.0154 H   0  0  0  0  0  0  0  0  0  0  0  0
   -0.3519   -1.2384    3.0338 N   0  0  0  0  0  0  0  0  0  0  0  0
   -0.7021   -1.8447    4.2968 C   0  0  2  0  0  0  0  0  0  0  0  0
    0.5167   -2.6003    4.8097 C   0  0  0  0  0  0  0  0  0  0  0  0
    1.4226   -2.9895    4.0755 O   0  0  0  0  0  0  0  0  0  0  0  0
   -1.8967   -2.7744    4.1519 C   0  0  0  0  0  0  0  0  0  0  0  0
   -0.1258   -0.2483    3.0136 H   0  0  0  0  0  0  0  0  0  0  0  0
   -0.9414   -1.0265    4.9848 H   0  0  0  0  0  0  0  0  0  0  0  0
   -1.6758   -3.6006    3.4662 H   0  0  0  0  0  0  0  0  0  0  0  0
   -2.1788   -3.2112    5.1156 H   0  0  0  0  0  0  0  0  0  0  0  0
   -2.7639   -2.2358    3.7548 H   0  0  0  0  0  0  0  0  0  0  0  0
    0.4529   -2.8266    6.1774 N   0  0  0  0  0  0  0  0  0  0  0  0
    1.4841   -3.5348    6.8994 C   0  0  0  0  0  0  0  0  0  0  0  0
   -0.3263   -2.4515    6.7102 H   0  0  0  0  0  0  0  0  0  0  0  0
    1.2283   -4.6034    6.9511 H   0  0  0  0  0  0  0  0  0  0  0  0
    2.4455   -3.4129    6.3791 H   0  0  0  0  0  0  0  0  0  0  0  0
    1.5641   -3.1274    7.9180 H   0  0  0  0  0  0  0  0  0  0  0  0
  1  3  1  0  0  0  0
  1  7  1  0  0  0  0
  1  2  2  0  0  0  0
 32 33  1  0  0  0  0
 33 41  1  0  0  0  0
 33 34  2  0  0  0  0
  8  9  1  0  0  0  0
  9 17  1  0  0  0  0
  9 10  2  0  0  0  0
 18 19  1  0  0  0  0
 19 31  1  0  0  0  0
 19 20  2  0  0  0  0
 32 35  1  0  0  0  0
  8 11  1  0  0  0  0
 21 23  1  0  0  0  0
 41 42  1  0  0  0  0
 31 32  1  0  0  0  0
  7  8  1  0  0  0  0
 18 21  1  0  0  0  0
 17 18  1  0  0  0  0
 21 22  1  0  0  0  0
  3  4  1  0  0  0  0
  3  5  1  0  0  0  0
  3  6  1  0  0  0  0
 35 38  1  0  0  0  0
 35 39  1  0  0  0  0
 35 40  1  0  0  0  0
 11 14  1  0  0  0  0
 11 15  1  0  0  0  0
 11 16  1  0  0  0  0
 23 28  1  0  0  0  0
 23 29  1  0  0  0  0
 23 30  1  0  0  0  0
 42 44  1  0  0  0  0
 42 45  1  0  0  0  0
 42 46  1  0  0  0  0
 32 37  1  0  0  0  0
  8 13  1  0  0  0  0
 18 25  1  0  0  0  0
 21 26  1  0  0  0  0
 41 43  1  0  0  0  0
  7 12  1  0  0  0  0
 31 36  1  0  0  0  0
 17 24  1  0  0  0  0
 22 27  1  0  0  0  0
M  END
$$$$

  -OEChem-05262214473D

 46 45  0     1  0  0  0  0  0999 V2000
   -4.6700    2.7214    1.5150 C   0  0  0  0  0  0  0  0  0  0  0  0
   -5.4532    2.5715    0.5845 O   0  0  0  0  0  0  0  0  0  0  0  0
   -5.0996    3.4865    2.7226 C   0  0  0  0  0  0  0  0  0  0  0  0
   -4.8796    4.5629    2.6387 H   0  0  0  0  0  0  0  0  0  0  0  0
   -6.1861    3.4241    2.8954 H   0  0  0  0  0  0  0  0  0  0  0  0
   -4.6369    3.1693    3.6708 H   0  0  0  0  0  0  0  0  0  0  0  0
   -3.3731    2.2391    1.5790 N   0  0  0  0  0  0  0  0  0  0  0  0
   -2.7599    1.4751    0.5247 C   0  0  2  0  0  0  0  0  0  0  0  0
   -1.5143    0.8067    1.0915 C   0  0  0  0  0  0  0  0  0  0  0  0
   -0.9247    1.2213    2.0872 O   0  0  0  0  0  0  0  0  0  0  0  0
   -2.4106    2.3553   -0.6653 C   0  0  0  0  0  0  0  0  0  0  0  0
   -2.8254    2.4352    2.4150 H   0  0  0  0  0  0  0  0  0  0  0  0
   -3.4836    0.7082    0.2278 H   0  0  0  0  0  0  0  0  0  0  0  0
   -1.6866    3.1298   -0.3871 H   0  0  0  0  0  0  0  0  0  0  0  0
   -1.9704    1.7677   -1.4777 H   0  0  0  0  0  0  0  0  0  0  0  0
   -3.3030    2.8584   -1.0531 H   0  0  0  0  0  0  0  0  0  0  0  0
   -1.1107   -0.2839    0.3303 N   0  0  0  0  0  0  0  0  0  0  0  0
    0.0490   -1.0750    0.6539 C   0  0  2  0  0  0  0  0  0  0  0  0
   -0.3123   -1.9557    1.8465 C   0  0  0  0  0  0  0  0  0  0  0  0
   -0.3159   -3.1840    1.7960 O   0  0  0  0  0  0  0  0  0  0  0  0
    1.2918   -0.2194    0.9397 C   0  0  2  0  0  0  0  0  0  0  0  0
    1.0675    0.6391    2.0570 O   0  0  0  0  0  0  0  0  0  0  0  0
    1.6763    0.6537   -0.2487 C   0  0  0  0  0  0  0  0  0  0  0  0
   -1.6733   -0.5660   -0.4691 H   0  0  0  0  0  0  0  0  0  0  0  0
    0.2328   -1.7242   -0.2108 H   0  0  0  0  0  0  0  0  0  0  0  0
    2.1454   -0.8604    1.1886 H   0  0  0  0  0  0  0  0  0  0  0  0
    1.9002    1.1103    2.2127 H   0  0  0  0  0  0  0  0  0  0  0  0
    0.8548    1.3170   -0.5402 H   0  0  0  0  0  0  0  0  0  0  0  0
    1.9638    0.0462   -1.1120 H   0  0  0  0  0  0  0  0  0  0  0  0
    2.5189    1.3022    0.0154 H   0  0  0  0  0  0  0  0  0  0  0  0
   -0.6772   -1.2084    2.9574 N   0  0  0  0  0  0  0  0  0  0  0  0
   -1.0929   -1.8154    4.2000 C   0  0  2  0  0  0  0  0  0  0  0  0
    0.1561   -2.2781    4.9384 C   0  0  0  0  0  0  0  0  0  0  0  0
    1.2241   -2.5046    4.3734 O   0  0  0  0  0  0  0  0  0  0  0  0
   -2.0429   -2.9779    3.9574 C   0  0  0  0  0  0  0  0  0  0  0  0
   -0.6509   -0.1949    2.8940 H   0  0  0  0  0  0  0  0  0  0  0  0
   -1.5934   -1.0337    4.7819 H   0  0  0  0  0  0  0  0  0  0  0  0
   -1.5590   -3.7710    3.3757 H   0  0  0  0  0  0  0  0  0  0  0  0
   -2.3795   -3.4188    4.9014 H   0  0  0  0  0  0  0  0  0  0  0  0
   -2.9268   -2.6491    3.4002 H   0  0  0  0  0  0  0  0  0  0  0  0
   -0.0738   -2.4497    6.2963 N   0  0  0  0  0  0  0  0  0  0  0  0
    0.9517   -2.8953    7.2105 C   0  0  0  0  0  0  0  0  0  0  0  0
   -0.9851   -2.2199    6.6817 H   0  0  0  0  0  0  0  0  0  0  0  0
    0.9073   -3.9901    7.3068 H   0  0  0  0  0  0  0  0  0  0  0  0
    1.9391   -2.6010    6.8253 H   0  0  0  0  0  0  0  0  0  0  0  0
    0.7900   -2.4338    8.1958 H   0  0  0  0  0  0  0  0  0  0  0  0
  1  3  1  0  0  0  0
  1  7  1  0  0  0  0
  1  2  2  0  0  0  0
 32 33  1  0  0  0  0
 33 41  1  0  0  0  0
 33 34  2  0  0  0  0
  8  9  1  0  0  0  0
  9 17  1  0  0  0  0
  9 10  2  0  0  0  0
 18 19  1  0  0  0  0
 19 31  1  0  0  0  0
 19 20  2  0  0  0  0
 32 35  1  0  0  0  0
  8 11  1  0  0  0  0
 21 23  1  0  0  0  0
 41 42  1  0  0  0  0
 31 32  1  0  0  0  0
  7  8  1  0  0  0  0
 18 21  1  0  0  0  0
 17 18  1  0  0  0  0
 21 22  1  0  0  0  0
  3  4  1  0  0  0  0
  3  5  1  0  0  0  0
  3  6  1  0  0  0  0
 35 38  1  0  0  0  0
 35 39  1  0  0  0  0
 35 40  1  0  0  0  0
 11 14  1  0  0  0  0
 11 15  1  0  0  0  0
 11 16  1  0  0  0  0
 23 28  1  0  0  0  0
 23 29  1  0  0  0  0
 23 30  1  0  0  0  0
 42 44  1  0  0  0  0
 42 45  1  0  0  0  0
 42 46  1  0  0  0  0
 32 37  1  0  0  0  0
  8 13  1  0  0  0  0
 18 25  1  0  0  0  0
 21 26  1  0  0  0  0
 41 43  1  0  0  0  0
  7 12  1  0  0  0  0
 31 36  1  0  0  0  0
 17 24  1  0  0  0  0
 22 27  1  0  0  0  0
M  END
$$$$

  -OEChem-05262214473D

 46 45  0     1  0  0  0  0  0999 V2000
   -4.6700    2.7214    1.5150 C   0  0  0  0  0  0  0  0  0  0  0  0
   -5.4532    2.5715    0.5845 O   0  0  0  0  0  0  0  0  0  0  0  0
   -5.0996    3.4865    2.7226 C   0  0  0  0  0  0  0  0  0  0  0  0
   -4.8796    4.5629    2.6387 H   0  0  0  0  0  0  0  0  0  0  0  0
   -6.1861    3.4241    2.8954 H   0  0  0  0  0  0  0  0  0  0  0  0
   -4.6369    3.1693    3.6708 H   0  0  0  0  0  0  0  0  0  0  0  0
   -3.3731    2.2391    1.5790 N   0  0  0  0  0  0  0  0  0  0  0  0
   -2.7599    1.4751    0.5247 C   0  0  2  0  0  0  0  0  0  0  0  0
   -1.5143    0.8067    1.0915 C   0  0  0  0  0  0  0  0  0  0  0  0
   -0.9247    1.2213    2.0872 O   0  0  0  0  0  0  0  0  0  0  0  0
   -2.4106    2.3553   -0.6653 C   0  0  0  0  0  0  0  0  0  0  0  0
   -2.8254    2.4352    2.4150 H   0  0  0  0  0  0  0  0  0  0  0  0
   -3.4836    0.7082    0.2278 H   0  0  0  0  0  0  0  0  0  0  0  0
   -1.6866    3.1298   -0.3871 H   0  0  0  0  0  0  0  0  0  0  0  0
   -1.9704    1.7677   -1.4777 H   0  0  0  0  0  0  0  0  0  0  0  0
   -3.3030    2.8584   -1.0531 H   0  0  0  0  0  0  0  0  0  0  0  0
   -1.1107   -0.2839    0.3303 N   0  0  0  0  0  0  0  0  0  0  0  0
    0.0490   -1.0750    0.6539 C   0  0  2  0  0  0  0  0  0  0  0  0
   -0.3123   -1.9557    1.8465 C   0  0  0  0  0  0  0  0  0  0  0  0
   -0.0652   -3.1592    1.8903 O   0  0  0  0  0  0  0  0  0  0  0  0
    1.2918   -0.2194    0.9397 C   0  0  2  0  0  0  0  0  0  0  0  0
    1.0675    0.6391    2.0570 O   0  0  0  0  0  0  0  0  0  0  0  0
    1.6763    0.6537   -0.2487 C   0  0  0  0  0  0  0  0  0  0  0  0
   -1.6733   -0.5660   -0.4691 H   0  0  0  0  0  0  0  0  0  0  0  0
    0.2328   -1.7242   -0.2108 H   0  0  0  0  0  0  0  0  0  0  0  0
    2.1454   -0.8604    1.1886 H   0  0  0  0  0  0  0  0  0  0  0  0
    1.9002    1.1103    2.2127 H   0  0  0  0  0  0  0  0  0  0  0  0
    0.8548    1.3170   -0.5402 H   0  0  0  0  0  0  0  0  0  0  0  0
    1.9638    0.0462   -1.1120 H   0  0  0  0  0  0  0  0  0  0  0  0
    2.5189    1.3022    0.0154 H   0  0  0  0  0  0  0  0  0  0  0  0
   -0.9861   -1.2499    2.8331 N   0  0  0  0  0  0  0  0  0  0  0  0
   -1.4619   -1.8721    4.0463 C   0  0  2  0  0  0  0  0  0  0  0  0
   -0.2766   -2.0319    4.9891 C   0  0  0  0  0  0  0  0  0  0  0  0
    0.8898   -2.0582    4.6018 O   0  0  0  0  0  0  0  0  0  0  0  0
   -2.1138   -3.2159    3.7601 C   0  0  0  0  0  0  0  0  0  0  0  0
   -1.1511   -0.2569    2.6967 H   0  0  0  0  0  0  0  0  0  0  0  0
   -2.1914   -1.1851    4.4890 H   0  0  0  0  0  0  0  0  0  0  0  0
   -1.3983   -3.9176    3.3162 H   0  0  0  0  0  0  0  0  0  0  0  0
   -2.4995   -3.6732    4.6773 H   0  0  0  0  0  0  0  0  0  0  0  0
   -2.9475   -3.1031    3.0586 H   0  0  0  0  0  0  0  0  0  0  0  0
   -0.6766   -2.1849    6.3092 N   0  0  0  0  0  0  0  0  0  0  0  0
    0.2617   -2.3661    7.3922 C   0  0  0  0  0  0  0  0  0  0  0  0
   -1.6640   -2.1311    6.5416 H   0  0  0  0  0  0  0  0  0  0  0  0
    0.4200   -3.4409    7.5648 H   0  0  0  0  0  0  0  0  0  0  0  0
    1.2191   -1.8919    7.1308 H   0  0  0  0  0  0  0  0  0  0  0  0
   -0.1394   -1.9033    8.3060 H   0  0  0  0  0  0  0  0  0  0  0  0
  1  3  1  0  0  0  0
  1  7  1  0  0  0  0
  1  2  2  0  0  0  0
 32 33  1  0  0  0  0
 33 41  1  0  0  0  0
 33 34  2  0  0  0  0
  8  9  1  0  0  0  0
  9 17  1  0  0  0  0
  9 10  2  0  0  0  0
 18 19  1  0  0  0  0
 19 31  1  0  0  0  0
 19 20  2  0  0  0  0
 32 35  1  0  0  0  0
  8 11  1  0  0  0  0
 21 23  1  0  0  0  0
 41 42  1  0  0  0  0
 31 32  1  0  0  0  0
  7  8  1  0  0  0  0
 18 21  1  0  0  0  0
 17 18  1  0  0  0  0
 21 22  1  0  0  0  0
  3  4  1  0  0  0  0
  3  5  1  0  0  0  0
  3  6  1  0  0  0  0
 35 38  1  0  0  0  0
 35 39  1  0  0  0  0
 35 40  1  0  0  0  0
 11 14  1  0  0  0  0
 11 15  1  0  0  0  0
 11 16  1  0  0  0  0
 23 28  1  0  0  0  0
 23 29  1  0  0  0  0
 23 30  1  0  0  0  0
 42 44  1  0  0  0  0
 42 45  1  0  0  0  0
 42 46  1  0  0  0  0
 32 37  1  0  0  0  0
  8 13  1  0  0  0  0
 18 25  1  0  0  0  0
 21 26  1  0  0  0  0
 41 43  1  0  0  0  0
  7 12  1  0  0  0  0
 31 36  1  0  0  0  0
 17 24  1  0  0  0  0
 22 27  1  0  0  0  0
M  END
$$$$

  -OEChem-05262214473D

 46 45  0     1  0  0  0  0  0999 V2000
   -4.6700    2.7214    1.5150 C   0  0  0  0  0  0  0  0  0  0  0  0
   -5.4532    2.5715    0.5845 O   0  0  0  0  0  0  0  0  0  0  0  0
   -5.0996    3.4865    2.7226 C   0  0  0  0  0  0  0  0  0  0  0  0
   -4.8796    4.5629    2.6387 H   0  0  0  0  0  0  0  0  0  0  0  0
   -6.1861    3.4241    2.8954 H   0  0  0  0  0  0  0  0  0  0  0  0
   -4.6369    3.1693    3.6708 H   0  0  0  0  0  0  0  0  0  0  0  0
   -3.3731    2.2391    1.5790 N   0  0  0  0  0  0  0  0  0  0  0  0
   -2.7599    1.4751    0.5247 C   0  0  2  0  0  0  0  0  0  0  0  0
   -1.5143    0.8067    1.0915 C   0  0  0  0  0  0  0  0  0  0  0  0
   -0.9247    1.2213    2.0872 O   0  0  0  0  0  0  0  0  0  0  0  0
   -2.4106    2.3553   -0.6653 C   0  0  0  0  0  0  0  0  0  0  0  0
   -2.8254    2.4352    2.4150 H   0  0  0  0  0  0  0  0  0  0  0  0
   -3.4836    0.7082    0.2278 H   0  0  0  0  0  0  0  0  0  0  0  0
   -1.6866    3.1298   -0.3871 H   0  0  0  0  0  0  0  0  0  0  0  0
   -1.9704    1.7677   -1.4777 H   0  0  0  0  0  0  0  0  0  0  0  0
   -3.3030    2.8584   -1.0531 H   0  0  0  0  0  0  0  0  0  0  0  0
   -1.1107   -0.2839    0.3303 N   0  0  0  0  0  0  0  0  0  0  0  0
    0.0490   -1.0750    0.6539 C   0  0  2  0  0  0  0  0  0  0  0  0
   -0.3123   -1.9557    1.8465 C   0  0  0  0  0  0  0  0  0  0  0  0
    0.1579   -3.0787    2.0173 O   0  0  0  0  0  0  0  0  0  0  0  0
    1.2918   -0.2194    0.9397 C   0  0  2  0  0  0  0  0  0  0  0  0
    1.0675    0.6391    2.0570 O   0  0  0  0  0  0  0  0  0  0  0  0
    1.6763    0.6537   -0.2487 C   0  0  0  0  0  0  0  0  0  0  0  0
   -1.6733   -0.5660   -0.4691 H   0  0  0  0  0  0  0  0  0  0  0  0
    0.2328   -1.7242   -0.2108 H   0  0  0  0  0  0  0  0  0  0  0  0
    2.1454   -0.8604    1.1886 H   0  0  0  0  0  0  0  0  0  0  0  0
    1.9002    1.1103    2.2127 H   0  0  0  0  0  0  0  0  0  0  0  0
    0.8548    1.3170   -0.5402 H   0  0  0  0  0  0  0  0  0  0  0  0
    1.9638    0.0462   -1.1120 H   0  0  0  0  0  0  0  0  0  0  0  0
    2.5189    1.3022    0.0154 H   0  0  0  0  0  0  0  0  0  0  0  0
   -1.2575   -1.3601    2.6696 N   0  0  0  0  0  0  0  0  0  0  0  0
   -1.7840   -2.0109    3.8463 C   0  0  2  0  0  0  0  0  0  0  0  0
   -0.7519   -1.8785    4.9584 C   0  0  0  0  0  0  0  0  0  0  0  0
    0.4424   -1.6807    4.7451 O   0  0  0  0  0  0  0  0  0  0  0  0
   -2.1048   -3.4722    3.5736 C   0  0  0  0  0  0  0  0  0  0  0  0
   -1.5922   -0.4301    2.4352 H   0  0  0  0  0  0  0  0  0  0  0  0
   -2.6946   -1.4701    4.1261 H   0  0  0  0  0  0  0  0  0  0  0  0
   -1.2044   -4.0303    3.2917 H   0  0  0  0  0  0  0  0  0  0  0  0
   -2.5304   -3.9568    4.4585 H   0  0  0  0  0  0  0  0  0  0  0  0
   -2.8247   -3.5667    2.7535 H   0  0  0  0  0  0  0  0  0  0  0  0
   -1.3144   -2.0502    6.2155 N   0  0  0  0  0  0  0  0  0  0  0  0
   -0.5391   -1.9834    7.4322 C   0  0  0  0  0  0  0  0  0  0  0  0
   -2.3168   -2.1913    6.2994 H   0  0  0  0  0  0  0  0  0  0  0  0
   -0.2002   -2.9931    7.7076 H   0  0  0  0  0  0  0  0  0  0  0  0
    0.3346   -1.3338    7.2750 H   0  0  0  0  0  0  0  0  0  0  0  0
   -1.1609   -1.5722    8.2410 H   0  0  0  0  0  0  0  0  0  0  0  0
  1  3  1  0  0  0  0
  1  7  1  0  0  0  0
  1  2  2  0  0  0  0
 32 33  1  0  0  0  0
 33 41  1  0  0  0  0
 33 34  2  0  0  0  0
  8  9  1  0  0  0  0
  9 17  1  0  0  0  0
  9 10  2  0  0  0  0
 18 19  1  0  0  0  0
 19 31  1  0  0  0  0
 19 20  2  0  0  0  0
 32 35  1  0  0  0  0
  8 11  1  0  0  0  0
 21 23  1  0  0  0  0
 41 42  1  0  0  0  0
 31 32  1  0  0  0  0
  7  8  1  0  0  0  0
 18 21  1  0  0  0  0
 17 18  1  0  0  0  0
 21 22  1  0  0  0  0
  3  4  1  0  0  0  0
  3  5  1  0  0  0  0
  3  6  1  0  0  0  0
 35 38  1  0  0  0  0
 35 39  1  0  0  0  0
 35 40  1  0  0  0  0
 11 14  1  0  0  0  0
 11 15  1  0  0  0  0
 11 16  1  0  0  0  0
 23 28  1  0  0  0  0
 23 29  1  0  0  0  0
 23 30  1  0  0  0  0
 42 44  1  0  0  0  0
 42 45  1  0  0  0  0
 42 46  1  0  0  0  0
 32 37  1  0  0  0  0
  8 13  1  0  0  0  0
 18 25  1  0  0  0  0
 21 26  1  0  0  0  0
 41 43  1  0  0  0  0
  7 12  1  0  0  0  0
 31 36  1  0  0  0  0
 17 24  1  0  0  0  0
 22 27  1  0  0  0  0
M  END
$$$$

  -OEChem-05262214473D

 46 45  0     1  0  0  0  0  0999 V2000
   -4.6700    2.7214    1.5150 C   0  0  0  0  0  0  0  0  0  0  0  0
   -5.4532    2.5715    0.5845 O   0  0  0  0  0  0  0  0  0  0  0  0
   -5.0996    3.4865    2.7226 C   0  0  0  0  0  0  0  0  0  0  0  0
   -4.8796    4.5629    2.6387 H   0  0  0  0  0  0  0  0  0  0  0  0
   -6.1861    3.4241    2.8954 H   0  0  0  0  0  0  0  0  0  0  0  0
   -4.6369    3.1693    3.6708 H   0  0  0  0  0  0  0  0  0  0  0  0
   -3.3731    2.2391    1.5790 N   0  0  0  0  0  0  0  0  0  0  0  0
   -2.7599    1.4751    0.5247 C   0  0  2  0  0  0  0  0  0  0  0  0
   -1.5143    0.8067    1.0915 C   0  0  0  0  0  0  0  0  0  0  0  0
   -0.9247    1.2213    2.0872 O   0  0  0  0  0  0  0  0  0  0  0  0
   -2.4106    2.3553   -0.6653 C   0  0  0  0  0  0  0  0  0  0  0  0
   -2.8254    2.4352    2.4150 H   0  0  0  0  0  0  0  0  0  0  0  0
   -3.4836    0.7082    0.2278 H   0  0  0  0  0  0  0  0  0  0  0  0
   -1.6866    3.1298   -0.3871 H   0  0  0  0  0  0  0  0  0  0  0  0
   -1.9704    1.7677   -1.4777 H   0  0  0  0  0  0  0  0  0  0  0  0
   -3.3030    2.8584   -1.0531 H   0  0  0  0  0  0  0  0  0  0  0  0
   -1.1107   -0.2839    0.3303 N   0  0  0  0  0  0  0  0  0  0  0  0
    0.0490   -1.0750    0.6539 C   0  0  2  0  0  0  0  0  0  0  0  0
   -0.3123   -1.9557    1.8465 C   0  0  0  0  0  0  0  0  0  0  0  0
    0.3381   -2.9481    2.1684 O   0  0  0  0  0  0  0  0  0  0  0  0
    1.2918   -0.2194    0.9397 C   0  0  2  0  0  0  0  0  0  0  0  0
    1.0675    0.6391    2.0570 O   0  0  0  0  0  0  0  0  0  0  0  0
    1.6763    0.6537   -0.2487 C   0  0  0  0  0  0  0  0  0  0  0  0
   -1.6733   -0.5660   -0.4691 H   0  0  0  0  0  0  0  0  0  0  0  0
    0.2328   -1.7242   -0.2108 H   0  0  0  0  0  0  0  0  0  0  0  0
    2.1454   -0.8604    1.1886 H   0  0  0  0  0  0  0  0  0  0  0  0
    1.9002    1.1103    2.2127 H   0  0  0  0  0  0  0  0  0  0  0  0
    0.8548    1.3170   -0.5402 H   0  0  0  0  0  0  0  0  0  0  0  0
    1.9638    0.0462   -1.1120 H   0  0  0  0  0  0  0  0  0  0  0  0
    2.5189    1.3022    0.0154 H   0  0  0  0  0  0  0  0  0  0  0  0
   -1.4730   -1.5315    2.4778 N   0  0  0  0  0  0  0  0  0  0  0  0
   -2.0371   -2.2224    3.6134 C   0  0  2  0  0  0  0  0  0  0  0  0
   -1.2375   -1.8284    4.8483 C   0  0  0  0  0  0  0  0  0  0  0  0
   -0.0874   -1.3977    4.7935 O   0  0  0  0  0  0  0  0  0  0  0  0
   -2.0163   -3.7294    3.4104 C   0  0  0  0  0  0  0  0  0  0  0  0
   -1.9442   -0.7026    2.1273 H   0  0  0  0  0  0  0  0  0  0  0  0
   -3.0689   -1.8695    3.7178 H   0  0  0  0  0  0  0  0  0  0  0  0
   -0.9907   -4.1014    3.3039 H   0  0  0  0  0  0  0  0  0  0  0  0
   -2.4702   -4.2505    4.2598 H   0  0  0  0  0  0  0  0  0  0  0  0
   -2.5667   -4.0084    2.5055 H   0  0  0  0  0  0  0  0  0  0  0  0
   -1.9436   -2.0549    6.0214 N   0  0  0  0  0  0  0  0  0  0  0  0
   -1.3959   -1.7733    7.3278 C   0  0  0  0  0  0  0  0  0  0  0  0
   -2.8990   -2.3964    5.9716 H   0  0  0  0  0  0  0  0  0  0  0  0
   -0.9113   -2.6773    7.7254 H   0  0  0  0  0  0  0  0  0  0  0  0
   -0.6542   -0.9649    7.2479 H   0  0  0  0  0  0  0  0  0  0  0  0
   -2.2049   -1.4630    8.0054 H   0  0  0  0  0  0  0  0  0  0  0  0
  1  3  1  0  0  0  0
  1  7  1  0  0  0  0
  1  2  2  0  0  0  0
 32 33  1  0  0  0  0
 33 41  1  0  0  0  0
 33 34  2  0  0  0  0
  8  9  1  0  0  0  0
  9 17  1  0  0  0  0
  9 10  2  0  0  0  0
 18 19  1  0  0  0  0
 19 31  1  0  0  0  0
 19 20  2  0  0  0  0
 32 35  1  0  0  0  0
  8 11  1  0  0  0  0
 21 23  1  0  0  0  0
 41 42  1  0  0  0  0
 31 32  1  0  0  0  0
  7  8  1  0  0  0  0
 18 21  1  0  0  0  0
 17 18  1  0  0  0  0
 21 22  1  0  0  0  0
  3  4  1  0  0  0  0
  3  5  1  0  0  0  0
  3  6  1  0  0  0  0
 35 38  1  0  0  0  0
 35 39  1  0  0  0  0
 35 40  1  0  0  0  0
 11 14  1  0  0  0  0
 11 15  1  0  0  0  0
 11 16  1  0  0  0  0
 23 28  1  0  0  0  0
 23 29  1  0  0  0  0
 23 30  1  0  0  0  0
 42 44  1  0  0  0  0
 42 45  1  0  0  0  0
 42 46  1  0  0  0  0
 32 37  1  0  0  0  0
  8 13  1  0  0  0  0
 18 25  1  0  0  0  0
 21 26  1  0  0  0  0
 41 43  1  0  0  0  0
  7 12  1  0  0  0  0
 31 36  1  0  0  0  0
 17 24  1  0  0  0  0
 22 27  1  0  0  0  0
M  END
$$$$

  -OEChem-05262214473D

 46 45  0     1  0  0  0  0  0999 V2000
   -4.6700    2.7214    1.5150 C   0  0  0  0  0  0  0  0  0  0  0  0
   -5.4532    2.5715    0.5845 O   0  0  0  0  0  0  0  0  0  0  0  0
   -5.0996    3.4865    2.7226 C   0  0  0  0  0  0  0  0  0  0  0  0
   -4.8796    4.5629    2.6387 H   0  0  0  0  0  0  0  0  0  0  0  0
   -6.1861    3.4241    2.8954 H   0  0  0  0  0  0  0  0  0  0  0  0
   -4.6369    3.1693    3.6708 H   0  0  0  0  0  0  0  0  0  0  0  0
   -3.3731    2.2391    1.5790 N   0  0  0  0  0  0  0  0  0  0  0  0
   -2.7599    1.4751    0.5247 C   0  0  2  0  0  0  0  0  0  0  0  0
   -1.5143    0.8067    1.0915 C   0  0  0  0  0  0  0  0  0  0  0  0
   -0.9247    1.2213    2.0872 O   0  0  0  0  0  0  0  0  0  0  0  0
   -2.4106    2.3553   -0.6653 C   0  0  0  0  0  0  0  0  0  0  0  0
   -2.8254    2.4352    2.4150 H   0  0  0  0  0  0  0  0  0  0  0  0
   -3.4836    0.7082    0.2278 H   0  0  0  0  0  0  0  0  0  0  0  0
   -1.6866    3.1298   -0.3871 H   0  0  0  0  0  0  0  0  0  0  0  0
   -1.9704    1.7677   -1.4777 H   0  0  0  0  0  0  0  0  0  0  0  0
   -3.3030    2.8584   -1.0531 H   0  0  0  0  0  0  0  0  0  0  0  0
   -1.1107   -0.2839    0.3303 N   0  0  0  0  0  0  0  0  0  0  0  0
    0.0490   -1.0750    0.6539 C   0  0  2  0  0  0  0  0  0  0  0  0
   -0.3123   -1.9557    1.8465 C   0  0  0  0  0  0  0  0  0  0  0  0
    0.4632   -2.7761    2.3332 O   0  0  0  0  0  0  0  0  0  0  0  0
    1.2918   -0.2194    0.9397 C   0  0  2  0  0  0  0  0  0  0  0  0
    1.0675    0.6391    2.0570 O   0  0  0  0  0  0  0  0  0  0  0  0
    1.6763    0.6537   -0.2487 C   0  0  0  0  0  0  0  0  0  0  0  0
   -1.6733   -0.5660   -0.4691 H   0  0  0  0  0  0  0  0  0  0  0  0
    0.2328   -1.7242   -0.2108 H   0  0  0  0  0  0  0  0  0  0  0  0
    2.1454   -0.8604    1.1886 H   0  0  0  0  0  0  0  0  0  0  0  0
    1.9002    1.1103    2.2127 H   0  0  0  0  0  0  0  0  0  0  0  0
    0.8548    1.3170   -0.5402 H   0  0  0  0  0  0  0  0  0  0  0  0
    1.9638    0.0462   -1.1120 H   0  0  0  0  0  0  0  0  0  0  0  0
    2.5189    1.3022    0.0154 H   0  0  0  0  0  0  0  0  0  0  0  0
   -1.6178   -1.7523    2.2708 N   0  0  0  0  0  0  0  0  0  0  0  0
   -2.2039   -2.4922    3.3637 C   0  0  2  0  0  0  0  0  0  0  0  0
   -1.7002   -1.8849    4.6664 C   0  0  0  0  0  0  0  0  0  0  0  0
   -0.6638   -1.2286    4.7438 O   0  0  0  0  0  0  0  0  0  0  0  0
   -1.8544   -3.9699    3.2819 C   0  0  0  0  0  0  0  0  0  0  0  0
   -2.1831   -1.0559    1.7941 H   0  0  0  0  0  0  0  0  0  0  0  0
   -3.2885   -2.3560    3.2920 H   0  0  0  0  0  0  0  0  0  0  0  0
   -0.7717   -4.1261    3.3520 H   0  0  0  0  0  0  0  0  0  0  0  0
   -2.3230   -4.5341    4.0950 H   0  0  0  0  0  0  0  0  0  0  0  0
   -2.1911   -4.3981    2.3315 H   0  0  0  0  0  0  0  0  0  0  0  0
   -2.5215   -2.1986    5.7403 N   0  0  0  0  0  0  0  0  0  0  0  0
   -2.2504   -1.7501    7.0861 C   0  0  0  0  0  0  0  0  0  0  0  0
   -3.3709   -2.7323    5.5806 H   0  0  0  0  0  0  0  0  0  0  0  0
   -1.6647   -2.5150    7.6170 H   0  0  0  0  0  0  0  0  0  0  0  0
   -1.6800   -0.8102    7.0514 H   0  0  0  0  0  0  0  0  0  0  0  0
   -3.2003   -1.5832    7.6152 H   0  0  0  0  0  0  0  0  0  0  0  0
  1  3  1  0  0  0  0
  1  7  1  0  0  0  0
  1  2  2  0  0  0  0
 32 33  1  0  0  0  0
 33 41  1  0  0  0  0
 33 34  2  0  0  0  0
  8  9  1  0  0  0  0
  9 17  1  0  0  0  0
  9 10  2  0  0  0  0
 18 19  1  0  0  0  0
 19 31  1  0  0  0  0
 19 20  2  0  0  0  0
 32 35  1  0  0  0  0
  8 11  1  0  0  0  0
 21 23  1  0  0  0  0
 41 42  1  0  0  0  0
 31 32  1  0  0  0  0
  7  8  1  0  0  0  0
 18 21  1  0  0  0  0
 17 18  1  0  0  0  0
 21 22  1  0  0  0  0
  3  4  1  0  0  0  0
  3  5  1  0  0  0  0
  3  6  1  0  0  0  0
 35 38  1  0  0  0  0
 35 39  1  0  0  0  0
 35 40  1  0  0  0  0
 11 14  1  0  0  0  0
 11 15  1  0  0  0  0
 11 16  1  0  0  0  0
 23 28  1  0  0  0  0
 23 29  1  0  0  0  0
 23 30  1  0  0  0  0
 42 44  1  0  0  0  0
 42 45  1  0  0  0  0
 42 46  1  0  0  0  0
 32 37  1  0  0  0  0
  8 13  1  0  0  0  0
 18 25  1  0  0  0  0
 21 26  1  0  0  0  0
 41 43  1  0  0  0  0
  7 12  1  0  0  0  0
 31 36  1  0  0  0  0
 17 24  1  0  0  0  0
 22 27  1  0  0  0  0
M  END
$$$$

  -OEChem-05262214473D

 46 45  0     1  0  0  0  0  0999 V2000
   -4.6700    2.7214    1.5150 C   0  0  0  0  0  0  0  0  0  0  0  0
   -5.4532    2.5715    0.5845 O   0  0  0  0  0  0  0  0  0  0  0  0
   -5.0996    3.4865    2.7226 C   0  0  0  0  0  0  0  0  0  0  0  0
   -4.8796    4.5629    2.6387 H   0  0  0  0  0  0  0  0  0  0  0  0
   -6.1861    3.4241    2.8954 H   0  0  0  0  0  0  0  0  0  0  0  0
   -4.6369    3.1693    3.6708 H   0  0  0  0  0  0  0  0  0  0  0  0
   -3.3731    2.2391    1.5790 N   0  0  0  0  0  0  0  0  0  0  0  0
   -2.7599    1.4751    0.5247 C   0  0  2  0  0  0  0  0  0  0  0  0
   -1.5143    0.8067    1.0915 C   0  0  0  0  0  0  0  0  0  0  0  0
   -0.9247    1.2213    2.0872 O   0  0  0  0  0  0  0  0  0  0  0  0
   -2.4106    2.3553   -0.6653 C   0  0  0  0  0  0  0  0  0  0  0  0
   -2.8254    2.4352    2.4150 H   0  0  0  0  0  0  0  0  0  0  0  0
   -3.4836    0.7082    0.2278 H   0  0  0  0  0  0  0  0  0  0  0  0
   -1.6866    3.1298   -0.3871 H   0  0  0  0  0  0  0  0  0  0  0  0
   -1.9704    1.7677   -1.4777 H   0  0  0  0  0  0  0  0  0  0  0  0
   -3.3030    2.8584   -1.0531 H   0  0  0  0  0  0  0  0  0  0  0  0
   -1.1107   -0.2839    0.3303 N   0  0  0  0  0  0  0  0  0  0  0  0
    0.0490   -1.0750    0.6539 C   0  0  2  0  0  0  0  0  0  0  0  0
   -0.3123   -1.9557    1.8465 C   0  0  0  0  0  0  0  0  0  0  0  0
    0.5246   -2.5747    2.5006 O   0  0  0  0  0  0  0  0  0  0  0  0
    1.2918   -0.2194    0.9397 C   0  0  2  0  0  0  0  0  0  0  0  0
    1.0675    0.6391    2.0570 O   0  0  0  0  0  0  0  0  0  0  0  0
    1.6763    0.6537   -0.2487 C   0  0  0  0  0  0  0  0  0  0  0  0
   -1.6733   -0.5660   -0.4691 H   0  0  0  0  0  0  0  0  0  0  0  0
    0.2328   -1.7242   -0.2108 H   0  0  0  0  0  0  0  0  0  0  0  0
    2.1454   -0.8604    1.1886 H   0  0  0  0  0  0  0  0  0  0  0  0
    1.9002    1.1103    2.2127 H   0  0  0  0  0  0  0  0  0  0  0  0
    0.8548    1.3170   -0.5402 H   0  0  0  0  0  0  0  0  0  0  0  0
    1.9638    0.0462   -1.1120 H   0  0  0  0  0  0  0  0  0  0  0  0
    2.5189    1.3022    0.0154 H   0  0  0  0  0  0  0  0  0  0  0  0
   -1.6820   -2.0076    2.0628 N   0  0  0  0  0  0  0  0  0  0  0  0
   -2.2733   -2.8018    3.1140 C   0  0  2  0  0  0  0  0  0  0  0  0
   -2.1086   -2.0443    4.4250 C   0  0  0  0  0  0  0  0  0  0  0  0
   -1.2472   -1.1848    4.5994 O   0  0  0  0  0  0  0  0  0  0  0  0
   -1.6302   -4.1774    3.1966 C   0  0  0  0  0  0  0  0  0  0  0  0
   -2.2925   -1.4659    1.4581 H   0  0  0  0  0  0  0  0  0  0  0  0
   -3.3387   -2.8965    2.8776 H   0  0  0  0  0  0  0  0  0  0  0  0
   -0.5624   -4.1028    3.4326 H   0  0  0  0  0  0  0  0  0  0  0  0
   -2.0988   -4.7884    3.9751 H   0  0  0  0  0  0  0  0  0  0  0  0
   -1.7235   -4.7091    2.2435 H   0  0  0  0  0  0  0  0  0  0  0  0
   -3.0087   -2.4715    5.3911 N   0  0  0  0  0  0  0  0  0  0  0  0
   -3.0444   -1.9153    6.7236 C   0  0  0  0  0  0  0  0  0  0  0  0
   -3.7003   -3.1762    5.1530 H   0  0  0  0  0  0  0  0  0  0  0  0
   -2.4090   -2.5172    7.3899 H   0  0  0  0  0  0  0  0  0  0  0  0
   -2.6726   -0.8804    6.6989 H   0  0  0  0  0  0  0  0  0  0  0  0
   -4.0791   -1.9245    7.0969 H   0  0  0  0  0  0  0  0  0  0  0  0
  1  3  1  0  0  0  0
  1  7  1  0  0  0  0
  1  2  2  0  0  0  0
 32 33  1  0  0  0  0
 33 41  1  0  0  0  0
 33 34  2  0  0  0  0
  8  9  1  0  0  0  0
  9 17  1  0  0  0  0
  9 10  2  0  0  0  0
 18 19  1  0  0  0  0
 19 31  1  0  0  0  0
 19 20  2  0  0  0  0
 32 35  1  0  0  0  0
  8 11  1  0  0  0  0
 21 23  1  0  0  0  0
 41 42  1  0  0  0  0
 31 32  1  0  0  0  0
  7  8  1  0  0  0  0
 18 21  1  0  0  0  0
 17 18  1  0  0  0  0
 21 22  1  0  0  0  0
  3  4  1  0  0  0  0
  3  5  1  0  0  0  0
  3  6  1  0  0  0  0
 35 38  1  0  0  0  0
 35 39  1  0  0  0  0
 35 40  1  0  0  0  0
 11 14  1  0  0  0  0
 11 15  1  0  0  0  0
 11 16  1  0  0  0  0
 23 28  1  0  0  0  0
 23 29  1  0  0  0  0
 23 30  1  0  0  0  0
 42 44  1  0  0  0  0
 42 45  1  0  0  0  0
 42 46  1  0  0  0  0
 32 37  1  0  0  0  0
  8 13  1  0  0  0  0
 18 25  1  0  0  0  0
 21 26  1  0  0  0  0
 41 43  1  0  0  0  0
  7 12  1  0  0  0  0
 31 36  1  0  0  0  0
 17 24  1  0  0  0  0
 22 27  1  0  0  0  0
M  END
$$$$

  -OEChem-05262214473D

 46 45  0     1  0  0  0  0  0999 V2000
   -4.6700    2.7214    1.5150 C   0  0  0  0  0  0  0  0  0  0  0  0
   -5.4532    2.5715    0.5845 O   0  0  0  0  0  0  0  0  0  0  0  0
   -5.0996    3.4865    2.7226 C   0  0  0  0  0  0  0  0  0  0  0  0
   -4.8796    4.5629    2.6387 H   0  0  0  0  0  0  0  0  0  0  0  0
   -6.1861    3.4241    2.8954 H   0  0  0  0  0  0  0  0  0  0  0  0
   -4.6369    3.1693    3.6708 H   0  0  0  0  0  0  0  0  0  0  0  0
   -3.3731    2.2391    1.5790 N   0  0  0  0  0  0  0  0  0  0  0  0
   -2.7599    1.4751    0.5247 C   0  0  2  0  0  0  0  0  0  0  0  0
   -1.5143    0.8067    1.0915 C   0  0  0  0  0  0  0  0  0  0  0  0
   -0.9247    1.2213    2.0872 O   0  0  0  0  0  0  0  0  0  0  0  0
   -2.4106    2.3553   -0.6653 C   0  0  0  0  0  0  0  0  0  0  0  0
   -2.8254    2.4352    2.4150 H   0  0  0  0  0  0  0  0  0  0  0  0
   -3.4836    0.7082    0.2278 H   0  0  0  0  0  0  0  0  0  0  0  0
   -1.6866    3.1298   -0.3871 H   0  0  0  0  0  0  0  0  0  0  0  0
   -1.9704    1.7677   -1.4777 H   0  0  0  0  0  0  0  0  0  0  0  0
   -3.3030    2.8584   -1.0531 H   0  0  0  0  0  0  0  0  0  0  0  0
   -1.1107   -0.2839    0.3303 N   0  0  0  0  0  0  0  0  0  0  0  0
    0.0490   -1.0750    0.6539 C   0  0  2  0  0  0  0  0  0  0  0  0
   -0.3123   -1.9557    1.8465 C   0  0  0  0  0  0  0  0  0  0  0  0
    0.5182   -2.3574    2.6591 O   0  0  0  0  0  0  0  0  0  0  0  0
    1.2918   -0.2194    0.9397 C   0  0  2  0  0  0  0  0  0  0  0  0
    1.0675    0.6391    2.0570 O   0  0  0  0  0  0  0  0  0  0  0  0
    1.6763    0.6537   -0.2487 C   0  0  0  0  0  0  0  0  0  0  0  0
   -1.6733   -0.5660   -0.4691 H   0  0  0  0  0  0  0  0  0  0  0  0
    0.2328   -1.7242   -0.2108 H   0  0  0  0  0  0  0  0  0  0  0  0
    2.1454   -0.8604    1.1886 H   0  0  0  0  0  0  0  0  0  0  0  0
    1.9002    1.1103    2.2127 H   0  0  0  0  0  0  0  0  0  0  0  0
    0.8548    1.3170   -0.5402 H   0  0  0  0  0  0  0  0  0  0  0  0
    1.9638    0.0462   -1.1120 H   0  0  0  0  0  0  0  0  0  0  0  0
    2.5189    1.3022    0.0154 H   0  0  0  0  0  0  0  0  0  0  0  0
   -1.6614   -2.2800    1.8679 N   0  0  0  0  0  0  0  0  0  0  0  0
   -2.2403   -3.1302    2.8815 C   0  0  2  0  0  0  0  0  0  0  0  0
   -2.4347   -2.2957    4.1406 C   0  0  0  0  0  0  0  0  0  0  0  0
   -1.7981   -1.2695    4.3700 O   0  0  0  0  0  0  0  0  0  0  0  0
   -1.3589   -4.3377    3.1604 C   0  0  0  0  0  0  0  0  0  0  0  0
   -2.2652   -1.9046    1.1424 H   0  0  0  0  0  0  0  0  0  0  0  0
   -3.2160   -3.4541    2.5031 H   0  0  0  0  0  0  0  0  0  0  0  0
   -0.3769   -4.0329    3.5404 H   0  0  0  0  0  0  0  0  0  0  0  0
   -1.8129   -4.9960    3.9084 H   0  0  0  0  0  0  0  0  0  0  0  0
   -1.1958   -4.9204    2.2473 H   0  0  0  0  0  0  0  0  0  0  0  0
   -3.3718   -2.8550    4.9979 N   0  0  0  0  0  0  0  0  0  0  0  0
   -3.7238   -2.2578    6.2649 C   0  0  0  0  0  0  0  0  0  0  0  0
   -3.8649   -3.6978    4.7180 H   0  0  0  0  0  0  0  0  0  0  0  0
   -3.0936   -2.6839    7.0594 H   0  0  0  0  0  0  0  0  0  0  0  0
   -3.5647   -1.1705    6.2144 H   0  0  0  0  0  0  0  0  0  0  0  0
   -4.7815   -2.4637    6.4860 H   0  0  0  0  0  0  0  0  0  0  0  0
  1  3  1  0  0  0  0
  1  7  1  0  0  0  0
  1  2  2  0  0  0  0
 32 33  1  0  0  0  0
 33 41  1  0  0  0  0
 33 34  2  0  0  0  0
  8  9  1  0  0  0  0
  9 17  1  0  0  0  0
  9 10  2  0  0  0  0
 18 19  1  0  0  0  0
 19 31  1  0  0  0  0
 19 20  2  0  0  0  0
 32 35  1  0  0  0  0
  8 11  1  0  0  0  0
 21 23  1  0  0  0  0
 41 42  1  0  0  0  0
 31 32  1  0  0  0  0
  7  8  1  0  0  0  0
 18 21  1  0  0  0  0
 17 18  1  0  0  0  0
 21 22  1  0  0  0  0
  3  4  1  0  0  0  0
  3  5  1  0  0  0  0
  3  6  1  0  0  0  0
 35 38  1  0  0  0  0
 35 39  1  0  0  0  0
 35 40  1  0  0  0  0
 11 14  1  0  0  0  0
 11 15  1  0  0  0  0
 11 16  1  0  0  0  0
 23 28  1  0  0  0  0
 23 29  1  0  0  0  0
 23 30  1  0  0  0  0
 42 44  1  0  0  0  0
 42 45  1  0  0  0  0
 42 46  1  0  0  0  0
 32 37  1  0  0  0  0
  8 13  1  0  0  0  0
 18 25  1  0  0  0  0
 21 26  1  0  0  0  0
 41 43  1  0  0  0  0
  7 12  1  0  0  0  0
 31 36  1  0  0  0  0
 17 24  1  0  0  0  0
 22 27  1  0  0  0  0
M  END
$$$$

  -OEChem-05262214473D

 46 45  0     1  0  0  0  0  0999 V2000
   -4.6700    2.7214    1.5150 C   0  0  0  0  0  0  0  0  0  0  0  0
   -5.4532    2.5715    0.5845 O   0  0  0  0  0  0  0  0  0  0  0  0
   -5.0996    3.4865    2.7226 C   0  0  0  0  0  0  0  0  0  0  0  0
   -4.8796    4.5629    2.6387 H   0  0  0  0  0  0  0  0  0  0  0  0
   -6.1861    3.4241    2.8954 H   0  0  0  0  0  0  0  0  0  0  0  0
   -4.6369    3.1693    3.6708 H   0  0  0  0  0  0  0  0  0  0  0  0
   -3.3731    2.2391    1.5790 N   0  0  0  0  0  0  0  0  0  0  0  0
   -2.7599    1.4751    0.5247 C   0  0  2  0  0  0  0  0  0  0  0  0
   -1.5143    0.8067    1.0915 C   0  0  0  0  0  0  0  0  0  0  0  0
   -0.9247    1.2213    2.0872 O   0  0  0  0  0  0  0  0  0  0  0  0
   -2.4106    2.3553   -0.6653 C   0  0  0  0  0  0  0  0  0  0  0  0
   -2.8254    2.4352    2.4150 H   0  0  0  0  0  0  0  0  0  0  0  0
   -3.4836    0.7082    0.2278 H   0  0  0  0  0  0  0  0  0  0  0  0
   -1.6866    3.1298   -0.3871 H   0  0  0  0  0  0  0  0  0  0  0  0
   -1.9704    1.7677   -1.4777 H   0  0  0  0  0  0  0  0  0  0  0  0
   -3.3030    2.8584   -1.0531 H   0  0  0  0  0  0  0  0  0  0  0  0
   -1.1107   -0.2839    0.3303 N   0  0  0  0  0  0  0  0  0  0  0  0
    0.0490   -1.0750    0.6539 C   0  0  2  0  0  0  0  0  0  0  0  0
   -0.3123   -1.9557    1.8465 C   0  0  0  0  0  0  0  0  0  0  0  0
    0.4444   -2.1391    2.7979 O   0  0  0  0  0  0  0  0  0  0  0  0
    1.2918   -0.2194    0.9397 C   0  0  2  0  0  0  0  0  0  0  0  0
    1.0675    0.6391    2.0570 O   0  0  0  0  0  0  0  0  0  0  0  0
    1.6763    0.6537   -0.2487 C   0  0  0  0  0  0  0  0  0  0  0  0
   -1.6733   -0.5660   -0.4691 H   0  0  0  0  0  0  0  0  0  0  0  0
    0.2328   -1.7242   -0.2108 H   0  0  0  0  0  0  0  0  0  0  0  0
    2.1454   -0.8604    1.1886 H   0  0  0  0  0  0  0  0  0  0  0  0
    1.9002    1.1103    2.2127 H   0  0  0  0  0  0  0  0  0  0  0  0
    0.8548    1.3170   -0.5402 H   0  0  0  0  0  0  0  0  0  0  0  0
    1.9638    0.0462   -1.1120 H   0  0  0  0  0  0  0  0  0  0  0  0
    2.5189    1.3022    0.0154 H   0  0  0  0  0  0  0  0  0  0  0  0
   -1.5572   -2.5508    1.6995 N   0  0  0  0  0  0  0  0  0  0  0  0
   -2.1073   -3.4550    2.6819 C   0  0  2  0  0  0  0  0  0  0  0  0
   -2.6564   -2.6219    3.8325 C   0  0  0  0  0  0  0  0  0  0  0  0
   -2.2788   -1.4767    4.0714 O   0  0  0  0  0  0  0  0  0  0  0  0
   -1.0590   -4.4398    3.1758 C   0  0  0  0  0  0  0  0  0  0  0  0
   -2.1028   -2.3423    0.8684 H   0  0  0  0  0  0  0  0  0  0  0  0
   -2.9287   -3.9908    2.1938 H   0  0  0  0  0  0  0  0  0  0  0  0
   -0.2280   -3.9214    3.6678 H   0  0  0  0  0  0  0  0  0  0  0  0
   -1.4848   -5.1428    3.8994 H   0  0  0  0  0  0  0  0  0  0  0  0
   -0.6438   -5.0174    2.3428 H   0  0  0  0  0  0  0  0  0  0  0  0
   -3.5863   -3.3231    4.5873 N   0  0  0  0  0  0  0  0  0  0  0  0
   -4.2422   -2.7540    5.7414 C   0  0  0  0  0  0  0  0  0  0  0  0
   -3.8534   -4.2616    4.3051 H   0  0  0  0  0  0  0  0  0  0  0  0
   -3.6718   -3.0036    6.6482 H   0  0  0  0  0  0  0  0  0  0  0  0
   -4.2953   -1.6609    5.6310 H   0  0  0  0  0  0  0  0  0  0  0  0
   -5.2597   -3.1640    5.8240 H   0  0  0  0  0  0  0  0  0  0  0  0
  1  3  1  0  0  0  0
  1  7  1  0  0  0  0
  1  2  2  0  0  0  0
 32 33  1  0  0  0  0
 33 41  1  0  0  0  0
 33 34  2  0  0  0  0
  8  9  1  0  0  0  0
  9 17  1  0  0  0  0
  9 10  2  0  0  0  0
 18 19  1  0  0  0  0
 19 31  1  0  0  0  0
 19 20  2  0  0  0  0
 32 35  1  0  0  0  0
  8 11  1  0  0  0  0
 21 23  1  0  0  0  0
 41 42  1  0  0  0  0
 31 32  1  0  0  0  0
  7  8  1  0  0  0  0
 18 21  1  0  0  0  0
 17 18  1  0  0  0  0
 21 22  1  0  0  0  0
  3  4  1  0  0  0  0
  3  5  1  0  0  0  0
  3  6  1  0  0  0  0
 35 38  1  0  0  0  0
 35 39  1  0  0  0  0
 35 40  1  0  0  0  0
 11 14  1  0  0  0  0
 11 15  1  0  0  0  0
 11 16  1  0  0  0  0
 23 28  1  0  0  0  0
 23 29  1  0  0  0  0
 23 30  1  0  0  0  0
 42 44  1  0  0  0  0
 42 45  1  0  0  0  0
 42 46  1  0  0  0  0
 32 37  1  0  0  0  0
  8 13  1  0  0  0  0
 18 25  1  0  0  0  0
 21 26  1  0  0  0  0
 41 43  1  0  0  0  0
  7 12  1  0  0  0  0
 31 36  1  0  0  0  0
 17 24  1  0  0  0  0
 22 27  1  0  0  0  0
M  END
$$$$

  -OEChem-05262214473D

 46 45  0     1  0  0  0  0  0999 V2000
   -4.6700    2.7214    1.5150 C   0  0  0  0  0  0  0  0  0  0  0  0
   -5.4532    2.5715    0.5845 O   0  0  0  0  0  0  0  0  0  0  0  0
   -5.0996    3.4865    2.7226 C   0  0  0  0  0  0  0  0  0  0  0  0
   -4.8796    4.5629    2.6387 H   0  0  0  0  0  0  0  0  0  0  0  0
   -6.1861    3.4241    2.8954 H   0  0  0  0  0  0  0  0  0  0  0  0
   -4.6369    3.1693    3.6708 H   0  0  0  0  0  0  0  0  0  0  0  0
   -3.3731    2.2391    1.5790 N   0  0  0  0  0  0  0  0  0  0  0  0
   -2.7599    1.4751    0.5247 C   0  0  2  0  0  0  0  0  0  0  0  0
   -1.5143    0.8067    1.0915 C   0  0  0  0  0  0  0  0  0  0  0  0
   -0.9247    1.2213    2.0872 O   0  0  0  0  0  0  0  0  0  0  0  0
   -2.4106    2.3553   -0.6653 C   0  0  0  0  0  0  0  0  0  0  0  0
   -2.8254    2.4352    2.4150 H   0  0  0  0  0  0  0  0  0  0  0  0
   -3.4836    0.7082    0.2278 H   0  0  0  0  0  0  0  0  0  0  0  0
   -1.6866    3.1298   -0.3871 H   0  0  0  0  0  0  0  0  0  0  0  0
   -1.9704    1.7677   -1.4777 H   0  0  0  0  0  0  0  0  0  0  0  0
   -3.3030    2.8584   -1.0531 H   0  0  0  0  0  0  0  0  0  0  0  0
   -1.1107   -0.2839    0.3303 N   0  0  0  0  0  0  0  0  0  0  0  0
    0.0490   -1.0750    0.6539 C   0  0  2  0  0  0  0  0  0  0  0  0
   -0.3123   -1.9557    1.8465 C   0  0  0  0  0  0  0  0  0  0  0  0
    0.3082   -1.9347    2.9076 O   0  0  0  0  0  0  0  0  0  0  0  0
    1.2918   -0.2194    0.9397 C   0  0  2  0  0  0  0  0  0  0  0  0
    1.0675    0.6391    2.0570 O   0  0  0  0  0  0  0  0  0  0  0  0
    1.6763    0.6537   -0.2487 C   0  0  0  0  0  0  0  0  0  0  0  0
   -1.6733   -0.5660   -0.4691 H   0  0  0  0  0  0  0  0  0  0  0  0
    0.2328   -1.7242   -0.2108 H   0  0  0  0  0  0  0  0  0  0  0  0
    2.1454   -0.8604    1.1886 H   0  0  0  0  0  0  0  0  0  0  0  0
    1.9002    1.1103    2.2127 H   0  0  0  0  0  0  0  0  0  0  0  0
    0.8548    1.3170   -0.5402 H   0  0  0  0  0  0  0  0  0  0  0  0
    1.9638    0.0462   -1.1120 H   0  0  0  0  0  0  0  0  0  0  0  0
    2.5189    1.3022    0.0154 H   0  0  0  0  0  0  0  0  0  0  0  0
   -1.3767   -2.8017    1.5689 N   0  0  0  0  0  0  0  0  0  0  0  0
   -1.8833   -3.7540    2.5289 C   0  0  2  0  0  0  0  0  0  0  0  0
   -2.7585   -3.0006    3.5219 C   0  0  0  0  0  0  0  0  0  0  0  0
   -2.6566   -1.7924    3.7238 O   0  0  0  0  0  0  0  0  0  0  0  0
   -0.7510   -4.4769    3.2417 C   0  0  0  0  0  0  0  0  0  0  0  0
   -1.8166   -2.7489    0.6548 H   0  0  0  0  0  0  0  0  0  0  0  0
   -2.4964   -4.4701    1.9708 H   0  0  0  0  0  0  0  0  0  0  0  0
   -0.1258   -3.7757    3.8064 H   0  0  0  0  0  0  0  0  0  0  0  0
   -1.1368   -5.2188    3.9487 H   0  0  0  0  0  0  0  0  0  0  0  0
   -0.1054   -4.9937    2.5235 H   0  0  0  0  0  0  0  0  0  0  0  0
   -3.6375   -3.8437    4.1873 N   0  0  0  0  0  0  0  0  0  0  0  0
   -4.5644   -3.3704    5.1887 C   0  0  0  0  0  0  0  0  0  0  0  0
   -3.6666   -4.8291    3.9426 H   0  0  0  0  0  0  0  0  0  0  0  0
   -4.1042   -3.4546    6.1842 H   0  0  0  0  0  0  0  0  0  0  0  0
   -4.8146   -2.3181    4.9883 H   0  0  0  0  0  0  0  0  0  0  0  0
   -5.4810   -3.9778    5.1560 H   0  0  0  0  0  0  0  0  0  0  0  0
  1  3  1  0  0  0  0
  1  7  1  0  0  0  0
  1  2  2  0  0  0  0
 32 33  1  0  0  0  0
 33 41  1  0  0  0  0
 33 34  2  0  0  0  0
  8  9  1  0  0  0  0
  9 17  1  0  0  0  0
  9 10  2  0  0  0  0
 18 19  1  0  0  0  0
 19 31  1  0  0  0  0
 19 20  2  0  0  0  0
 32 35  1  0  0  0  0
  8 11  1  0  0  0  0
 21 23  1  0  0  0  0
 41 42  1  0  0  0  0
 31 32  1  0  0  0  0
  7  8  1  0  0  0  0
 18 21  1  0  0  0  0
 17 18  1  0  0  0  0
 21 22  1  0  0  0  0
  3  4  1  0  0  0  0
  3  5  1  0  0  0  0
  3  6  1  0  0  0  0
 35 38  1  0  0  0  0
 35 39  1  0  0  0  0
 35 40  1  0  0  0  0
 11 14  1  0  0  0  0
 11 15  1  0  0  0  0
 11 16  1  0  0  0  0
 23 28  1  0  0  0  0
 23 29  1  0  0  0  0
 23 30  1  0  0  0  0
 42 44  1  0  0  0  0
 42 45  1  0  0  0  0
 42 46  1  0  0  0  0
 32 37  1  0  0  0  0
  8 13  1  0  0  0  0
 18 25  1  0  0  0  0
 21 26  1  0  0  0  0
 41 43  1  0  0  0  0
  7 12  1  0  0  0  0
 31 36  1  0  0  0  0
 17 24  1  0  0  0  0
 22 27  1  0  0  0  0
M  END
$$$$

  -OEChem-05262214473D

 46 45  0     1  0  0  0  0  0999 V2000
   -4.6700    2.7214    1.5150 C   0  0  0  0  0  0  0  0  0  0  0  0
   -5.4532    2.5715    0.5845 O   0  0  0  0  0  0  0  0  0  0  0  0
   -5.0996    3.4865    2.7226 C   0  0  0  0  0  0  0  0  0  0  0  0
   -4.8796    4.5629    2.6387 H   0  0  0  0  0  0  0  0  0  0  0  0
   -6.1861    3.4241    2.8954 H   0  0  0  0  0  0  0  0  0  0  0  0
   -4.6369    3.1693    3.6708 H   0  0  0  0  0  0  0  0  0  0  0  0
   -3.3731    2.2391    1.5790 N   0  0  0  0  0  0  0  0  0  0  0  0
   -2.7599    1.4751    0.5247 C   0  0  2  0  0  0  0  0  0  0  0  0
   -1.5143    0.8067    1.0915 C   0  0  0  0  0  0  0  0  0  0  0  0
   -0.9247    1.2213    2.0872 O   0  0  0  0  0  0  0  0  0  0  0  0
   -2.4106    2.3553   -0.6653 C   0  0  0  0  0  0  0  0  0  0  0  0
   -2.8254    2.4352    2.4150 H   0  0  0  0  0  0  0  0  0  0  0  0
   -3.4836    0.7082    0.2278 H   0  0  0  0  0  0  0  0  0  0  0  0
   -1.6866    3.1298   -0.3871 H   0  0  0  0  0  0  0  0  0  0  0  0
   -1.9704    1.7677   -1.4777 H   0  0  0  0  0  0  0  0  0  0  0  0
   -3.3030    2.8584   -1.0531 H   0  0  0  0  0  0  0  0  0  0  0  0
   -1.1107   -0.2839    0.3303 N   0  0  0  0  0  0  0  0  0  0  0  0
    0.0490   -1.0750    0.6539 C   0  0  2  0  0  0  0  0  0  0  0  0
   -0.3123   -1.9557    1.8465 C   0  0  0  0  0  0  0  0  0  0  0  0
    0.1189   -1.7581    2.9807 O   0  0  0  0  0  0  0  0  0  0  0  0
    1.2918   -0.2194    0.9397 C   0  0  2  0  0  0  0  0  0  0  0  0
    1.0675    0.6391    2.0570 O   0  0  0  0  0  0  0  0  0  0  0  0
    1.6763    0.6537   -0.2487 C   0  0  0  0  0  0  0  0  0  0  0  0
   -1.6733   -0.5660   -0.4691 H   0  0  0  0  0  0  0  0  0  0  0  0
    0.2328   -1.7242   -0.2108 H   0  0  0  0  0  0  0  0  0  0  0  0
    2.1454   -0.8604    1.1886 H   0  0  0  0  0  0  0  0  0  0  0  0
    1.9002    1.1103    2.2127 H   0  0  0  0  0  0  0  0  0  0  0  0
    0.8548    1.3170   -0.5402 H   0  0  0  0  0  0  0  0  0  0  0  0
    1.9638    0.0462   -1.1120 H   0  0  0  0  0  0  0  0  0  0  0  0
    2.5189    1.3022    0.0154 H   0  0  0  0  0  0  0  0  0  0  0  0
   -1.1320   -3.0155    1.4852 N   0  0  0  0  0  0  0  0  0  0  0  0
   -1.5836   -4.0070    2.4329 C   0  0  2  0  0  0  0  0  0  0  0  0
   -2.7342   -3.4062    3.2298 C   0  0  0  0  0  0  0  0  0  0  0  0
   -2.9057   -2.1950    3.3510 O   0  0  0  0  0  0  0  0  0  0  0  0
   -0.4559   -4.4464    3.3537 C   0  0  0  0  0  0  0  0  0  0  0  0
   -1.4259   -3.0969    0.5162 H   0  0  0  0  0  0  0  0  0  0  0  0
   -1.9486   -4.8592    1.8494 H   0  0  0  0  0  0  0  0  0  0  0  0
   -0.0773   -3.6058    3.9466 H   0  0  0  0  0  0  0  0  0  0  0  0
   -0.7927   -5.2188    4.0529 H   0  0  0  0  0  0  0  0  0  0  0  0
    0.3830   -4.8508    2.7770 H   0  0  0  0  0  0  0  0  0  0  0  0
   -3.5218   -4.3815    3.8253 N   0  0  0  0  0  0  0  0  0  0  0  0
   -4.6684   -4.0648    4.6444 C   0  0  0  0  0  0  0  0  0  0  0  0
   -3.3171   -5.3617    3.6551 H   0  0  0  0  0  0  0  0  0  0  0  0
   -4.3613   -4.0061    5.6990 H   0  0  0  0  0  0  0  0  0  0  0  0
   -5.0873   -3.0974    4.3303 H   0  0  0  0  0  0  0  0  0  0  0  0
   -5.4303   -4.8495    4.5276 H   0  0  0  0  0  0  0  0  0  0  0  0
  1  3  1  0  0  0  0
  1  7  1  0  0  0  0
  1  2  2  0  0  0  0
 32 33  1  0  0  0  0
 33 41  1  0  0  0  0
 33 34  2  0  0  0  0
  8  9  1  0  0  0  0
  9 17  1  0  0  0  0
  9 10  2  0  0  0  0
 18 19  1  0  0  0  0
 19 31  1  0  0  0  0
 19 20  2  0  0  0  0
 32 35  1  0  0  0  0
  8 11  1  0  0  0  0
 21 23  1  0  0  0  0
 41 42  1  0  0  0  0
 31 32  1  0  0  0  0
  7  8  1  0  0  0  0
 18 21  1  0  0  0  0
 17 18  1  0  0  0  0
 21 22  1  0  0  0  0
  3  4  1  0  0  0  0
  3  5  1  0  0  0  0
  3  6  1  0  0  0  0
 35 38  1  0  0  0  0
 35 39  1  0  0  0  0
 35 40  1  0  0  0  0
 11 14  1  0  0  0  0
 11 15  1  0  0  0  0
 11 16  1  0  0  0  0
 23 28  1  0  0  0  0
 23 29  1  0  0  0  0
 23 30  1  0  0  0  0
 42 44  1  0  0  0  0
 42 45  1  0  0  0  0
 42 46  1  0  0  0  0
 32 37  1  0  0  0  0
  8 13  1  0  0  0  0
 18 25  1  0  0  0  0
 21 26  1  0  0  0  0
 41 43  1  0  0  0  0
  7 12  1  0  0  0  0
 31 36  1  0  0  0  0
 17 24  1  0  0  0  0
 22 27  1  0  0  0  0
M  END
$$$$

  -OEChem-05262214473D

 46 45  0     1  0  0  0  0  0999 V2000
   -4.6700    2.7214    1.5150 C   0  0  0  0  0  0  0  0  0  0  0  0
   -5.4532    2.5715    0.5845 O   0  0  0  0  0  0  0  0  0  0  0  0
   -5.0996    3.4865    2.7226 C   0  0  0  0  0  0  0  0  0  0  0  0
   -4.8796    4.5629    2.6387 H   0  0  0  0  0  0  0  0  0  0  0  0
   -6.1861    3.4241    2.8954 H   0  0  0  0  0  0  0  0  0  0  0  0
   -4.6369    3.1693    3.6708 H   0  0  0  0  0  0  0  0  0  0  0  0
   -3.3731    2.2391    1.5790 N   0  0  0  0  0  0  0  0  0  0  0  0
   -2.7599    1.4751    0.5247 C   0  0  2  0  0  0  0  0  0  0  0  0
   -1.5143    0.8067    1.0915 C   0  0  0  0  0  0  0  0  0  0  0  0
   -0.9247    1.2213    2.0872 O   0  0  0  0  0  0  0  0  0  0  0  0
   -2.4106    2.3553   -0.6653 C   0  0  0  0  0  0  0  0  0  0  0  0
   -2.8254    2.4352    2.4150 H   0  0  0  0  0  0  0  0  0  0  0  0
   -3.4836    0.7082    0.2278 H   0  0  0  0  0  0  0  0  0  0  0  0
   -1.6866    3.1298   -0.3871 H   0  0  0  0  0  0  0  0  0  0  0  0
   -1.9704    1.7677   -1.4777 H   0  0  0  0  0  0  0  0  0  0  0  0
   -3.3030    2.8584   -1.0531 H   0  0  0  0  0  0  0  0  0  0  0  0
   -1.1107   -0.2839    0.3303 N   0  0  0  0  0  0  0  0  0  0  0  0
    0.0490   -1.0750    0.6539 C   0  0  2  0  0  0  0  0  0  0  0  0
   -0.3123   -1.9557    1.8465 C   0  0  0  0  0  0  0  0  0  0  0  0
   -0.1106   -1.6213    3.0122 O   0  0  0  0  0  0  0  0  0  0  0  0
    1.2918   -0.2194    0.9397 C   0  0  2  0  0  0  0  0  0  0  0  0
    1.0675    0.6391    2.0570 O   0  0  0  0  0  0  0  0  0  0  0  0
    1.6763    0.6537   -0.2487 C   0  0  0  0  0  0  0  0  0  0  0  0
   -1.6733   -0.5660   -0.4691 H   0  0  0  0  0  0  0  0  0  0  0  0
    0.2328   -1.7242   -0.2108 H   0  0  0  0  0  0  0  0  0  0  0  0
    2.1454   -0.8604    1.1886 H   0  0  0  0  0  0  0  0  0  0  0  0
    1.9002    1.1103    2.2127 H   0  0  0  0  0  0  0  0  0  0  0  0
    0.8548    1.3170   -0.5402 H   0  0  0  0  0  0  0  0  0  0  0  0
    1.9638    0.0462   -1.1120 H   0  0  0  0  0  0  0  0  0  0  0  0
    2.5189    1.3022    0.0154 H   0  0  0  0  0  0  0  0  0  0  0  0
   -0.8400   -3.1776    1.4539 N   0  0  0  0  0  0  0  0  0  0  0  0
   -1.2287   -4.1965    2.4005 C   0  0  2  0  0  0  0  0  0  0  0  0
   -2.5849   -3.8109    2.9761 C   0  0  0  0  0  0  0  0  0  0  0  0
   -3.0092   -2.6572    2.9784 O   0  0  0  0  0  0  0  0  0  0  0  0
   -0.1937   -4.3503    3.5041 C   0  0  0  0  0  0  0  0  0  0  0  0
   -0.9575   -3.3625    0.4620 H   0  0  0  0  0  0  0  0  0  0  0  0
   -1.3226   -5.1317    1.8378 H   0  0  0  0  0  0  0  0  0  0  0  0
   -0.0857   -3.4232    4.0788 H   0  0  0  0  0  0  0  0  0  0  0  0
   -0.4758   -5.1428    4.2050 H   0  0  0  0  0  0  0  0  0  0  0  0
    0.7879   -4.5984    3.0860 H   0  0  0  0  0  0  0  0  0  0  0  0
   -3.2472   -4.8997    3.5257 N   0  0  0  0  0  0  0  0  0  0  0  0
   -4.5471   -4.7899    4.1457 C   0  0  0  0  0  0  0  0  0  0  0  0
   -2.8289   -5.8232    3.4623 H   0  0  0  0  0  0  0  0  0  0  0  0
   -4.4256   -4.6206    5.2258 H   0  0  0  0  0  0  0  0  0  0  0  0
   -5.0948   -3.9455    3.7017 H   0  0  0  0  0  0  0  0  0  0  0  0
   -5.1112   -5.7198    3.9816 H   0  0  0  0  0  0  0  0  0  0  0  0
  1  3  1  0  0  0  0
  1  7  1  0  0  0  0
  1  2  2  0  0  0  0
 32 33  1  0  0  0  0
 33 41  1  0  0  0  0
 33 34  2  0  0  0  0
  8  9  1  0  0  0  0
  9 17  1  0  0  0  0
  9 10  2  0  0  0  0
 18 19  1  0  0  0  0
 19 31  1  0  0  0  0
 19 20  2  0  0  0  0
 32 35  1  0  0  0  0
  8 11  1  0  0  0  0
 21 23  1  0  0  0  0
 41 42  1  0  0  0  0
 31 32  1  0  0  0  0
  7  8  1  0  0  0  0
 18 21  1  0  0  0  0
 17 18  1  0  0  0  0
 21 22  1  0  0  0  0
  3  4  1  0  0  0  0
  3  5  1  0  0  0  0
  3  6  1  0  0  0  0
 35 38  1  0  0  0  0
 35 39  1  0  0  0  0
 35 40  1  0  0  0  0
 11 14  1  0  0  0  0
 11 15  1  0  0  0  0
 11 16  1  0  0  0  0
 23 28  1  0  0  0  0
 23 29  1  0  0  0  0
 23 30  1  0  0  0  0
 42 44  1  0  0  0  0
 42 45  1  0  0  0  0
 42 46  1  0  0  0  0
 32 37  1  0  0  0  0
  8 13  1  0  0  0  0
 18 25  1  0  0  0  0
 21 26  1  0  0  0  0
 41 43  1  0  0  0  0
  7 12  1  0  0  0  0
 31 36  1  0  0  0  0
 17 24  1  0  0  0  0
 22 27  1  0  0  0  0
M  END
$$$$

  -OEChem-05262214473D

 46 45  0     1  0  0  0  0  0999 V2000
   -4.6700    2.7214    1.5150 C   0  0  0  0  0  0  0  0  0  0  0  0
   -5.4532    2.5715    0.5845 O   0  0  0  0  0  0  0  0  0  0  0  0
   -5.0996    3.4865    2.7226 C   0  0  0  0  0  0  0  0  0  0  0  0
   -4.8796    4.5629    2.6387 H   0  0  0  0  0  0  0  0  0  0  0  0
   -6.1861    3.4241    2.8954 H   0  0  0  0  0  0  0  0  0  0  0  0
   -4.6369    3.1693    3.6708 H   0  0  0  0  0  0  0  0  0  0  0  0
   -3.3731    2.2391    1.5790 N   0  0  0  0  0  0  0  0  0  0  0  0
   -2.7599    1.4751    0.5247 C   0  0  2  0  0  0  0  0  0  0  0  0
   -1.5143    0.8067    1.0915 C   0  0  0  0  0  0  0  0  0  0  0  0
   -0.9247    1.2213    2.0872 O   0  0  0  0  0  0  0  0  0  0  0  0
   -2.4106    2.3553   -0.6653 C   0  0  0  0  0  0  0  0  0  0  0  0
   -2.8254    2.4352    2.4150 H   0  0  0  0  0  0  0  0  0  0  0  0
   -3.4836    0.7082    0.2278 H   0  0  0  0  0  0  0  0  0  0  0  0
   -1.6866    3.1298   -0.3871 H   0  0  0  0  0  0  0  0  0  0  0  0
   -1.9704    1.7677   -1.4777 H   0  0  0  0  0  0  0  0  0  0  0  0
   -3.3030    2.8584   -1.0531 H   0  0  0  0  0  0  0  0  0  0  0  0
   -1.1107   -0.2839    0.3303 N   0  0  0  0  0  0  0  0  0  0  0  0
    0.0490   -1.0750    0.6539 C   0  0  2  0  0  0  0  0  0  0  0  0
   -0.3123   -1.9557    1.8465 C   0  0  0  0  0  0  0  0  0  0  0  0
   -0.3647   -1.5336    3.0000 O   0  0  0  0  0  0  0  0  0  0  0  0
    1.2918   -0.2194    0.9397 C   0  0  2  0  0  0  0  0  0  0  0  0
    1.0675    0.6391    2.0570 O   0  0  0  0  0  0  0  0  0  0  0  0
    1.6763    0.6537   -0.2487 C   0  0  0  0  0  0  0  0  0  0  0  0
   -1.6733   -0.5660   -0.4691 H   0  0  0  0  0  0  0  0  0  0  0  0
    0.2328   -1.7242   -0.2108 H   0  0  0  0  0  0  0  0  0  0  0  0
    2.1454   -0.8604    1.1886 H   0  0  0  0  0  0  0  0  0  0  0  0
    1.9002    1.1103    2.2127 H   0  0  0  0  0  0  0  0  0  0  0  0
    0.8548    1.3170   -0.5402 H   0  0  0  0  0  0  0  0  0  0  0  0
    1.9638    0.0462   -1.1120 H   0  0  0  0  0  0  0  0  0  0  0  0
    2.5189    1.3022    0.0154 H   0  0  0  0  0  0  0  0  0  0  0  0
   -0.5204   -3.2771    1.4772 N   0  0  0  0  0  0  0  0  0  0  0  0
   -0.8426   -4.3098    2.4338 C   0  0  2  0  0  0  0  0  0  0  0  0
   -2.3210   -4.1872    2.7781 C   0  0  0  0  0  0  0  0  0  0  0  0
   -2.9600   -3.1474    2.6313 O   0  0  0  0  0  0  0  0  0  0  0  0
    0.0177   -4.1953    3.6826 C   0  0  0  0  0  0  0  0  0  0  0  0
   -0.4431   -3.5276    0.4959 H   0  0  0  0  0  0  0  0  0  0  0  0
   -0.6611   -5.2690    1.9368 H   0  0  0  0  0  0  0  0  0  0  0  0
   -0.1505   -3.2405    4.1941 H   0  0  0  0  0  0  0  0  0  0  0  0
   -0.2079   -4.9960    4.3946 H   0  0  0  0  0  0  0  0  0  0  0  0
    1.0818   -4.2538    3.4295 H   0  0  0  0  0  0  0  0  0  0  0  0
   -2.8324   -5.3631    3.3092 N   0  0  0  0  0  0  0  0  0  0  0  0
   -4.2087   -5.4963    3.7266 C   0  0  0  0  0  0  0  0  0  0  0  0
   -2.2352   -6.1819    3.3772 H   0  0  0  0  0  0  0  0  0  0  0  0
   -4.2927   -5.2561    4.7967 H   0  0  0  0  0  0  0  0  0  0  0  0
   -4.8365   -4.8048    3.1454 H   0  0  0  0  0  0  0  0  0  0  0  0
   -4.5454   -6.5294    3.5552 H   0  0  0  0  0  0  0  0  0  0  0  0
  1  3  1  0  0  0  0
  1  7  1  0  0  0  0
  1  2  2  0  0  0  0
 32 33  1  0  0  0  0
 33 41  1  0  0  0  0
 33 34  2  0  0  0  0
  8  9  1  0  0  0  0
  9 17  1  0  0  0  0
  9 10  2  0  0  0  0
 18 19  1  0  0  0  0
 19 31  1  0  0  0  0
 19 20  2  0  0  0  0
 32 35  1  0  0  0  0
  8 11  1  0  0  0  0
 21 23  1  0  0  0  0
 41 42  1  0  0  0  0
 31 32  1  0  0  0  0
  7  8  1  0  0  0  0
 18 21  1  0  0  0  0
 17 18  1  0  0  0  0
 21 22  1  0  0  0  0
  3  4  1  0  0  0  0
  3  5  1  0  0  0  0
  3  6  1  0  0  0  0
 35 38  1  0  0  0  0
 35 39  1  0  0  0  0
 35 40  1  0  0  0  0
 11 14  1  0  0  0  0
 11 15  1  0  0  0  0
 11 16  1  0  0  0  0
 23 28  1  0  0  0  0
 23 29  1  0  0  0  0
 23 30  1  0  0  0  0
 42 44  1  0  0  0  0
 42 45  1  0  0  0  0
 42 46  1  0  0  0  0
 32 37  1  0  0  0  0
  8 13  1  0  0  0  0
 18 25  1  0  0  0  0
 21 26  1  0  0  0  0
 41 43  1  0  0  0  0
  7 12  1  0  0  0  0
 31 36  1  0  0  0  0
 17 24  1  0  0  0  0
 22 27  1  0  0  0  0
M  END
$$$$

  -OEChem-05262214473D

 46 45  0     1  0  0  0  0  0999 V2000
   -4.6700    2.7214    1.5150 C   0  0  0  0  0  0  0  0  0  0  0  0
   -5.4532    2.5715    0.5845 O   0  0  0  0  0  0  0  0  0  0  0  0
   -5.0996    3.4865    2.7226 C   0  0  0  0  0  0  0  0  0  0  0  0
   -4.8796    4.5629    2.6387 H   0  0  0  0  0  0  0  0  0  0  0  0
   -6.1861    3.4241    2.8954 H   0  0  0  0  0  0  0  0  0  0  0  0
   -4.6369    3.1693    3.6708 H   0  0  0  0  0  0  0  0  0  0  0  0
   -3.3731    2.2391    1.5790 N   0  0  0  0  0  0  0  0  0  0  0  0
   -2.7599    1.4751    0.5247 C   0  0  2  0  0  0  0  0  0  0  0  0
   -1.5143    0.8067    1.0915 C   0  0  0  0  0  0  0  0  0  0  0  0
   -0.9247    1.2213    2.0872 O   0  0  0  0  0  0  0  0  0  0  0  0
   -2.4106    2.3553   -0.6653 C   0  0  0  0  0  0  0  0  0  0  0  0
   -2.8254    2.4352    2.4150 H   0  0  0  0  0  0  0  0  0  0  0  0
   -3.4836    0.7082    0.2278 H   0  0  0  0  0  0  0  0  0  0  0  0
   -1.6866    3.1298   -0.3871 H   0  0  0  0  0  0  0  0  0  0  0  0
   -1.9704    1.7677   -1.4777 H   0  0  0  0  0  0  0  0  0  0  0  0
   -3.3030    2.8584   -1.0531 H   0  0  0  0  0  0  0  0  0  0  0  0
   -1.1107   -0.2839    0.3303 N   0  0  0  0  0  0  0  0  0  0  0  0
    0.0490   -1.0750    0.6539 C   0  0  2  0  0  0  0  0  0  0  0  0
   -0.3123   -1.9557    1.8465 C   0  0  0  0  0  0  0  0  0  0  0  0
   -0.6260   -1.5011    2.9448 O   0  0  0  0  0  0  0  0  0  0  0  0
    1.2918   -0.2194    0.9397 C   0  0  2  0  0  0  0  0  0  0  0  0
    1.0675    0.6391    2.0570 O   0  0  0  0  0  0  0  0  0  0  0  0
    1.6763    0.6537   -0.2487 C   0  0  0  0  0  0  0  0  0  0  0  0
   -1.6733   -0.5660   -0.4691 H   0  0  0  0  0  0  0  0  0  0  0  0
    0.2328   -1.7242   -0.2108 H   0  0  0  0  0  0  0  0  0  0  0  0
    2.1454   -0.8604    1.1886 H   0  0  0  0  0  0  0  0  0  0  0  0
    1.9002    1.1103    2.2127 H   0  0  0  0  0  0  0  0  0  0  0  0
    0.8548    1.3170   -0.5402 H   0  0  0  0  0  0  0  0  0  0  0  0
    1.9638    0.0462   -1.1120 H   0  0  0  0  0  0  0  0  0  0  0  0
    2.5189    1.3022    0.0154 H   0  0  0  0  0  0  0  0  0  0  0  0
   -0.1951   -3.3071    1.5536 N   0  0  0  0  0  0  0  0  0  0  0  0
   -0.4517   -4.3391    2.5306 C   0  0  2  0  0  0  0  0  0  0  0  0
   -1.9605   -4.5095    2.6494 C   0  0  0  0  0  0  0  0  0  0  0  0
   -2.7615   -3.6323    2.3334 O   0  0  0  0  0  0  0  0  0  0  0  0
    0.1638   -3.9918    3.8771 C   0  0  0  0  0  0  0  0  0  0  0  0
    0.0820   -3.5810    0.6155 H   0  0  0  0  0  0  0  0  0  0  0  0
   -0.0091   -5.2618    2.1396 H   0  0  0  0  0  0  0  0  0  0  0  0
   -0.2672   -3.0701    4.2846 H   0  0  0  0  0  0  0  0  0  0  0  0
   -0.0071   -4.7883    4.6088 H   0  0  0  0  0  0  0  0  0  0  0  0
    1.2447   -3.8404    3.7841 H   0  0  0  0  0  0  0  0  0  0  0  0
   -2.3057   -5.7400    3.1904 N   0  0  0  0  0  0  0  0  0  0  0  0
   -3.6763   -6.1358    3.4155 C   0  0  0  0  0  0  0  0  0  0  0  0
   -1.5765   -6.4135    3.4057 H   0  0  0  0  0  0  0  0  0  0  0  0
   -3.9717   -5.8694    4.4411 H   0  0  0  0  0  0  0  0  0  0  0  0
   -4.3301   -5.6167    2.6992 H   0  0  0  0  0  0  0  0  0  0  0  0
   -3.7713   -7.2230    3.2775 H   0  0  0  0  0  0  0  0  0  0  0  0
  1  3  1  0  0  0  0
  1  7  1  0  0  0  0
  1  2  2  0  0  0  0
 32 33  1  0  0  0  0
 33 41  1  0  0  0  0
 33 34  2  0  0  0  0
  8  9  1  0  0  0  0
  9 17  1  0  0  0  0
  9 10  2  0  0  0  0
 18 19  1  0  0  0  0
 19 31  1  0  0  0  0
 19 20  2  0  0  0  0
 32 35  1  0  0  0  0
  8 11  1  0  0  0  0
 21 23  1  0  0  0  0
 41 42  1  0  0  0  0
 31 32  1  0  0  0  0
  7  8  1  0  0  0  0
 18 21  1  0  0  0  0
 17 18  1  0  0  0  0
 21 22  1  0  0  0  0
  3  4  1  0  0  0  0
  3  5  1  0  0  0  0
  3  6  1  0  0  0  0
 35 38  1  0  0  0  0
 35 39  1  0  0  0  0
 35 40  1  0  0  0  0
 11 14  1  0  0  0  0
 11 15  1  0  0  0  0
 11 16  1  0  0  0  0
 23 28  1  0  0  0  0
 23 29  1  0  0  0  0
 23 30  1  0  0  0  0
 42 44  1  0  0  0  0
 42 45  1  0  0  0  0
 42 46  1  0  0  0  0
 32 37  1  0  0  0  0
  8 13  1  0  0  0  0
 18 25  1  0  0  0  0
 21 26  1  0  0  0  0
 41 43  1  0  0  0  0
  7 12  1  0  0  0  0
 31 36  1  0  0  0  0
 17 24  1  0  0  0  0
 22 27  1  0  0  0  0
M  END
$$$$

  -OEChem-05262214473D

 46 45  0     1  0  0  0  0  0999 V2000
   -4.6700    2.7214    1.5150 C   0  0  0  0  0  0  0  0  0  0  0  0
   -5.4532    2.5715    0.5845 O   0  0  0  0  0  0  0  0  0  0  0  0
   -5.0996    3.4865    2.7226 C   0  0  0  0  0  0  0  0  0  0  0  0
   -4.8796    4.5629    2.6387 H   0  0  0  0  0  0  0  0  0  0  0  0
   -6.1861    3.4241    2.8954 H   0  0  0  0  0  0  0  0  0  0  0  0
   -4.6369    3.1693    3.6708 H   0  0  0  0  0  0  0  0  0  0  0  0
   -3.3731    2.2391    1.5790 N   0  0  0  0  0  0  0  0  0  0  0  0
   -2.7599    1.4751    0.5247 C   0  0  2  0  0  0  0  0  0  0  0  0
   -1.5143    0.8067    1.0915 C   0  0  0  0  0  0  0  0  0  0  0  0
   -0.9247    1.2213    2.0872 O   0  0  0  0  0  0  0  0  0  0  0  0
   -2.4106    2.3553   -0.6653 C   0  0  0  0  0  0  0  0  0  0  0  0
   -2.8254    2.4352    2.4150 H   0  0  0  0  0  0  0  0  0  0  0  0
   -3.4836    0.7082    0.2278 H   0  0  0  0  0  0  0  0  0  0  0  0
   -1.6866    3.1298   -0.3871 H   0  0  0  0  0  0  0  0  0  0  0  0
   -1.9704    1.7677   -1.4777 H   0  0  0  0  0  0  0  0  0  0  0  0
   -3.3030    2.8584   -1.0531 H   0  0  0  0  0  0  0  0  0  0  0  0
   -1.1107   -0.2839    0.3303 N   0  0  0  0  0  0  0  0  0  0  0  0
    0.0490   -1.0750    0.6539 C   0  0  2  0  0  0  0  0  0  0  0  0
   -0.3123   -1.9557    1.8465 C   0  0  0  0  0  0  0  0  0  0  0  0
   -0.8767   -1.5260    2.8505 O   0  0  0  0  0  0  0  0  0  0  0  0
    1.2918   -0.2194    0.9397 C   0  0  2  0  0  0  0  0  0  0  0  0
    1.0675    0.6391    2.0570 O   0  0  0  0  0  0  0  0  0  0  0  0
    1.6763    0.6537   -0.2487 C   0  0  0  0  0  0  0  0  0  0  0  0
   -1.6733   -0.5660   -0.4691 H   0  0  0  0  0  0  0  0  0  0  0  0
    0.2328   -1.7242   -0.2108 H   0  0  0  0  0  0  0  0  0  0  0  0
    2.1454   -0.8604    1.1886 H   0  0  0  0  0  0  0  0  0  0  0  0
    1.9002    1.1103    2.2127 H   0  0  0  0  0  0  0  0  0  0  0  0
    0.8548    1.3170   -0.5402 H   0  0  0  0  0  0  0  0  0  0  0  0
    1.9638    0.0462   -1.1120 H   0  0  0  0  0  0  0  0  0  0  0  0
    2.5189    1.3022    0.0154 H   0  0  0  0  0  0  0  0  0  0  0  0
    0.1138   -3.2656    1.6779 N   0  0  0  0  0  0  0  0  0  0  0  0
   -0.0827   -4.2824    2.6842 C   0  0  2  0  0  0  0  0  0  0  0  0
   -1.5278   -4.7557    2.5987 C   0  0  0  0  0  0  0  0  0  0  0  0
   -2.4272   -4.0787    2.1050 O   0  0  0  0  0  0  0  0  0  0  0  0
    0.2348   -3.7538    4.0743 C   0  0  0  0  0  0  0  0  0  0  0  0
    0.5822   -3.5190    0.8128 H   0  0  0  0  0  0  0  0  0  0  0  0
    0.5889   -5.1105    2.4325 H   0  0  0  0  0  0  0  0  0  0  0  0
   -0.4280   -2.9235    4.3441 H   0  0  0  0  0  0  0  0  0  0  0  0
    0.1128   -4.5340    4.8329 H   0  0  0  0  0  0  0  0  0  0  0  0
    1.2654   -3.3864    4.1256 H   0  0  0  0  0  0  0  0  0  0  0  0
   -1.7029   -6.0049    3.1774 N   0  0  0  0  0  0  0  0  0  0  0  0
   -2.9863   -6.6650    3.2338 C   0  0  0  0  0  0  0  0  0  0  0  0
   -0.8975   -6.5023    3.5459 H   0  0  0  0  0  0  0  0  0  0  0  0
   -3.4845   -6.4187    4.1831 H   0  0  0  0  0  0  0  0  0  0  0  0
   -3.6101   -6.3258    2.3937 H   0  0  0  0  0  0  0  0  0  0  0  0
   -2.8419   -7.7534    3.1673 H   0  0  0  0  0  0  0  0  0  0  0  0
  1  3  1  0  0  0  0
  1  7  1  0  0  0  0
  1  2  2  0  0  0  0
 32 33  1  0  0  0  0
 33 41  1  0  0  0  0
 33 34  2  0  0  0  0
  8  9  1  0  0  0  0
  9 17  1  0  0  0  0
  9 10  2  0  0  0  0
 18 19  1  0  0  0  0
 19 31  1  0  0  0  0
 19 20  2  0  0  0  0
 32 35  1  0  0  0  0
  8 11  1  0  0  0  0
 21 23  1  0  0  0  0
 41 42  1  0  0  0  0
 31 32  1  0  0  0  0
  7  8  1  0  0  0  0
 18 21  1  0  0  0  0
 17 18  1  0  0  0  0
 21 22  1  0  0  0  0
  3  4  1  0  0  0  0
  3  5  1  0  0  0  0
  3  6  1  0  0  0  0
 35 38  1  0  0  0  0
 35 39  1  0  0  0  0
 35 40  1  0  0  0  0
 11 14  1  0  0  0  0
 11 15  1  0  0  0  0
 11 16  1  0  0  0  0
 23 28  1  0  0  0  0
 23 29  1  0  0  0  0
 23 30  1  0  0  0  0
 42 44  1  0  0  0  0
 42 45  1  0  0  0  0
 42 46  1  0  0  0  0
 32 37  1  0  0  0  0
  8 13  1  0  0  0  0
 18 25  1  0  0  0  0
 21 26  1  0  0  0  0
 41 43  1  0  0  0  0
  7 12  1  0  0  0  0
 31 36  1  0  0  0  0
 17 24  1  0  0  0  0
 22 27  1  0  0  0  0
M  END
$$$$

  -OEChem-05262214473D

 46 45  0     1  0  0  0  0  0999 V2000
   -4.6700    2.7214    1.5150 C   0  0  0  0  0  0  0  0  0  0  0  0
   -5.4532    2.5715    0.5845 O   0  0  0  0  0  0  0  0  0  0  0  0
   -5.0996    3.4865    2.7226 C   0  0  0  0  0  0  0  0  0  0  0  0
   -4.8796    4.5629    2.6387 H   0  0  0  0  0  0  0  0  0  0  0  0
   -6.1861    3.4241    2.8954 H   0  0  0  0  0  0  0  0  0  0  0  0
   -4.6369    3.1693    3.6708 H   0  0  0  0  0  0  0  0  0  0  0  0
   -3.3731    2.2391    1.5790 N   0  0  0  0  0  0  0  0  0  0  0  0
   -2.7599    1.4751    0.5247 C   0  0  2  0  0  0  0  0  0  0  0  0
   -1.5143    0.8067    1.0915 C   0  0  0  0  0  0  0  0  0  0  0  0
   -0.9247    1.2213    2.0872 O   0  0  0  0  0  0  0  0  0  0  0  0
   -2.4106    2.3553   -0.6653 C   0  0  0  0  0  0  0  0  0  0  0  0
   -2.8254    2.4352    2.4150 H   0  0  0  0  0  0  0  0  0  0  0  0
   -3.4836    0.7082    0.2278 H   0  0  0  0  0  0  0  0  0  0  0  0
   -1.6866    3.1298   -0.3871 H   0  0  0  0  0  0  0  0  0  0  0  0
   -1.9704    1.7677   -1.4777 H   0  0  0  0  0  0  0  0  0  0  0  0
   -3.3030    2.8584   -1.0531 H   0  0  0  0  0  0  0  0  0  0  0  0
   -1.1107   -0.2839    0.3303 N   0  0  0  0  0  0  0  0  0  0  0  0
    0.0490   -1.0750    0.6539 C   0  0  2  0  0  0  0  0  0  0  0  0
   -0.3123   -1.9557    1.8465 C   0  0  0  0  0  0  0  0  0  0  0  0
   -1.0998   -1.6064    2.7235 O   0  0  0  0  0  0  0  0  0  0  0  0
    1.2918   -0.2194    0.9397 C   0  0  2  0  0  0  0  0  0  0  0  0
    1.0675    0.6391    2.0570 O   0  0  0  0  0  0  0  0  0  0  0  0
    1.6763    0.6537   -0.2487 C   0  0  0  0  0  0  0  0  0  0  0  0
   -1.6733   -0.5660   -0.4691 H   0  0  0  0  0  0  0  0  0  0  0  0
    0.2328   -1.7242   -0.2108 H   0  0  0  0  0  0  0  0  0  0  0  0
    2.1454   -0.8604    1.1886 H   0  0  0  0  0  0  0  0  0  0  0  0
    1.9002    1.1103    2.2127 H   0  0  0  0  0  0  0  0  0  0  0  0
    0.8548    1.3170   -0.5402 H   0  0  0  0  0  0  0  0  0  0  0  0
    1.9638    0.0462   -1.1120 H   0  0  0  0  0  0  0  0  0  0  0  0
    2.5189    1.3022    0.0154 H   0  0  0  0  0  0  0  0  0  0  0  0
    0.3852   -3.1554    1.8415 N   0  0  0  0  0  0  0  0  0  0  0  0
    0.2393   -4.1436    2.8843 C   0  0  2  0  0  0  0  0  0  0  0  0
   -1.0524   -4.9090    2.6294 C   0  0  0  0  0  0  0  0  0  0  0  0
   -1.9799   -4.4562    1.9617 O   0  0  0  0  0  0  0  0  0  0  0  0
    0.2257   -3.4975    4.2609 C   0  0  0  0  0  0  0  0  0  0  0  0
    1.0233   -3.3458    1.0743 H   0  0  0  0  0  0  0  0  0  0  0  0
    1.0921   -4.8254    2.7955 H   0  0  0  0  0  0  0  0  0  0  0  0
   -0.6219   -2.8108    4.3686 H   0  0  0  0  0  0  0  0  0  0  0  0
    0.1438   -4.2503    5.0518 H   0  0  0  0  0  0  0  0  0  0  0  0
    1.1426   -2.9228    4.4308 H   0  0  0  0  0  0  0  0  0  0  0  0
   -1.0652   -6.1396    3.2712 N   0  0  0  0  0  0  0  0  0  0  0  0
   -2.1856   -7.0476    3.1938 C   0  0  0  0  0  0  0  0  0  0  0  0
   -0.2447   -6.4421    3.7881 H   0  0  0  0  0  0  0  0  0  0  0  0
   -2.8642   -6.8664    4.0403 H   0  0  0  0  0  0  0  0  0  0  0  0
   -2.7256   -6.8839    2.2495 H   0  0  0  0  0  0  0  0  0  0  0  0
   -1.8204   -8.0845    3.2322 H   0  0  0  0  0  0  0  0  0  0  0  0
  1  3  1  0  0  0  0
  1  7  1  0  0  0  0
  1  2  2  0  0  0  0
 32 33  1  0  0  0  0
 33 41  1  0  0  0  0
 33 34  2  0  0  0  0
  8  9  1  0  0  0  0
  9 17  1  0  0  0  0
  9 10  2  0  0  0  0
 18 19  1  0  0  0  0
 19 31  1  0  0  0  0
 19 20  2  0  0  0  0
 32 35  1  0  0  0  0
  8 11  1  0  0  0  0
 21 23  1  0  0  0  0
 41 42  1  0  0  0  0
 31 32  1  0  0  0  0
  7  8  1  0  0  0  0
 18 21  1  0  0  0  0
 17 18  1  0  0  0  0
 21 22  1  0  0  0  0
  3  4  1  0  0  0  0
  3  5  1  0  0  0  0
  3  6  1  0  0  0  0
 35 38  1  0  0  0  0
 35 39  1  0  0  0  0
 35 40  1  0  0  0  0
 11 14  1  0  0  0  0
 11 15  1  0  0  0  0
 11 16  1  0  0  0  0
 23 28  1  0  0  0  0
 23 29  1  0  0  0  0
 23 30  1  0  0  0  0
 42 44  1  0  0  0  0
 42 45  1  0  0  0  0
 42 46  1  0  0  0  0
 32 37  1  0  0  0  0
  8 13  1  0  0  0  0
 18 25  1  0  0  0  0
 21 26  1  0  0  0  0
 41 43  1  0  0  0  0
  7 12  1  0  0  0  0
 31 36  1  0  0  0  0
 17 24  1  0  0  0  0
 22 27  1  0  0  0  0
M  END
$$$$

  -OEChem-05262214473D

 46 45  0     1  0  0  0  0  0999 V2000
   -4.6700    2.7214    1.5150 C   0  0  0  0  0  0  0  0  0  0  0  0
   -5.4532    2.5715    0.5845 O   0  0  0  0  0  0  0  0  0  0  0  0
   -5.0996    3.4865    2.7226 C   0  0  0  0  0  0  0  0  0  0  0  0
   -4.8796    4.5629    2.6387 H   0  0  0  0  0  0  0  0  0  0  0  0
   -6.1861    3.4241    2.8954 H   0  0  0  0  0  0  0  0  0  0  0  0
   -4.6369    3.1693    3.6708 H   0  0  0  0  0  0  0  0  0  0  0  0
   -3.3731    2.2391    1.5790 N   0  0  0  0  0  0  0  0  0  0  0  0
   -2.7599    1.4751    0.5247 C   0  0  2  0  0  0  0  0  0  0  0  0
   -1.5143    0.8067    1.0915 C   0  0  0  0  0  0  0  0  0  0  0  0
   -0.9247    1.2213    2.0872 O   0  0  0  0  0  0  0  0  0  0  0  0
   -2.4106    2.3553   -0.6653 C   0  0  0  0  0  0  0  0  0  0  0  0
   -2.8254    2.4352    2.4150 H   0  0  0  0  0  0  0  0  0  0  0  0
   -3.4836    0.7082    0.2278 H   0  0  0  0  0  0  0  0  0  0  0  0
   -1.6866    3.1298   -0.3871 H   0  0  0  0  0  0  0  0  0  0  0  0
   -1.9704    1.7677   -1.4777 H   0  0  0  0  0  0  0  0  0  0  0  0
   -3.3030    2.8584   -1.0531 H   0  0  0  0  0  0  0  0  0  0  0  0
   -1.1107   -0.2839    0.3303 N   0  0  0  0  0  0  0  0  0  0  0  0
    0.0490   -1.0750    0.6539 C   0  0  2  0  0  0  0  0  0  0  0  0
   -0.3123   -1.9557    1.8465 C   0  0  0  0  0  0  0  0  0  0  0  0
   -1.2800   -1.7371    2.5724 O   0  0  0  0  0  0  0  0  0  0  0  0
    1.2918   -0.2194    0.9397 C   0  0  2  0  0  0  0  0  0  0  0  0
    1.0675    0.6391    2.0570 O   0  0  0  0  0  0  0  0  0  0  0  0
    1.6763    0.6537   -0.2487 C   0  0  0  0  0  0  0  0  0  0  0  0
   -1.6733   -0.5660   -0.4691 H   0  0  0  0  0  0  0  0  0  0  0  0
    0.2328   -1.7242   -0.2108 H   0  0  0  0  0  0  0  0  0  0  0  0
    2.1454   -0.8604    1.1886 H   0  0  0  0  0  0  0  0  0  0  0  0
    1.9002    1.1103    2.2127 H   0  0  0  0  0  0  0  0  0  0  0  0
    0.8548    1.3170   -0.5402 H   0  0  0  0  0  0  0  0  0  0  0  0
    1.9638    0.0462   -1.1120 H   0  0  0  0  0  0  0  0  0  0  0  0
    2.5189    1.3022    0.0154 H   0  0  0  0  0  0  0  0  0  0  0  0
    0.6007   -2.9840    2.0333 N   0  0  0  0  0  0  0  0  0  0  0  0
    0.4924   -3.9321    3.1171 C   0  0  2  0  0  0  0  0  0  0  0  0
   -0.5668   -4.9592    2.7395 C   0  0  0  0  0  0  0  0  0  0  0  0
   -1.4500   -4.7392    1.9132 O   0  0  0  0  0  0  0  0  0  0  0  0
    0.1372   -3.2403    4.4240 C   0  0  0  0  0  0  0  0  0  0  0  0
    1.3753   -3.0733    1.3822 H   0  0  0  0  0  0  0  0  0  0  0  0
    1.4664   -4.4260    3.2038 H   0  0  0  0  0  0  0  0  0  0  0  0
   -0.8356   -2.7397    4.3564 H   0  0  0  0  0  0  0  0  0  0  0  0
    0.0836   -3.9567    5.2504 H   0  0  0  0  0  0  0  0  0  0  0  0
    0.8846   -2.4811    4.6788 H   0  0  0  0  0  0  0  0  0  0  0  0
   -0.4359   -6.1349    3.4652 N   0  0  0  0  0  0  0  0  0  0  0  0
   -1.3288   -7.2578    3.2982 C   0  0  0  0  0  0  0  0  0  0  0  0
    0.3375   -6.2370    4.1158 H   0  0  0  0  0  0  0  0  0  0  0  0
   -2.1532   -7.1823    4.0225 H   0  0  0  0  0  0  0  0  0  0  0  0
   -1.7367   -7.2528    2.2766 H   0  0  0  0  0  0  0  0  0  0  0  0
   -0.7764   -8.1937    3.4678 H   0  0  0  0  0  0  0  0  0  0  0  0
  1  3  1  0  0  0  0
  1  7  1  0  0  0  0
  1  2  2  0  0  0  0
 32 33  1  0  0  0  0
 33 41  1  0  0  0  0
 33 34  2  0  0  0  0
  8  9  1  0  0  0  0
  9 17  1  0  0  0  0
  9 10  2  0  0  0  0
 18 19  1  0  0  0  0
 19 31  1  0  0  0  0
 19 20  2  0  0  0  0
 32 35  1  0  0  0  0
  8 11  1  0  0  0  0
 21 23  1  0  0  0  0
 41 42  1  0  0  0  0
 31 32  1  0  0  0  0
  7  8  1  0  0  0  0
 18 21  1  0  0  0  0
 17 18  1  0  0  0  0
 21 22  1  0  0  0  0
  3  4  1  0  0  0  0
  3  5  1  0  0  0  0
  3  6  1  0  0  0  0
 35 38  1  0  0  0  0
 35 39  1  0  0  0  0
 35 40  1  0  0  0  0
 11 14  1  0  0  0  0
 11 15  1  0  0  0  0
 11 16  1  0  0  0  0
 23 28  1  0  0  0  0
 23 29  1  0  0  0  0
 23 30  1  0  0  0  0
 42 44  1  0  0  0  0
 42 45  1  0  0  0  0
 42 46  1  0  0  0  0
 32 37  1  0  0  0  0
  8 13  1  0  0  0  0
 18 25  1  0  0  0  0
 21 26  1  0  0  0  0
 41 43  1  0  0  0  0
  7 12  1  0  0  0  0
 31 36  1  0  0  0  0
 17 24  1  0  0  0  0
 22 27  1  0  0  0  0
M  END
$$$$

  -OEChem-05262214473D

 46 45  0     1  0  0  0  0  0999 V2000
   -4.6700    2.7214    1.5150 C   0  0  0  0  0  0  0  0  0  0  0  0
   -5.4532    2.5715    0.5845 O   0  0  0  0  0  0  0  0  0  0  0  0
   -5.0996    3.4865    2.7226 C   0  0  0  0  0  0  0  0  0  0  0  0
   -4.8796    4.5629    2.6387 H   0  0  0  0  0  0  0  0  0  0  0  0
   -6.1861    3.4241    2.8954 H   0  0  0  0  0  0  0  0  0  0  0  0
   -4.6369    3.1693    3.6708 H   0  0  0  0  0  0  0  0  0  0  0  0
   -3.3731    2.2391    1.5790 N   0  0  0  0  0  0  0  0  0  0  0  0
   -2.7599    1.4751    0.5247 C   0  0  2  0  0  0  0  0  0  0  0  0
   -1.5143    0.8067    1.0915 C   0  0  0  0  0  0  0  0  0  0  0  0
   -0.9247    1.2213    2.0872 O   0  0  0  0  0  0  0  0  0  0  0  0
   -2.4106    2.3553   -0.6653 C   0  0  0  0  0  0  0  0  0  0  0  0
   -2.8254    2.4352    2.4150 H   0  0  0  0  0  0  0  0  0  0  0  0
   -3.4836    0.7082    0.2278 H   0  0  0  0  0  0  0  0  0  0  0  0
   -1.6866    3.1298   -0.3871 H   0  0  0  0  0  0  0  0  0  0  0  0
   -1.9704    1.7677   -1.4777 H   0  0  0  0  0  0  0  0  0  0  0  0
   -3.3030    2.8584   -1.0531 H   0  0  0  0  0  0  0  0  0  0  0  0
   -1.1107   -0.2839    0.3303 N   0  0  0  0  0  0  0  0  0  0  0  0
    0.0490   -1.0750    0.6539 C   0  0  2  0  0  0  0  0  0  0  0  0
   -0.4056   -2.2038    1.5746 C   0  0  0  0  0  0  0  0  0  0  0  0
   -1.5651   -2.3245    1.9650 O   0  0  0  0  0  0  0  0  0  0  0  0
    1.1754   -0.2470    1.2894 C   0  0  2  0  0  0  0  0  0  0  0  0
    0.7391    0.3439    2.5125 O   0  0  0  0  0  0  0  0  0  0  0  0
    1.6530    0.8745    0.3748 C   0  0  0  0  0  0  0  0  0  0  0  0
   -1.6733   -0.5660   -0.4691 H   0  0  0  0  0  0  0  0  0  0  0  0
    0.3957   -1.5170   -0.2881 H   0  0  0  0  0  0  0  0  0  0  0  0
    2.0319   -0.8889    1.5260 H   0  0  0  0  0  0  0  0  0  0  0  0
    1.5061    0.8067    2.8829 H   0  0  0  0  0  0  0  0  0  0  0  0
    0.8324    1.5486    0.1062 H   0  0  0  0  0  0  0  0  0  0  0  0
    2.0989    0.4773   -0.5421 H   0  0  0  0  0  0  0  0  0  0  0  0
    2.4021    1.4877    0.8876 H   0  0  0  0  0  0  0  0  0  0  0  0
    0.6450   -3.0301    1.9475 N   0  0  0  0  0  0  0  0  0  0  0  0
    0.4725   -4.1511    2.8414 C   0  0  2  0  0  0  0  0  0  0  0  0
   -0.1304   -5.3001    2.0440 C   0  0  0  0  0  0  0  0  0  0  0  0
   -0.7600   -5.1351    1.0012 O   0  0  0  0  0  0  0  0  0  0  0  0
   -0.4130   -3.7858    4.0226 C   0  0  0  0  0  0  0  0  0  0  0  0
    1.5714   -2.8391    1.5774 H   0  0  0  0  0  0  0  0  0  0  0  0
    1.4715   -4.4333    3.1913 H   0  0  0  0  0  0  0  0  0  0  0  0
   -1.4182   -3.5002    3.6917 H   0  0  0  0  0  0  0  0  0  0  0  0
   -0.5195   -4.6281    4.7141 H   0  0  0  0  0  0  0  0  0  0  0  0
    0.0070   -2.9399    4.5776 H   0  0  0  0  0  0  0  0  0  0  0  0
    0.0803   -6.5275    2.6565 N   0  0  0  0  0  0  0  0  0  0  0  0
   -0.4061   -7.7692    2.1020 C   0  0  0  0  0  0  0  0  0  0  0  0
    0.6296   -6.5724    3.5097 H   0  0  0  0  0  0  0  0  0  0  0  0
   -1.3963   -7.9968    2.5236 H   0  0  0  0  0  0  0  0  0  0  0  0
   -0.4858   -7.6762    1.0088 H   0  0  0  0  0  0  0  0  0  0  0  0
    0.2935   -8.5808    2.3509 H   0  0  0  0  0  0  0  0  0  0  0  0
  1  3  1  0  0  0  0
  1  7  1  0  0  0  0
  1  2  2  0  0  0  0
 32 33  1  0  0  0  0
 33 41  1  0  0  0  0
 33 34  2  0  0  0  0
  8  9  1  0  0  0  0
  9 17  1  0  0  0  0
  9 10  2  0  0  0  0
 18 19  1  0  0  0  0
 19 31  1  0  0  0  0
 19 20  2  0  0  0  0
 32 35  1  0  0  0  0
  8 11  1  0  0  0  0
 21 23  1  0  0  0  0
 41 42  1  0  0  0  0
 31 32  1  0  0  0  0
  7  8  1  0  0  0  0
 18 21  1  0  0  0  0
 17 18  1  0  0  0  0
 21 22  1  0  0  0  0
  3  4  1  0  0  0  0
  3  5  1  0  0  0  0
  3  6  1  0  0  0  0
 35 38  1  0  0  0  0
 35 39  1  0  0  0  0
 35 40  1  0  0  0  0
 11 14  1  0  0  0  0
 11 15  1  0  0  0  0
 11 16  1  0  0  0  0
 23 28  1  0  0  0  0
 23 29  1  0  0  0  0
 23 30  1  0  0  0  0
 42 44  1  0  0  0  0
 42 45  1  0  0  0  0
 42 46  1  0  0  0  0
 32 37  1  0  0  0  0
  8 13  1  0  0  0  0
 18 25  1  0  0  0  0
 21 26  1  0  0  0  0
 41 43  1  0  0  0  0
  7 12  1  0  0  0  0
 31 36  1  0  0  0  0
 17 24  1  0  0  0  0
 22 27  1  0  0  0  0
M  END
$$$$

  -OEChem-05262214473D

 46 45  0     1  0  0  0  0  0999 V2000
   -4.6700    2.7214    1.5150 C   0  0  0  0  0  0  0  0  0  0  0  0
   -5.4532    2.5715    0.5845 O   0  0  0  0  0  0  0  0  0  0  0  0
   -5.0996    3.4865    2.7226 C   0  0  0  0  0  0  0  0  0  0  0  0
   -4.8796    4.5629    2.6387 H   0  0  0  0  0  0  0  0  0  0  0  0
   -6.1861    3.4241    2.8954 H   0  0  0  0  0  0  0  0  0  0  0  0
   -4.6369    3.1693    3.6708 H   0  0  0  0  0  0  0  0  0  0  0  0
   -3.3731    2.2391    1.5790 N   0  0  0  0  0  0  0  0  0  0  0  0
   -2.7599    1.4751    0.5247 C   0  0  2  0  0  0  0  0  0  0  0  0
   -1.5143    0.8067    1.0915 C   0  0  0  0  0  0  0  0  0  0  0  0
   -0.9247    1.2213    2.0872 O   0  0  0  0  0  0  0  0  0  0  0  0
   -2.4106    2.3553   -0.6653 C   0  0  0  0  0  0  0  0  0  0  0  0
   -2.8254    2.4352    2.4150 H   0  0  0  0  0  0  0  0  0  0  0  0
   -3.4836    0.7082    0.2278 H   0  0  0  0  0  0  0  0  0  0  0  0
   -1.6866    3.1298   -0.3871 H   0  0  0  0  0  0  0  0  0  0  0  0
   -1.9704    1.7677   -1.4777 H   0  0  0  0  0  0  0  0  0  0  0  0
   -3.3030    2.8584   -1.0531 H   0  0  0  0  0  0  0  0  0  0  0  0
   -1.1107   -0.2839    0.3303 N   0  0  0  0  0  0  0  0  0  0  0  0
    0.0490   -1.0750    0.6539 C   0  0  2  0  0  0  0  0  0  0  0  0
   -0.4056   -2.2038    1.5746 C   0  0  0  0  0  0  0  0  0  0  0  0
   -1.5883   -2.4883    1.7528 O   0  0  0  0  0  0  0  0  0  0  0  0
    1.1754   -0.2470    1.2894 C   0  0  2  0  0  0  0  0  0  0  0  0
    0.7391    0.3439    2.5125 O   0  0  0  0  0  0  0  0  0  0  0  0
    1.6530    0.8745    0.3748 C   0  0  0  0  0  0  0  0  0  0  0  0
   -1.6733   -0.5660   -0.4691 H   0  0  0  0  0  0  0  0  0  0  0  0
    0.3957   -1.5170   -0.2881 H   0  0  0  0  0  0  0  0  0  0  0  0
    2.0319   -0.8889    1.5260 H   0  0  0  0  0  0  0  0  0  0  0  0
    1.5061    0.8067    2.8829 H   0  0  0  0  0  0  0  0  0  0  0  0
    0.8324    1.5486    0.1062 H   0  0  0  0  0  0  0  0  0  0  0  0
    2.0989    0.4773   -0.5421 H   0  0  0  0  0  0  0  0  0  0  0  0
    2.4021    1.4877    0.8876 H   0  0  0  0  0  0  0  0  0  0  0  0
    0.6615   -2.8224    2.2105 N   0  0  0  0  0  0  0  0  0  0  0  0
    0.4844   -3.8989    3.1565 C   0  0  2  0  0  0  0  0  0  0  0  0
    0.2285   -5.1782    2.3707 C   0  0  0  0  0  0  0  0  0  0  0  0
   -0.2000   -5.1834    1.2185 O   0  0  0  0  0  0  0  0  0  0  0  0
   -0.6613   -3.6110    4.1142 C   0  0  0  0  0  0  0  0  0  0  0  0
    1.6039   -2.5055    2.0023 H   0  0  0  0  0  0  0  0  0  0  0  0
    1.4252   -3.9916    3.7100 H   0  0  0  0  0  0  0  0  0  0  0  0
   -1.6123   -3.5149    3.5779 H   0  0  0  0  0  0  0  0  0  0  0  0
   -0.7759   -4.4150    4.8488 H   0  0  0  0  0  0  0  0  0  0  0  0
   -0.4897   -2.6752    4.6570 H   0  0  0  0  0  0  0  0  0  0  0  0
    0.4941   -6.3143    3.1223 N   0  0  0  0  0  0  0  0  0  0  0  0
    0.3170   -7.6508    2.6042 C   0  0  0  0  0  0  0  0  0  0  0  0
    0.8645   -6.2158    4.0629 H   0  0  0  0  0  0  0  0  0  0  0  0
   -0.6919   -8.0108    2.8542 H   0  0  0  0  0  0  0  0  0  0  0  0
    0.4420   -7.6399    1.5114 H   0  0  0  0  0  0  0  0  0  0  0  0
    1.0664   -8.3199    3.0523 H   0  0  0  0  0  0  0  0  0  0  0  0
  1  3  1  0  0  0  0
  1  7  1  0  0  0  0
  1  2  2  0  0  0  0
 32 33  1  0  0  0  0
 33 41  1  0  0  0  0
 33 34  2  0  0  0  0
  8  9  1  0  0  0  0
  9 17  1  0  0  0  0
  9 10  2  0  0  0  0
 18 19  1  0  0  0  0
 19 31  1  0  0  0  0
 19 20  2  0  0  0  0
 32 35  1  0  0  0  0
  8 11  1  0  0  0  0
 21 23  1  0  0  0  0
 41 42  1  0  0  0  0
 31 32  1  0  0  0  0
  7  8  1  0  0  0  0
 18 21  1  0  0  0  0
 17 18  1  0  0  0  0
 21 22  1  0  0  0  0
  3  4  1  0  0  0  0
  3  5  1  0  0  0  0
  3  6  1  0  0  0  0
 35 38  1  0  0  0  0
 35 39  1  0  0  0  0
 35 40  1  0  0  0  0
 11 14  1  0  0  0  0
 11 15  1  0  0  0  0
 11 16  1  0  0  0  0
 23 28  1  0  0  0  0
 23 29  1  0  0  0  0
 23 30  1  0  0  0  0
 42 44  1  0  0  0  0
 42 45  1  0  0  0  0
 42 46  1  0  0  0  0
 32 37  1  0  0  0  0
  8 13  1  0  0  0  0
 18 25  1  0  0  0  0
 21 26  1  0  0  0  0
 41 43  1  0  0  0  0
  7 12  1  0  0  0  0
 31 36  1  0  0  0  0
 17 24  1  0  0  0  0
 22 27  1  0  0  0  0
M  END
$$$$

  -OEChem-05262214473D

 46 45  0     1  0  0  0  0  0999 V2000
   -4.6700    2.7214    1.5150 C   0  0  0  0  0  0  0  0  0  0  0  0
   -5.4532    2.5715    0.5845 O   0  0  0  0  0  0  0  0  0  0  0  0
   -5.0996    3.4865    2.7226 C   0  0  0  0  0  0  0  0  0  0  0  0
   -4.8796    4.5629    2.6387 H   0  0  0  0  0  0  0  0  0  0  0  0
   -6.1861    3.4241    2.8954 H   0  0  0  0  0  0  0  0  0  0  0  0
   -4.6369    3.1693    3.6708 H   0  0  0  0  0  0  0  0  0  0  0  0
   -3.3731    2.2391    1.5790 N   0  0  0  0  0  0  0  0  0  0  0  0
   -2.7599    1.4751    0.5247 C   0  0  2  0  0  0  0  0  0  0  0  0
   -1.5143    0.8067    1.0915 C   0  0  0  0  0  0  0  0  0  0  0  0
   -0.9247    1.2213    2.0872 O   0  0  0  0  0  0  0  0  0  0  0  0
   -2.4106    2.3553   -0.6653 C   0  0  0  0  0  0  0  0  0  0  0  0
   -2.8254    2.4352    2.4150 H   0  0  0  0  0  0  0  0  0  0  0  0
   -3.4836    0.7082    0.2278 H   0  0  0  0  0  0  0  0  0  0  0  0
   -1.6866    3.1298   -0.3871 H   0  0  0  0  0  0  0  0  0  0  0  0
   -1.9704    1.7677   -1.4777 H   0  0  0  0  0  0  0  0  0  0  0  0
   -3.3030    2.8584   -1.0531 H   0  0  0  0  0  0  0  0  0  0  0  0
   -1.1107   -0.2839    0.3303 N   0  0  0  0  0  0  0  0  0  0  0  0
    0.0490   -1.0750    0.6539 C   0  0  2  0  0  0  0  0  0  0  0  0
   -0.4056   -2.2038    1.5746 C   0  0  0  0  0  0  0  0  0  0  0  0
   -1.5445   -2.6664    1.5560 O   0  0  0  0  0  0  0  0  0  0  0  0
    1.1754   -0.2470    1.2894 C   0  0  2  0  0  0  0  0  0  0  0  0
    0.7391    0.3439    2.5125 O   0  0  0  0  0  0  0  0  0  0  0  0
    1.6530    0.8745    0.3748 C   0  0  0  0  0  0  0  0  0  0  0  0
   -1.6733   -0.5660   -0.4691 H   0  0  0  0  0  0  0  0  0  0  0  0
    0.3957   -1.5170   -0.2881 H   0  0  0  0  0  0  0  0  0  0  0  0
    2.0319   -0.8889    1.5260 H   0  0  0  0  0  0  0  0  0  0  0  0
    1.5061    0.8067    2.8829 H   0  0  0  0  0  0  0  0  0  0  0  0
    0.8324    1.5486    0.1062 H   0  0  0  0  0  0  0  0  0  0  0  0
    2.0989    0.4773   -0.5421 H   0  0  0  0  0  0  0  0  0  0  0  0
    2.4021    1.4877    0.8876 H   0  0  0  0  0  0  0  0  0  0  0  0
    0.5947   -2.5988    2.4515 N   0  0  0  0  0  0  0  0  0  0  0  0
    0.3962   -3.6292    3.4436 C   0  0  2  0  0  0  0  0  0  0  0  0
    0.4937   -4.9792    2.7455 C   0  0  0  0  0  0  0  0  0  0  0  0
    0.3069   -5.1258    1.5394 O   0  0  0  0  0  0  0  0  0  0  0  0
   -0.9459   -3.4739    4.1417 C   0  0  0  0  0  0  0  0  0  0  0  0
    1.5019   -2.1455    2.3934 H   0  0  0  0  0  0  0  0  0  0  0  0
    1.2122   -3.5322    4.1680 H   0  0  0  0  0  0  0  0  0  0  0  0
   -1.7758   -3.5681    3.4318 H   0  0  0  0  0  0  0  0  0  0  0  0
   -1.0826   -4.2388    4.9133 H   0  0  0  0  0  0  0  0  0  0  0  0
   -1.0261   -2.4908    4.6181 H   0  0  0  0  0  0  0  0  0  0  0  0
    0.7714   -6.0078    3.6350 N   0  0  0  0  0  0  0  0  0  0  0  0
    0.9008   -7.3848    3.2187 C   0  0  0  0  0  0  0  0  0  0  0  0
    0.9298   -5.7920    4.6148 H   0  0  0  0  0  0  0  0  0  0  0  0
   -0.0727   -7.8888    3.3095 H   0  0  0  0  0  0  0  0  0  0  0  0
    1.2362   -7.4212    2.1717 H   0  0  0  0  0  0  0  0  0  0  0  0
    1.6378   -7.8931    3.8577 H   0  0  0  0  0  0  0  0  0  0  0  0
  1  3  1  0  0  0  0
  1  7  1  0  0  0  0
  1  2  2  0  0  0  0
 32 33  1  0  0  0  0
 33 41  1  0  0  0  0
 33 34  2  0  0  0  0
  8  9  1  0  0  0  0
  9 17  1  0  0  0  0
  9 10  2  0  0  0  0
 18 19  1  0  0  0  0
 19 31  1  0  0  0  0
 19 20  2  0  0  0  0
 32 35  1  0  0  0  0
  8 11  1  0  0  0  0
 21 23  1  0  0  0  0
 41 42  1  0  0  0  0
 31 32  1  0  0  0  0
  7  8  1  0  0  0  0
 18 21  1  0  0  0  0
 17 18  1  0  0  0  0
 21 22  1  0  0  0  0
  3  4  1  0  0  0  0
  3  5  1  0  0  0  0
  3  6  1  0  0  0  0
 35 38  1  0  0  0  0
 35 39  1  0  0  0  0
 35 40  1  0  0  0  0
 11 14  1  0  0  0  0
 11 15  1  0  0  0  0
 11 16  1  0  0  0  0
 23 28  1  0  0  0  0
 23 29  1  0  0  0  0
 23 30  1  0  0  0  0
 42 44  1  0  0  0  0
 42 45  1  0  0  0  0
 42 46  1  0  0  0  0
 32 37  1  0  0  0  0
  8 13  1  0  0  0  0
 18 25  1  0  0  0  0
 21 26  1  0  0  0  0
 41 43  1  0  0  0  0
  7 12  1  0  0  0  0
 31 36  1  0  0  0  0
 17 24  1  0  0  0  0
 22 27  1  0  0  0  0
M  END
$$$$

  -OEChem-05262214473D

 46 45  0     1  0  0  0  0  0999 V2000
   -4.6700    2.7214    1.5150 C   0  0  0  0  0  0  0  0  0  0  0  0
   -5.4532    2.5715    0.5845 O   0  0  0  0  0  0  0  0  0  0  0  0
   -5.0996    3.4865    2.7226 C   0  0  0  0  0  0  0  0  0  0  0  0
   -4.8796    4.5629    2.6387 H   0  0  0  0  0  0  0  0  0  0  0  0
   -6.1861    3.4241    2.8954 H   0  0  0  0  0  0  0  0  0  0  0  0
   -4.6369    3.1693    3.6708 H   0  0  0  0  0  0  0  0  0  0  0  0
   -3.3731    2.2391    1.5790 N   0  0  0  0  0  0  0  0  0  0  0  0
   -2.7599    1.4751    0.5247 C   0  0  2  0  0  0  0  0  0  0  0  0
   -1.5143    0.8067    1.0915 C   0  0  0  0  0  0  0  0  0  0  0  0
   -0.9247    1.2213    2.0872 O   0  0  0  0  0  0  0  0  0  0  0  0
   -2.4106    2.3553   -0.6653 C   0  0  0  0  0  0  0  0  0  0  0  0
   -2.8254    2.4352    2.4150 H   0  0  0  0  0  0  0  0  0  0  0  0
   -3.4836    0.7082    0.2278 H   0  0  0  0  0  0  0  0  0  0  0  0
   -1.6866    3.1298   -0.3871 H   0  0  0  0  0  0  0  0  0  0  0  0
   -1.9704    1.7677   -1.4777 H   0  0  0  0  0  0  0  0  0  0  0  0
   -3.3030    2.8584   -1.0531 H   0  0  0  0  0  0  0  0  0  0  0  0
   -1.1107   -0.2839    0.3303 N   0  0  0  0  0  0  0  0  0  0  0  0
    0.0490   -1.0750    0.6539 C   0  0  2  0  0  0  0  0  0  0  0  0
   -0.4056   -2.2038    1.5746 C   0  0  0  0  0  0  0  0  0  0  0  0
   -1.4367   -2.8468    1.3881 O   0  0  0  0  0  0  0  0  0  0  0  0
    1.1754   -0.2470    1.2894 C   0  0  2  0  0  0  0  0  0  0  0  0
    0.7391    0.3439    2.5125 O   0  0  0  0  0  0  0  0  0  0  0  0
    1.6530    0.8745    0.3748 C   0  0  0  0  0  0  0  0  0  0  0  0
   -1.6733   -0.5660   -0.4691 H   0  0  0  0  0  0  0  0  0  0  0  0
    0.3957   -1.5170   -0.2881 H   0  0  0  0  0  0  0  0  0  0  0  0
    2.0319   -0.8889    1.5260 H   0  0  0  0  0  0  0  0  0  0  0  0
    1.5061    0.8067    2.8829 H   0  0  0  0  0  0  0  0  0  0  0  0
    0.8324    1.5486    0.1062 H   0  0  0  0  0  0  0  0  0  0  0  0
    2.0989    0.4773   -0.5421 H   0  0  0  0  0  0  0  0  0  0  0  0
    2.4021    1.4877    0.8876 H   0  0  0  0  0  0  0  0  0  0  0  0
    0.4491   -2.3747    2.6544 N   0  0  0  0  0  0  0  0  0  0  0  0
    0.2139   -3.3603    3.6833 C   0  0  2  0  0  0  0  0  0  0  0  0
    0.6470   -4.7167    3.1431 C   0  0  0  0  0  0  0  0  0  0  0  0
    0.7260   -4.9662    1.9420 O   0  0  0  0  0  0  0  0  0  0  0  0
   -1.2476   -3.3839    4.1032 C   0  0  0  0  0  0  0  0  0  0  0  0
    1.2722   -1.7835    2.7238 H   0  0  0  0  0  0  0  0  0  0  0  0
    0.8470   -3.0863    4.5343 H   0  0  0  0  0  0  0  0  0  0  0  0
   -1.8974   -3.6564    3.2636 H   0  0  0  0  0  0  0  0  0  0  0  0
   -1.4188   -4.1115    4.9034 H   0  0  0  0  0  0  0  0  0  0  0  0
   -1.5655   -2.3996    4.4636 H   0  0  0  0  0  0  0  0  0  0  0  0
    0.8932   -5.6289    4.1596 N   0  0  0  0  0  0  0  0  0  0  0  0
    1.3055   -6.9892    3.9035 C   0  0  0  0  0  0  0  0  0  0  0  0
    0.8210   -5.3299    5.1277 H   0  0  0  0  0  0  0  0  0  0  0  0
    0.4193   -7.6392    3.8585 H   0  0  0  0  0  0  0  0  0  0  0  0
    1.8428   -7.0350    2.9447 H   0  0  0  0  0  0  0  0  0  0  0  0
    1.9690   -7.3296    4.7122 H   0  0  0  0  0  0  0  0  0  0  0  0
  1  3  1  0  0  0  0
  1  7  1  0  0  0  0
  1  2  2  0  0  0  0
 32 33  1  0  0  0  0
 33 41  1  0  0  0  0
 33 34  2  0  0  0  0
  8  9  1  0  0  0  0
  9 17  1  0  0  0  0
  9 10  2  0  0  0  0
 18 19  1  0  0  0  0
 19 31  1  0  0  0  0
 19 20  2  0  0  0  0
 32 35  1  0  0  0  0
  8 11  1  0  0  0  0
 21 23  1  0  0  0  0
 41 42  1  0  0  0  0
 31 32  1  0  0  0  0
  7  8  1  0  0  0  0
 18 21  1  0  0  0  0
 17 18  1  0  0  0  0
 21 22  1  0  0  0  0
  3  4  1  0  0  0  0
  3  5  1  0  0  0  0
  3  6  1  0  0  0  0
 35 38  1  0  0  0  0
 35 39  1  0  0  0  0
 35 40  1  0  0  0  0
 11 14  1  0  0  0  0
 11 15  1  0  0  0  0
 11 16  1  0  0  0  0
 23 28  1  0  0  0  0
 23 29  1  0  0  0  0
 23 30  1  0  0  0  0
 42 44  1  0  0  0  0
 42 45  1  0  0  0  0
 42 46  1  0  0  0  0
 32 37  1  0  0  0  0
  8 13  1  0  0  0  0
 18 25  1  0  0  0  0
 21 26  1  0  0  0  0
 41 43  1  0  0  0  0
  7 12  1  0  0  0  0
 31 36  1  0  0  0  0
 17 24  1  0  0  0  0
 22 27  1  0  0  0  0
M  END
$$$$

  -OEChem-05262214473D

 46 45  0     1  0  0  0  0  0999 V2000
   -4.6700    2.7214    1.5150 C   0  0  0  0  0  0  0  0  0  0  0  0
   -5.4532    2.5715    0.5845 O   0  0  0  0  0  0  0  0  0  0  0  0
   -5.0996    3.4865    2.7226 C   0  0  0  0  0  0  0  0  0  0  0  0
   -4.8796    4.5629    2.6387 H   0  0  0  0  0  0  0  0  0  0  0  0
   -6.1861    3.4241    2.8954 H   0  0  0  0  0  0  0  0  0  0  0  0
   -4.6369    3.1693    3.6708 H   0  0  0  0  0  0  0  0  0  0  0  0
   -3.3731    2.2391    1.5790 N   0  0  0  0  0  0  0  0  0  0  0  0
   -2.7599    1.4751    0.5247 C   0  0  2  0  0  0  0  0  0  0  0  0
   -1.5143    0.8067    1.0915 C   0  0  0  0  0  0  0  0  0  0  0  0
   -0.9247    1.2213    2.0872 O   0  0  0  0  0  0  0  0  0  0  0  0
   -2.4106    2.3553   -0.6653 C   0  0  0  0  0  0  0  0  0  0  0  0
   -2.8254    2.4352    2.4150 H   0  0  0  0  0  0  0  0  0  0  0  0
   -3.4836    0.7082    0.2278 H   0  0  0  0  0  0  0  0  0  0  0  0
   -1.6866    3.1298   -0.3871 H   0  0  0  0  0  0  0  0  0  0  0  0
   -1.9704    1.7677   -1.4777 H   0  0  0  0  0  0  0  0  0  0  0  0
   -3.3030    2.8584   -1.0531 H   0  0  0  0  0  0  0  0  0  0  0  0
   -1.1107   -0.2839    0.3303 N   0  0  0  0  0  0  0  0  0  0  0  0
    0.0490   -1.0750    0.6539 C   0  0  2  0  0  0  0  0  0  0  0  0
   -0.4056   -2.2038    1.5746 C   0  0  0  0  0  0  0  0  0  0  0  0
   -1.2722   -3.0172    1.2604 O   0  0  0  0  0  0  0  0  0  0  0  0
    1.1754   -0.2470    1.2894 C   0  0  2  0  0  0  0  0  0  0  0  0
    0.7391    0.3439    2.5125 O   0  0  0  0  0  0  0  0  0  0  0  0
    1.6530    0.8745    0.3748 C   0  0  0  0  0  0  0  0  0  0  0  0
   -1.6733   -0.5660   -0.4691 H   0  0  0  0  0  0  0  0  0  0  0  0
    0.3957   -1.5170   -0.2881 H   0  0  0  0  0  0  0  0  0  0  0  0
    2.0319   -0.8889    1.5260 H   0  0  0  0  0  0  0  0  0  0  0  0
    1.5061    0.8067    2.8829 H   0  0  0  0  0  0  0  0  0  0  0  0
    0.8324    1.5486    0.1062 H   0  0  0  0  0  0  0  0  0  0  0  0
    2.0989    0.4773   -0.5421 H   0  0  0  0  0  0  0  0  0  0  0  0
    2.4021    1.4877    0.8876 H   0  0  0  0  0  0  0  0  0  0  0  0
    0.2346   -2.1653    2.8052 N   0  0  0  0  0  0  0  0  0  0  0  0
   -0.0501   -3.1105    3.8592 C   0  0  2  0  0  0  0  0  0  0  0  0
    0.6779   -4.4086    3.5361 C   0  0  0  0  0  0  0  0  0  0  0  0
    1.0289   -4.7157    2.3988 O   0  0  0  0  0  0  0  0  0  0  0  0
   -1.5456   -3.3469    4.0013 C   0  0  0  0  0  0  0  0  0  0  0  0
    0.9306   -1.4442    2.9710 H   0  0  0  0  0  0  0  0  0  0  0  0
    0.3545   -2.6845    4.7838 H   0  0  0  0  0  0  0  0  0  0  0  0
   -1.9689   -3.7736    3.0846 H   0  0  0  0  0  0  0  0  0  0  0  0
   -1.7615   -4.0418    4.8196 H   0  0  0  0  0  0  0  0  0  0  0  0
   -2.0712   -2.4075    4.2042 H   0  0  0  0  0  0  0  0  0  0  0  0
    0.8513   -5.2035    4.6605 N   0  0  0  0  0  0  0  0  0  0  0  0
    1.5036   -6.4912    4.6120 C   0  0  0  0  0  0  0  0  0  0  0  0
    0.5456   -4.8609    5.5666 H   0  0  0  0  0  0  0  0  0  0  0  0
    0.7504   -7.2790    4.4636 H   0  0  0  0  0  0  0  0  0  0  0  0
    2.2204   -6.5077    3.7777 H   0  0  0  0  0  0  0  0  0  0  0  0
    2.0372   -6.6676    5.5575 H   0  0  0  0  0  0  0  0  0  0  0  0
  1  3  1  0  0  0  0
  1  7  1  0  0  0  0
  1  2  2  0  0  0  0
 32 33  1  0  0  0  0
 33 41  1  0  0  0  0
 33 34  2  0  0  0  0
  8  9  1  0  0  0  0
  9 17  1  0  0  0  0
  9 10  2  0  0  0  0
 18 19  1  0  0  0  0
 19 31  1  0  0  0  0
 19 20  2  0  0  0  0
 32 35  1  0  0  0  0
  8 11  1  0  0  0  0
 21 23  1  0  0  0  0
 41 42  1  0  0  0  0
 31 32  1  0  0  0  0
  7  8  1  0  0  0  0
 18 21  1  0  0  0  0
 17 18  1  0  0  0  0
 21 22  1  0  0  0  0
  3  4  1  0  0  0  0
  3  5  1  0  0  0  0
  3  6  1  0  0  0  0
 35 38  1  0  0  0  0
 35 39  1  0  0  0  0
 35 40  1  0  0  0  0
 11 14  1  0  0  0  0
 11 15  1  0  0  0  0
 11 16  1  0  0  0  0
 23 28  1  0  0  0  0
 23 29  1  0  0  0  0
 23 30  1  0  0  0  0
 42 44  1  0  0  0  0
 42 45  1  0  0  0  0
 42 46  1  0  0  0  0
 32 37  1  0  0  0  0
  8 13  1  0  0  0  0
 18 25  1  0  0  0  0
 21 26  1  0  0  0  0
 41 43  1  0  0  0  0
  7 12  1  0  0  0  0
 31 36  1  0  0  0  0
 17 24  1  0  0  0  0
 22 27  1  0  0  0  0
M  END
$$$$

  -OEChem-05262214473D

 46 45  0     1  0  0  0  0  0999 V2000
   -4.6700    2.7214    1.5150 C   0  0  0  0  0  0  0  0  0  0  0  0
   -5.4532    2.5715    0.5845 O   0  0  0  0  0  0  0  0  0  0  0  0
   -5.0996    3.4865    2.7226 C   0  0  0  0  0  0  0  0  0  0  0  0
   -4.8796    4.5629    2.6387 H   0  0  0  0  0  0  0  0  0  0  0  0
   -6.1861    3.4241    2.8954 H   0  0  0  0  0  0  0  0  0  0  0  0
   -4.6369    3.1693    3.6708 H   0  0  0  0  0  0  0  0  0  0  0  0
   -3.3731    2.2391    1.5790 N   0  0  0  0  0  0  0  0  0  0  0  0
   -2.7599    1.4751    0.5247 C   0  0  2  0  0  0  0  0  0  0  0  0
   -1.5143    0.8067    1.0915 C   0  0  0  0  0  0  0  0  0  0  0  0
   -0.9247    1.2213    2.0872 O   0  0  0  0  0  0  0  0  0  0  0  0
   -2.4106    2.3553   -0.6653 C   0  0  0  0  0  0  0  0  0  0  0  0
   -2.8254    2.4352    2.4150 H   0  0  0  0  0  0  0  0  0  0  0  0
   -3.4836    0.7082    0.2278 H   0  0  0  0  0  0  0  0  0  0  0  0
   -1.6866    3.1298   -0.3871 H   0  0  0  0  0  0  0  0  0  0  0  0
   -1.9704    1.7677   -1.4777 H   0  0  0  0  0  0  0  0  0  0  0  0
   -3.3030    2.8584   -1.0531 H   0  0  0  0  0  0  0  0  0  0  0  0
   -1.1107   -0.2839    0.3303 N   0  0  0  0  0  0  0  0  0  0  0  0
    0.0490   -1.0750    0.6539 C   0  0  2  0  0  0  0  0  0  0  0  0
   -0.4056   -2.2038    1.5746 C   0  0  0  0  0  0  0  0  0  0  0  0
   -1.0623   -3.1659    1.1817 O   0  0  0  0  0  0  0  0  0  0  0  0
    1.1754   -0.2470    1.2894 C   0  0  2  0  0  0  0  0  0  0  0  0
    0.7391    0.3439    2.5125 O   0  0  0  0  0  0  0  0  0  0  0  0
    1.6530    0.8745    0.3748 C   0  0  0  0  0  0  0  0  0  0  0  0
   -1.6733   -0.5660   -0.4691 H   0  0  0  0  0  0  0  0  0  0  0  0
    0.3957   -1.5170   -0.2881 H   0  0  0  0  0  0  0  0  0  0  0  0
    2.0319   -0.8889    1.5260 H   0  0  0  0  0  0  0  0  0  0  0  0
    1.5061    0.8067    2.8829 H   0  0  0  0  0  0  0  0  0  0  0  0
    0.8324    1.5486    0.1062 H   0  0  0  0  0  0  0  0  0  0  0  0
    2.0989    0.4773   -0.5421 H   0  0  0  0  0  0  0  0  0  0  0  0
    2.4021    1.4877    0.8876 H   0  0  0  0  0  0  0  0  0  0  0  0
   -0.0342   -1.9850    2.8936 N   0  0  0  0  0  0  0  0  0  0  0  0
   -0.3778   -2.8969    3.9593 C   0  0  2  0  0  0  0  0  0  0  0  0
    0.5844   -4.0758    3.8980 C   0  0  0  0  0  0  0  0  0  0  0  0
    1.1949   -4.3911    2.8787 O   0  0  0  0  0  0  0  0  0  0  0  0
   -1.8198   -3.3656    3.8430 C   0  0  0  0  0  0  0  0  0  0  0  0
    0.5002   -1.1508    3.1183 H   0  0  0  0  0  0  0  0  0  0  0  0
   -0.2317   -2.3540    4.8995 H   0  0  0  0  0  0  0  0  0  0  0  0
   -1.9854   -3.9117    2.9071 H   0  0  0  0  0  0  0  0  0  0  0  0
   -2.0873   -4.0345    4.6677 H   0  0  0  0  0  0  0  0  0  0  0  0
   -2.5088   -2.5142    3.8573 H   0  0  0  0  0  0  0  0  0  0  0  0
    0.6484   -4.7605    5.1035 N   0  0  0  0  0  0  0  0  0  0  0  0
    1.4815   -5.9245    5.2958 C   0  0  0  0  0  0  0  0  0  0  0  0
    0.1223   -4.4171    5.9017 H   0  0  0  0  0  0  0  0  0  0  0  0
    0.8981   -6.8327    5.0838 H   0  0  0  0  0  0  0  0  0  0  0  0
    2.3433   -5.8751    4.6140 H   0  0  0  0  0  0  0  0  0  0  0  0
    1.8380   -5.9524    6.3360 H   0  0  0  0  0  0  0  0  0  0  0  0
  1  3  1  0  0  0  0
  1  7  1  0  0  0  0
  1  2  2  0  0  0  0
 32 33  1  0  0  0  0
 33 41  1  0  0  0  0
 33 34  2  0  0  0  0
  8  9  1  0  0  0  0
  9 17  1  0  0  0  0
  9 10  2  0  0  0  0
 18 19  1  0  0  0  0
 19 31  1  0  0  0  0
 19 20  2  0  0  0  0
 32 35  1  0  0  0  0
  8 11  1  0  0  0  0
 21 23  1  0  0  0  0
 41 42  1  0  0  0  0
 31 32  1  0  0  0  0
  7  8  1  0  0  0  0
 18 21  1  0  0  0  0
 17 18  1  0  0  0  0
 21 22  1  0  0  0  0
  3  4  1  0  0  0  0
  3  5  1  0  0  0  0
  3  6  1  0  0  0  0
 35 38  1  0  0  0  0
 35 39  1  0  0  0  0
 35 40  1  0  0  0  0
 11 14  1  0  0  0  0
 11 15  1  0  0  0  0
 11 16  1  0  0  0  0
 23 28  1  0  0  0  0
 23 29  1  0  0  0  0
 23 30  1  0  0  0  0
 42 44  1  0  0  0  0
 42 45  1  0  0  0  0
 42 46  1  0  0  0  0
 32 37  1  0  0  0  0
  8 13  1  0  0  0  0
 18 25  1  0  0  0  0
 21 26  1  0  0  0  0
 41 43  1  0  0  0  0
  7 12  1  0  0  0  0
 31 36  1  0  0  0  0
 17 24  1  0  0  0  0
 22 27  1  0  0  0  0
M  END
$$$$

  -OEChem-05262214473D

 46 45  0     1  0  0  0  0  0999 V2000
   -4.6700    2.7214    1.5150 C   0  0  0  0  0  0  0  0  0  0  0  0
   -5.4532    2.5715    0.5845 O   0  0  0  0  0  0  0  0  0  0  0  0
   -5.0996    3.4865    2.7226 C   0  0  0  0  0  0  0  0  0  0  0  0
   -4.8796    4.5629    2.6387 H   0  0  0  0  0  0  0  0  0  0  0  0
   -6.1861    3.4241    2.8954 H   0  0  0  0  0  0  0  0  0  0  0  0
   -4.6369    3.1693    3.6708 H   0  0  0  0  0  0  0  0  0  0  0  0
   -3.3731    2.2391    1.5790 N   0  0  0  0  0  0  0  0  0  0  0  0
   -2.7599    1.4751    0.5247 C   0  0  2  0  0  0  0  0  0  0  0  0
   -1.5143    0.8067    1.0915 C   0  0  0  0  0  0  0  0  0  0  0  0
   -0.9247    1.2213    2.0872 O   0  0  0  0  0  0  0  0  0  0  0  0
   -2.4106    2.3553   -0.6653 C   0  0  0  0  0  0  0  0  0  0  0  0
   -2.8254    2.4352    2.4150 H   0  0  0  0  0  0  0  0  0  0  0  0
   -3.4836    0.7082    0.2278 H   0  0  0  0  0  0  0  0  0  0  0  0
   -1.6866    3.1298   -0.3871 H   0  0  0  0  0  0  0  0  0  0  0  0
   -1.9704    1.7677   -1.4777 H   0  0  0  0  0  0  0  0  0  0  0  0
   -3.3030    2.8584   -1.0531 H   0  0  0  0  0  0  0  0  0  0  0  0
   -1.1107   -0.2839    0.3303 N   0  0  0  0  0  0  0  0  0  0  0  0
    0.0490   -1.0750    0.6539 C   0  0  2  0  0  0  0  0  0  0  0  0
   -0.4056   -2.2038    1.5746 C   0  0  0  0  0  0  0  0  0  0  0  0
   -0.8213   -3.2829    1.1573 O   0  0  0  0  0  0  0  0  0  0  0  0
    1.1754   -0.2470    1.2894 C   0  0  2  0  0  0  0  0  0  0  0  0
    0.7391    0.3439    2.5125 O   0  0  0  0  0  0  0  0  0  0  0  0
    1.6530    0.8745    0.3748 C   0  0  0  0  0  0  0  0  0  0  0  0
   -1.6733   -0.5660   -0.4691 H   0  0  0  0  0  0  0  0  0  0  0  0
    0.3957   -1.5170   -0.2881 H   0  0  0  0  0  0  0  0  0  0  0  0
    2.0319   -0.8889    1.5260 H   0  0  0  0  0  0  0  0  0  0  0  0
    1.5061    0.8067    2.8829 H   0  0  0  0  0  0  0  0  0  0  0  0
    0.8324    1.5486    0.1062 H   0  0  0  0  0  0  0  0  0  0  0  0
    2.0989    0.4773   -0.5421 H   0  0  0  0  0  0  0  0  0  0  0  0
    2.4021    1.4877    0.8876 H   0  0  0  0  0  0  0  0  0  0  0  0
   -0.3389   -1.8459    2.9137 N   0  0  0  0  0  0  0  0  0  0  0  0
   -0.7468   -2.7340    3.9767 C   0  0  2  0  0  0  0  0  0  0  0  0
    0.3729   -3.7411    4.2040 C   0  0  0  0  0  0  0  0  0  0  0  0
    1.2127   -4.0147    3.3490 O   0  0  0  0  0  0  0  0  0  0  0  0
   -2.0514   -3.4388    3.6390 C   0  0  0  0  0  0  0  0  0  0  0  0
    0.0106   -0.9233    3.1555 H   0  0  0  0  0  0  0  0  0  0  0  0
   -0.8717   -2.1174    4.8735 H   0  0  0  0  0  0  0  0  0  0  0  0
   -1.9457   -4.0614    2.7431 H   0  0  0  0  0  0  0  0  0  0  0  0
   -2.3741   -4.0900    4.4580 H   0  0  0  0  0  0  0  0  0  0  0  0
   -2.8483   -2.7123    3.4467 H   0  0  0  0  0  0  0  0  0  0  0  0
    0.2985   -4.3301    5.4584 N   0  0  0  0  0  0  0  0  0  0  0  0
    1.2407   -5.3279    5.9084 C   0  0  0  0  0  0  0  0  0  0  0  0
   -0.4201   -4.0287    6.1101 H   0  0  0  0  0  0  0  0  0  0  0  0
    0.8523   -6.3306    5.6767 H   0  0  0  0  0  0  0  0  0  0  0  0
    2.2032   -5.1804    5.3966 H   0  0  0  0  0  0  0  0  0  0  0  0
    1.3847   -5.2326    6.9947 H   0  0  0  0  0  0  0  0  0  0  0  0
  1  3  1  0  0  0  0
  1  7  1  0  0  0  0
  1  2  2  0  0  0  0
 32 33  1  0  0  0  0
 33 41  1  0  0  0  0
 33 34  2  0  0  0  0
  8  9  1  0  0  0  0
  9 17  1  0  0  0  0
  9 10  2  0  0  0  0
 18 19  1  0  0  0  0
 19 31  1  0  0  0  0
 19 20  2  0  0  0  0
 32 35  1  0  0  0  0
  8 11  1  0  0  0  0
 21 23  1  0  0  0  0
 41 42  1  0  0  0  0
 31 32  1  0  0  0  0
  7  8  1  0  0  0  0
 18 21  1  0  0  0  0
 17 18  1  0  0  0  0
 21 22  1  0  0  0  0
  3  4  1  0  0  0  0
  3  5  1  0  0  0  0
  3  6  1  0  0  0  0
 35 38  1  0  0  0  0
 35 39  1  0  0  0  0
 35 40  1  0  0  0  0
 11 14  1  0  0  0  0
 11 15  1  0  0  0  0
 11 16  1  0  0  0  0
 23 28  1  0  0  0  0
 23 29  1  0  0  0  0
 23 30  1  0  0  0  0
 42 44  1  0  0  0  0
 42 45  1  0  0  0  0
 42 46  1  0  0  0  0
 32 37  1  0  0  0  0
  8 13  1  0  0  0  0
 18 25  1  0  0  0  0
 21 26  1  0  0  0  0
 41 43  1  0  0  0  0
  7 12  1  0  0  0  0
 31 36  1  0  0  0  0
 17 24  1  0  0  0  0
 22 27  1  0  0  0  0
M  END
$$$$

  -OEChem-05262214473D

 46 45  0     1  0  0  0  0  0999 V2000
   -4.6700    2.7214    1.5150 C   0  0  0  0  0  0  0  0  0  0  0  0
   -5.4532    2.5715    0.5845 O   0  0  0  0  0  0  0  0  0  0  0  0
   -5.0996    3.4865    2.7226 C   0  0  0  0  0  0  0  0  0  0  0  0
   -4.8796    4.5629    2.6387 H   0  0  0  0  0  0  0  0  0  0  0  0
   -6.1861    3.4241    2.8954 H   0  0  0  0  0  0  0  0  0  0  0  0
   -4.6369    3.1693    3.6708 H   0  0  0  0  0  0  0  0  0  0  0  0
   -3.3731    2.2391    1.5790 N   0  0  0  0  0  0  0  0  0  0  0  0
   -2.7599    1.4751    0.5247 C   0  0  2  0  0  0  0  0  0  0  0  0
   -1.5143    0.8067    1.0915 C   0  0  0  0  0  0  0  0  0  0  0  0
   -0.9247    1.2213    2.0872 O   0  0  0  0  0  0  0  0  0  0  0  0
   -2.4106    2.3553   -0.6653 C   0  0  0  0  0  0  0  0  0  0  0  0
   -2.8254    2.4352    2.4150 H   0  0  0  0  0  0  0  0  0  0  0  0
   -3.4836    0.7082    0.2278 H   0  0  0  0  0  0  0  0  0  0  0  0
   -1.6866    3.1298   -0.3871 H   0  0  0  0  0  0  0  0  0  0  0  0
   -1.9704    1.7677   -1.4777 H   0  0  0  0  0  0  0  0  0  0  0  0
   -3.3030    2.8584   -1.0531 H   0  0  0  0  0  0  0  0  0  0  0  0
   -1.1107   -0.2839    0.3303 N   0  0  0  0  0  0  0  0  0  0  0  0
    0.0490   -1.0750    0.6539 C   0  0  2  0  0  0  0  0  0  0  0  0
   -0.4056   -2.2038    1.5746 C   0  0  0  0  0  0  0  0  0  0  0  0
   -0.5655   -3.3601    1.1889 O   0  0  0  0  0  0  0  0  0  0  0  0
    1.1754   -0.2470    1.2894 C   0  0  2  0  0  0  0  0  0  0  0  0
    0.7391    0.3439    2.5125 O   0  0  0  0  0  0  0  0  0  0  0  0
    1.6530    0.8745    0.3748 C   0  0  0  0  0  0  0  0  0  0  0  0
   -1.6733   -0.5660   -0.4691 H   0  0  0  0  0  0  0  0  0  0  0  0
    0.3957   -1.5170   -0.2881 H   0  0  0  0  0  0  0  0  0  0  0  0
    2.0319   -0.8889    1.5260 H   0  0  0  0  0  0  0  0  0  0  0  0
    1.5061    0.8067    2.8829 H   0  0  0  0  0  0  0  0  0  0  0  0
    0.8324    1.5486    0.1062 H   0  0  0  0  0  0  0  0  0  0  0  0
    2.0989    0.4773   -0.5421 H   0  0  0  0  0  0  0  0  0  0  0  0
    2.4021    1.4877    0.8876 H   0  0  0  0  0  0  0  0  0  0  0  0
   -0.6587   -1.7576    2.8640 N   0  0  0  0  0  0  0  0  0  0  0  0
   -1.1320   -2.6330    3.9104 C   0  0  2  0  0  0  0  0  0  0  0  0
    0.0577   -3.4272    4.4332 C   0  0  0  0  0  0  0  0  0  0  0  0
    1.0810   -3.6120    3.7776 O   0  0  0  0  0  0  0  0  0  0  0  0
   -2.2246   -3.5613    3.4033 C   0  0  0  0  0  0  0  0  0  0  0  0
   -0.5050   -0.7770    3.0801 H   0  0  0  0  0  0  0  0  0  0  0  0
   -1.5219   -1.9908    4.7077 H   0  0  0  0  0  0  0  0  0  0  0  0
   -1.8526   -4.2125    2.6039 H   0  0  0  0  0  0  0  0  0  0  0  0
   -2.6023   -4.2046    4.2048 H   0  0  0  0  0  0  0  0  0  0  0  0
   -3.0668   -2.9884    3.0004 H   0  0  0  0  0  0  0  0  0  0  0  0
   -0.1747   -3.9416    5.7010 N   0  0  0  0  0  0  0  0  0  0  0  0
    0.7977   -4.7420    6.4080 C   0  0  0  0  0  0  0  0  0  0  0  0
   -1.0445   -3.7222    6.1776 H   0  0  0  0  0  0  0  0  0  0  0  0
    0.6162   -5.8072    6.2019 H   0  0  0  0  0  0  0  0  0  0  0  0
    1.8095   -4.4709    6.0720 H   0  0  0  0  0  0  0  0  0  0  0  0
    0.7085   -4.5573    7.4887 H   0  0  0  0  0  0  0  0  0  0  0  0
  1  3  1  0  0  0  0
  1  7  1  0  0  0  0
  1  2  2  0  0  0  0
 32 33  1  0  0  0  0
 33 41  1  0  0  0  0
 33 34  2  0  0  0  0
  8  9  1  0  0  0  0
  9 17  1  0  0  0  0
  9 10  2  0  0  0  0
 18 19  1  0  0  0  0
 19 31  1  0  0  0  0
 19 20  2  0  0  0  0
 32 35  1  0  0  0  0
  8 11  1  0  0  0  0
 21 23  1  0  0  0  0
 41 42  1  0  0  0  0
 31 32  1  0  0  0  0
  7  8  1  0  0  0  0
 18 21  1  0  0  0  0
 17 18  1  0  0  0  0
 21 22  1  0  0  0  0
  3  4  1  0  0  0  0
  3  5  1  0  0  0  0
  3  6  1  0  0  0  0
 35 38  1  0  0  0  0
 35 39  1  0  0  0  0
 35 40  1  0  0  0  0
 11 14  1  0  0  0  0
 11 15  1  0  0  0  0
 11 16  1  0  0  0  0
 23 28  1  0  0  0  0
 23 29  1  0  0  0  0
 23 30  1  0  0  0  0
 42 44  1  0  0  0  0
 42 45  1  0  0  0  0
 42 46  1  0  0  0  0
 32 37  1  0  0  0  0
  8 13  1  0  0  0  0
 18 25  1  0  0  0  0
 21 26  1  0  0  0  0
 41 43  1  0  0  0  0
  7 12  1  0  0  0  0
 31 36  1  0  0  0  0
 17 24  1  0  0  0  0
 22 27  1  0  0  0  0
M  END
$$$$

  -OEChem-05262214473D

 46 45  0     1  0  0  0  0  0999 V2000
   -4.6700    2.7214    1.5150 C   0  0  0  0  0  0  0  0  0  0  0  0
   -5.4532    2.5715    0.5845 O   0  0  0  0  0  0  0  0  0  0  0  0
   -5.0996    3.4865    2.7226 C   0  0  0  0  0  0  0  0  0  0  0  0
   -4.8796    4.5629    2.6387 H   0  0  0  0  0  0  0  0  0  0  0  0
   -6.1861    3.4241    2.8954 H   0  0  0  0  0  0  0  0  0  0  0  0
   -4.6369    3.1693    3.6708 H   0  0  0  0  0  0  0  0  0  0  0  0
   -3.3731    2.2391    1.5790 N   0  0  0  0  0  0  0  0  0  0  0  0
   -2.7599    1.4751    0.5247 C   0  0  2  0  0  0  0  0  0  0  0  0
   -1.5143    0.8067    1.0915 C   0  0  0  0  0  0  0  0  0  0  0  0
   -0.9247    1.2213    2.0872 O   0  0  0  0  0  0  0  0  0  0  0  0
   -2.4106    2.3553   -0.6653 C   0  0  0  0  0  0  0  0  0  0  0  0
   -2.8254    2.4352    2.4150 H   0  0  0  0  0  0  0  0  0  0  0  0
   -3.4836    0.7082    0.2278 H   0  0  0  0  0  0  0  0  0  0  0  0
   -1.6866    3.1298   -0.3871 H   0  0  0  0  0  0  0  0  0  0  0  0
   -1.9704    1.7677   -1.4777 H   0  0  0  0  0  0  0  0  0  0  0  0
   -3.3030    2.8584   -1.0531 H   0  0  0  0  0  0  0  0  0  0  0  0
   -1.1107   -0.2839    0.3303 N   0  0  0  0  0  0  0  0  0  0  0  0
    0.0490   -1.0750    0.6539 C   0  0  2  0  0  0  0  0  0  0  0  0
   -0.4056   -2.2038    1.5746 C   0  0  0  0  0  0  0  0  0  0  0  0
   -0.3125   -3.3923    1.2744 O   0  0  0  0  0  0  0  0  0  0  0  0
    1.1754   -0.2470    1.2894 C   0  0  2  0  0  0  0  0  0  0  0  0
    0.7391    0.3439    2.5125 O   0  0  0  0  0  0  0  0  0  0  0  0
    1.6530    0.8745    0.3748 C   0  0  0  0  0  0  0  0  0  0  0  0
   -1.6733   -0.5660   -0.4691 H   0  0  0  0  0  0  0  0  0  0  0  0
    0.3957   -1.5170   -0.2881 H   0  0  0  0  0  0  0  0  0  0  0  0
    2.0319   -0.8889    1.5260 H   0  0  0  0  0  0  0  0  0  0  0  0
    1.5061    0.8067    2.8829 H   0  0  0  0  0  0  0  0  0  0  0  0
    0.8324    1.5486    0.1062 H   0  0  0  0  0  0  0  0  0  0  0  0
    2.0989    0.4773   -0.5421 H   0  0  0  0  0  0  0  0  0  0  0  0
    2.4021    1.4877    0.8876 H   0  0  0  0  0  0  0  0  0  0  0  0
   -0.9719   -1.7261    2.7479 N   0  0  0  0  0  0  0  0  0  0  0  0
   -1.5072   -2.6006    3.7648 C   0  0  2  0  0  0  0  0  0  0  0  0
   -0.3396   -3.1555    4.5700 C   0  0  0  0  0  0  0  0  0  0  0  0
    0.8089   -3.2106    4.1354 O   0  0  0  0  0  0  0  0  0  0  0  0
   -2.3277   -3.7248    3.1518 C   0  0  0  0  0  0  0  0  0  0  0  0
   -1.0115   -0.7221    2.8974 H   0  0  0  0  0  0  0  0  0  0  0  0
   -2.1380   -1.9829    4.4132 H   0  0  0  0  0  0  0  0  0  0  0  0
   -1.7125   -4.3546    2.4988 H   0  0  0  0  0  0  0  0  0  0  0  0
   -2.7564   -4.3705    3.9254 H   0  0  0  0  0  0  0  0  0  0  0  0
   -3.1493   -3.3236    2.5487 H   0  0  0  0  0  0  0  0  0  0  0  0
   -0.7389   -3.6216    5.8148 N   0  0  0  0  0  0  0  0  0  0  0  0
    0.1827   -4.2067    6.7606 C   0  0  0  0  0  0  0  0  0  0  0  0
   -1.7084   -3.5184    6.0996 H   0  0  0  0  0  0  0  0  0  0  0  0
    0.2058   -5.2979    6.6237 H   0  0  0  0  0  0  0  0  0  0  0  0
    1.1891   -3.7950    6.5944 H   0  0  0  0  0  0  0  0  0  0  0  0
   -0.1448   -3.9726    7.7843 H   0  0  0  0  0  0  0  0  0  0  0  0
  1  3  1  0  0  0  0
  1  7  1  0  0  0  0
  1  2  2  0  0  0  0
 32 33  1  0  0  0  0
 33 41  1  0  0  0  0
 33 34  2  0  0  0  0
  8  9  1  0  0  0  0
  9 17  1  0  0  0  0
  9 10  2  0  0  0  0
 18 19  1  0  0  0  0
 19 31  1  0  0  0  0
 19 20  2  0  0  0  0
 32 35  1  0  0  0  0
  8 11  1  0  0  0  0
 21 23  1  0  0  0  0
 41 42  1  0  0  0  0
 31 32  1  0  0  0  0
  7  8  1  0  0  0  0
 18 21  1  0  0  0  0
 17 18  1  0  0  0  0
 21 22  1  0  0  0  0
  3  4  1  0  0  0  0
  3  5  1  0  0  0  0
  3  6  1  0  0  0  0
 35 38  1  0  0  0  0
 35 39  1  0  0  0  0
 35 40  1  0  0  0  0
 11 14  1  0  0  0  0
 11 15  1  0  0  0  0
 11 16  1  0  0  0  0
 23 28  1  0  0  0  0
 23 29  1  0  0  0  0
 23 30  1  0  0  0  0
 42 44  1  0  0  0  0
 42 45  1  0  0  0  0
 42 46  1  0  0  0  0
 32 37  1  0  0  0  0
  8 13  1  0  0  0  0
 18 25  1  0  0  0  0
 21 26  1  0  0  0  0
 41 43  1  0  0  0  0
  7 12  1  0  0  0  0
 31 36  1  0  0  0  0
 17 24  1  0  0  0  0
 22 27  1  0  0  0  0
M  END
$$$$

  -OEChem-05262214473D

 46 45  0     1  0  0  0  0  0999 V2000
   -4.6700    2.7214    1.5150 C   0  0  0  0  0  0  0  0  0  0  0  0
   -5.4532    2.5715    0.5845 O   0  0  0  0  0  0  0  0  0  0  0  0
   -5.0996    3.4865    2.7226 C   0  0  0  0  0  0  0  0  0  0  0  0
   -4.8796    4.5629    2.6387 H   0  0  0  0  0  0  0  0  0  0  0  0
   -6.1861    3.4241    2.8954 H   0  0  0  0  0  0  0  0  0  0  0  0
   -4.6369    3.1693    3.6708 H   0  0  0  0  0  0  0  0  0  0  0  0
   -3.3731    2.2391    1.5790 N   0  0  0  0  0  0  0  0  0  0  0  0
   -2.7599    1.4751    0.5247 C   0  0  2  0  0  0  0  0  0  0  0  0
   -1.5143    0.8067    1.0915 C   0  0  0  0  0  0  0  0  0  0  0  0
   -0.9247    1.2213    2.0872 O   0  0  0  0  0  0  0  0  0  0  0  0
   -2.4106    2.3553   -0.6653 C   0  0  0  0  0  0  0  0  0  0  0  0
   -2.8254    2.4352    2.4150 H   0  0  0  0  0  0  0  0  0  0  0  0
   -3.4836    0.7082    0.2278 H   0  0  0  0  0  0  0  0  0  0  0  0
   -1.6866    3.1298   -0.3871 H   0  0  0  0  0  0  0  0  0  0  0  0
   -1.9704    1.7677   -1.4777 H   0  0  0  0  0  0  0  0  0  0  0  0
   -3.3030    2.8584   -1.0531 H   0  0  0  0  0  0  0  0  0  0  0  0
   -1.1107   -0.2839    0.3303 N   0  0  0  0  0  0  0  0  0  0  0  0
    0.0490   -1.0750    0.6539 C   0  0  2  0  0  0  0  0  0  0  0  0
   -0.4056   -2.2038    1.5746 C   0  0  0  0  0  0  0  0  0  0  0  0
   -0.0794   -3.3773    1.4079 O   0  0  0  0  0  0  0  0  0  0  0  0
    1.1754   -0.2470    1.2894 C   0  0  2  0  0  0  0  0  0  0  0  0
    0.7391    0.3439    2.5125 O   0  0  0  0  0  0  0  0  0  0  0  0
    1.6530    0.8745    0.3748 C   0  0  0  0  0  0  0  0  0  0  0  0
   -1.6733   -0.5660   -0.4691 H   0  0  0  0  0  0  0  0  0  0  0  0
    0.3957   -1.5170   -0.2881 H   0  0  0  0  0  0  0  0  0  0  0  0
    2.0319   -0.8889    1.5260 H   0  0  0  0  0  0  0  0  0  0  0  0
    1.5061    0.8067    2.8829 H   0  0  0  0  0  0  0  0  0  0  0  0
    0.8324    1.5486    0.1062 H   0  0  0  0  0  0  0  0  0  0  0  0
    2.0989    0.4773   -0.5421 H   0  0  0  0  0  0  0  0  0  0  0  0
    2.4021    1.4877    0.8876 H   0  0  0  0  0  0  0  0  0  0  0  0
   -1.2572   -1.7535    2.5734 N   0  0  0  0  0  0  0  0  0  0  0  0
   -1.8467   -2.6392    3.5498 C   0  0  2  0  0  0  0  0  0  0  0  0
   -0.7921   -2.9446    4.6052 C   0  0  0  0  0  0  0  0  0  0  0  0
    0.4149   -2.8378    4.3980 O   0  0  0  0  0  0  0  0  0  0  0  0
   -2.3535   -3.9183    2.9018 C   0  0  0  0  0  0  0  0  0  0  0  0
   -1.4743   -0.7623    2.6196 H   0  0  0  0  0  0  0  0  0  0  0  0
   -2.6779   -2.0941    4.0103 H   0  0  0  0  0  0  0  0  0  0  0  0
   -1.5348   -4.4781    2.4351 H   0  0  0  0  0  0  0  0  0  0  0  0
   -2.8258   -4.5763    3.6388 H   0  0  0  0  0  0  0  0  0  0  0  0
   -3.0901   -3.6950    2.1225 H   0  0  0  0  0  0  0  0  0  0  0  0
   -1.3556   -3.3917    5.7921 N   0  0  0  0  0  0  0  0  0  0  0  0
   -0.5625   -3.7585    6.9421 C   0  0  0  0  0  0  0  0  0  0  0  0
   -2.3666   -3.4312    5.8815 H   0  0  0  0  0  0  0  0  0  0  0  0
   -0.3509   -4.8375    6.9132 H   0  0  0  0  0  0  0  0  0  0  0  0
    0.3843   -3.1987    6.9280 H   0  0  0  0  0  0  0  0  0  0  0  0
   -1.1169   -3.5182    7.8613 H   0  0  0  0  0  0  0  0  0  0  0  0
  1  3  1  0  0  0  0
  1  7  1  0  0  0  0
  1  2  2  0  0  0  0
 32 33  1  0  0  0  0
 33 41  1  0  0  0  0
 33 34  2  0  0  0  0
  8  9  1  0  0  0  0
  9 17  1  0  0  0  0
  9 10  2  0  0  0  0
 18 19  1  0  0  0  0
 19 31  1  0  0  0  0
 19 20  2  0  0  0  0
 32 35  1  0  0  0  0
  8 11  1  0  0  0  0
 21 23  1  0  0  0  0
 41 42  1  0  0  0  0
 31 32  1  0  0  0  0
  7  8  1  0  0  0  0
 18 21  1  0  0  0  0
 17 18  1  0  0  0  0
 21 22  1  0  0  0  0
  3  4  1  0  0  0  0
  3  5  1  0  0  0  0
  3  6  1  0  0  0  0
 35 38  1  0  0  0  0
 35 39  1  0  0  0  0
 35 40  1  0  0  0  0
 11 14  1  0  0  0  0
 11 15  1  0  0  0  0
 11 16  1  0  0  0  0
 23 28  1  0  0  0  0
 23 29  1  0  0  0  0
 23 30  1  0  0  0  0
 42 44  1  0  0  0  0
 42 45  1  0  0  0  0
 42 46  1  0  0  0  0
 32 37  1  0  0  0  0
  8 13  1  0  0  0  0
 18 25  1  0  0  0  0
 21 26  1  0  0  0  0
 41 43  1  0  0  0  0
  7 12  1  0  0  0  0
 31 36  1  0  0  0  0
 17 24  1  0  0  0  0
 22 27  1  0  0  0  0
M  END
$$$$

  -OEChem-05262214473D

 46 45  0     1  0  0  0  0  0999 V2000
   -4.6700    2.7214    1.5150 C   0  0  0  0  0  0  0  0  0  0  0  0
   -5.4532    2.5715    0.5845 O   0  0  0  0  0  0  0  0  0  0  0  0
   -5.0996    3.4865    2.7226 C   0  0  0  0  0  0  0  0  0  0  0  0
   -4.8796    4.5629    2.6387 H   0  0  0  0  0  0  0  0  0  0  0  0
   -6.1861    3.4241    2.8954 H   0  0  0  0  0  0  0  0  0  0  0  0
   -4.6369    3.1693    3.6708 H   0  0  0  0  0  0  0  0  0  0  0  0
   -3.3731    2.2391    1.5790 N   0  0  0  0  0  0  0  0  0  0  0  0
   -2.7599    1.4751    0.5247 C   0  0  2  0  0  0  0  0  0  0  0  0
   -1.5143    0.8067    1.0915 C   0  0  0  0  0  0  0  0  0  0  0  0
   -0.9247    1.2213    2.0872 O   0  0  0  0  0  0  0  0  0  0  0  0
   -2.4106    2.3553   -0.6653 C   0  0  0  0  0  0  0  0  0  0  0  0
   -2.8254    2.4352    2.4150 H   0  0  0  0  0  0  0  0  0  0  0  0
   -3.4836    0.7082    0.2278 H   0  0  0  0  0  0  0  0  0  0  0  0
   -1.6866    3.1298   -0.3871 H   0  0  0  0  0  0  0  0  0  0  0  0
   -1.9704    1.7677   -1.4777 H   0  0  0  0  0  0  0  0  0  0  0  0
   -3.3030    2.8584   -1.0531 H   0  0  0  0  0  0  0  0  0  0  0  0
   -1.1107   -0.2839    0.3303 N   0  0  0  0  0  0  0  0  0  0  0  0
    0.0490   -1.0750    0.6539 C   0  0  2  0  0  0  0  0  0  0  0  0
   -0.4056   -2.2038    1.5746 C   0  0  0  0  0  0  0  0  0  0  0  0
    0.1179   -3.3161    1.5803 O   0  0  0  0  0  0  0  0  0  0  0  0
    1.1754   -0.2470    1.2894 C   0  0  2  0  0  0  0  0  0  0  0  0
    0.7391    0.3439    2.5125 O   0  0  0  0  0  0  0  0  0  0  0  0
    1.6530    0.8745    0.3748 C   0  0  0  0  0  0  0  0  0  0  0  0
   -1.6733   -0.5660   -0.4691 H   0  0  0  0  0  0  0  0  0  0  0  0
    0.3957   -1.5170   -0.2881 H   0  0  0  0  0  0  0  0  0  0  0  0
    2.0319   -0.8889    1.5260 H   0  0  0  0  0  0  0  0  0  0  0  0
    1.5061    0.8067    2.8829 H   0  0  0  0  0  0  0  0  0  0  0  0
    0.8324    1.5486    0.1062 H   0  0  0  0  0  0  0  0  0  0  0  0
    2.0989    0.4773   -0.5421 H   0  0  0  0  0  0  0  0  0  0  0  0
    2.4021    1.4877    0.8876 H   0  0  0  0  0  0  0  0  0  0  0  0
   -1.4951   -1.8380    2.3524 N   0  0  0  0  0  0  0  0  0  0  0  0
   -2.1275   -2.7461    3.2801 C   0  0  2  0  0  0  0  0  0  0  0  0
   -1.2687   -2.8088    4.5363 C   0  0  0  0  0  0  0  0  0  0  0  0
   -0.0742   -2.5189    4.5474 O   0  0  0  0  0  0  0  0  0  0  0  0
   -2.3004   -4.1285    2.6704 C   0  0  0  0  0  0  0  0  0  0  0  0
   -1.8619   -0.8947    2.2658 H   0  0  0  0  0  0  0  0  0  0  0  0
   -3.1049   -2.3169    3.5262 H   0  0  0  0  0  0  0  0  0  0  0  0
   -1.3317   -4.5746    2.4172 H   0  0  0  0  0  0  0  0  0  0  0  0
   -2.8058   -4.8080    3.3646 H   0  0  0  0  0  0  0  0  0  0  0  0
   -2.8933   -4.0775    1.7508 H   0  0  0  0  0  0  0  0  0  0  0  0
   -1.9828   -3.2678    5.6343 N   0  0  0  0  0  0  0  0  0  0  0  0
   -1.3871   -3.4279    6.9403 C   0  0  0  0  0  0  0  0  0  0  0  0
   -2.9743   -3.4666    5.5380 H   0  0  0  0  0  0  0  0  0  0  0  0
   -1.0159   -4.4574    7.0508 H   0  0  0  0  0  0  0  0  0  0  0  0
   -0.5501   -2.7227    7.0503 H   0  0  0  0  0  0  0  0  0  0  0  0
   -2.1416   -3.2252    7.7146 H   0  0  0  0  0  0  0  0  0  0  0  0
  1  3  1  0  0  0  0
  1  7  1  0  0  0  0
  1  2  2  0  0  0  0
 32 33  1  0  0  0  0
 33 41  1  0  0  0  0
 33 34  2  0  0  0  0
  8  9  1  0  0  0  0
  9 17  1  0  0  0  0
  9 10  2  0  0  0  0
 18 19  1  0  0  0  0
 19 31  1  0  0  0  0
 19 20  2  0  0  0  0
 32 35  1  0  0  0  0
  8 11  1  0  0  0  0
 21 23  1  0  0  0  0
 41 42  1  0  0  0  0
 31 32  1  0  0  0  0
  7  8  1  0  0  0  0
 18 21  1  0  0  0  0
 17 18  1  0  0  0  0
 21 22  1  0  0  0  0
  3  4  1  0  0  0  0
  3  5  1  0  0  0  0
  3  6  1  0  0  0  0
 35 38  1  0  0  0  0
 35 39  1  0  0  0  0
 35 40  1  0  0  0  0
 11 14  1  0  0  0  0
 11 15  1  0  0  0  0
 11 16  1  0  0  0  0
 23 28  1  0  0  0  0
 23 29  1  0  0  0  0
 23 30  1  0  0  0  0
 42 44  1  0  0  0  0
 42 45  1  0  0  0  0
 42 46  1  0  0  0  0
 32 37  1  0  0  0  0
  8 13  1  0  0  0  0
 18 25  1  0  0  0  0
 21 26  1  0  0  0  0
 41 43  1  0  0  0  0
  7 12  1  0  0  0  0
 31 36  1  0  0  0  0
 17 24  1  0  0  0  0
 22 27  1  0  0  0  0
M  END
$$$$

  -OEChem-05262214473D

 46 45  0     1  0  0  0  0  0999 V2000
   -4.6700    2.7214    1.5150 C   0  0  0  0  0  0  0  0  0  0  0  0
   -5.4532    2.5715    0.5845 O   0  0  0  0  0  0  0  0  0  0  0  0
   -5.0996    3.4865    2.7226 C   0  0  0  0  0  0  0  0  0  0  0  0
   -4.8796    4.5629    2.6387 H   0  0  0  0  0  0  0  0  0  0  0  0
   -6.1861    3.4241    2.8954 H   0  0  0  0  0  0  0  0  0  0  0  0
   -4.6369    3.1693    3.6708 H   0  0  0  0  0  0  0  0  0  0  0  0
   -3.3731    2.2391    1.5790 N   0  0  0  0  0  0  0  0  0  0  0  0
   -2.7599    1.4751    0.5247 C   0  0  2  0  0  0  0  0  0  0  0  0
   -1.5143    0.8067    1.0915 C   0  0  0  0  0  0  0  0  0  0  0  0
   -0.9247    1.2213    2.0872 O   0  0  0  0  0  0  0  0  0  0  0  0
   -2.4106    2.3553   -0.6653 C   0  0  0  0  0  0  0  0  0  0  0  0
   -2.8254    2.4352    2.4150 H   0  0  0  0  0  0  0  0  0  0  0  0
   -3.4836    0.7082    0.2278 H   0  0  0  0  0  0  0  0  0  0  0  0
   -1.6866    3.1298   -0.3871 H   0  0  0  0  0  0  0  0  0  0  0  0
   -1.9704    1.7677   -1.4777 H   0  0  0  0  0  0  0  0  0  0  0  0
   -3.3030    2.8584   -1.0531 H   0  0  0  0  0  0  0  0  0  0  0  0
   -1.1107   -0.2839    0.3303 N   0  0  0  0  0  0  0  0  0  0  0  0
    0.0490   -1.0750    0.6539 C   0  0  2  0  0  0  0  0  0  0  0  0
   -0.4056   -2.2038    1.5746 C   0  0  0  0  0  0  0  0  0  0  0  0
    0.2658   -3.2129    1.7799 O   0  0  0  0  0  0  0  0  0  0  0  0
    1.1754   -0.2470    1.2894 C   0  0  2  0  0  0  0  0  0  0  0  0
    0.7391    0.3439    2.5125 O   0  0  0  0  0  0  0  0  0  0  0  0
    1.6530    0.8745    0.3748 C   0  0  0  0  0  0  0  0  0  0  0  0
   -1.6733   -0.5660   -0.4691 H   0  0  0  0  0  0  0  0  0  0  0  0
    0.3957   -1.5170   -0.2881 H   0  0  0  0  0  0  0  0  0  0  0  0
    2.0319   -0.8889    1.5260 H   0  0  0  0  0  0  0  0  0  0  0  0
    1.5061    0.8067    2.8829 H   0  0  0  0  0  0  0  0  0  0  0  0
    0.8324    1.5486    0.1062 H   0  0  0  0  0  0  0  0  0  0  0  0
    2.0989    0.4773   -0.5421 H   0  0  0  0  0  0  0  0  0  0  0  0
    2.4021    1.4877    0.8876 H   0  0  0  0  0  0  0  0  0  0  0  0
   -1.6693   -1.9738    2.0999 N   0  0  0  0  0  0  0  0  0  0  0  0
   -2.3304   -2.9140    2.9741 C   0  0  2  0  0  0  0  0  0  0  0  0
   -1.7372   -2.7574    4.3680 C   0  0  0  0  0  0  0  0  0  0  0  0
   -0.6250   -2.2758    4.5735 O   0  0  0  0  0  0  0  0  0  0  0  0
   -2.1720   -4.3411    2.4731 C   0  0  0  0  0  0  0  0  0  0  0  0
   -2.1479   -1.1105    1.8601 H   0  0  0  0  0  0  0  0  0  0  0  0
   -3.3899   -2.6361    2.9941 H   0  0  0  0  0  0  0  0  0  0  0  0
   -1.1170   -4.6374    2.4462 H   0  0  0  0  0  0  0  0  0  0  0  0
   -2.6979   -5.0498    3.1214 H   0  0  0  0  0  0  0  0  0  0  0  0
   -2.5724   -4.4448    1.4589 H   0  0  0  0  0  0  0  0  0  0  0  0
   -2.5778   -3.2582    5.3522 N   0  0  0  0  0  0  0  0  0  0  0  0
   -2.2348   -3.2375    6.7551 C   0  0  0  0  0  0  0  0  0  0  0  0
   -3.4899   -3.6222    5.0927 H   0  0  0  0  0  0  0  0  0  0  0  0
   -1.7440   -4.1836    7.0271 H   0  0  0  0  0  0  0  0  0  0  0  0
   -1.5504   -2.3994    6.9527 H   0  0  0  0  0  0  0  0  0  0  0  0
   -3.1490   -3.1134    7.3541 H   0  0  0  0  0  0  0  0  0  0  0  0
  1  3  1  0  0  0  0
  1  7  1  0  0  0  0
  1  2  2  0  0  0  0
 32 33  1  0  0  0  0
 33 41  1  0  0  0  0
 33 34  2  0  0  0  0
  8  9  1  0  0  0  0
  9 17  1  0  0  0  0
  9 10  2  0  0  0  0
 18 19  1  0  0  0  0
 19 31  1  0  0  0  0
 19 20  2  0  0  0  0
 32 35  1  0  0  0  0
  8 11  1  0  0  0  0
 21 23  1  0  0  0  0
 41 42  1  0  0  0  0
 31 32  1  0  0  0  0
  7  8  1  0  0  0  0
 18 21  1  0  0  0  0
 17 18  1  0  0  0  0
 21 22  1  0  0  0  0
  3  4  1  0  0  0  0
  3  5  1  0  0  0  0
  3  6  1  0  0  0  0
 35 38  1  0  0  0  0
 35 39  1  0  0  0  0
 35 40  1  0  0  0  0
 11 14  1  0  0  0  0
 11 15  1  0  0  0  0
 11 16  1  0  0  0  0
 23 28  1  0  0  0  0
 23 29  1  0  0  0  0
 23 30  1  0  0  0  0
 42 44  1  0  0  0  0
 42 45  1  0  0  0  0
 42 46  1  0  0  0  0
 32 37  1  0  0  0  0
  8 13  1  0  0  0  0
 18 25  1  0  0  0  0
 21 26  1  0  0  0  0
 41 43  1  0  0  0  0
  7 12  1  0  0  0  0
 31 36  1  0  0  0  0
 17 24  1  0  0  0  0
 22 27  1  0  0  0  0
M  END
$$$$

  -OEChem-05262214473D

 46 45  0     1  0  0  0  0  0999 V2000
   -4.6700    2.7214    1.5150 C   0  0  0  0  0  0  0  0  0  0  0  0
   -5.4532    2.5715    0.5845 O   0  0  0  0  0  0  0  0  0  0  0  0
   -5.0996    3.4865    2.7226 C   0  0  0  0  0  0  0  0  0  0  0  0
   -4.8796    4.5629    2.6387 H   0  0  0  0  0  0  0  0  0  0  0  0
   -6.1861    3.4241    2.8954 H   0  0  0  0  0  0  0  0  0  0  0  0
   -4.6369    3.1693    3.6708 H   0  0  0  0  0  0  0  0  0  0  0  0
   -3.3731    2.2391    1.5790 N   0  0  0  0  0  0  0  0  0  0  0  0
   -2.7599    1.4751    0.5247 C   0  0  2  0  0  0  0  0  0  0  0  0
   -1.5143    0.8067    1.0915 C   0  0  0  0  0  0  0  0  0  0  0  0
   -0.9247    1.2213    2.0872 O   0  0  0  0  0  0  0  0  0  0  0  0
   -2.4106    2.3553   -0.6653 C   0  0  0  0  0  0  0  0  0  0  0  0
   -2.8254    2.4352    2.4150 H   0  0  0  0  0  0  0  0  0  0  0  0
   -3.4836    0.7082    0.2278 H   0  0  0  0  0  0  0  0  0  0  0  0
   -1.6866    3.1298   -0.3871 H   0  0  0  0  0  0  0  0  0  0  0  0
   -1.9704    1.7677   -1.4777 H   0  0  0  0  0  0  0  0  0  0  0  0
   -3.3030    2.8584   -1.0531 H   0  0  0  0  0  0  0  0  0  0  0  0
   -1.1107   -0.2839    0.3303 N   0  0  0  0  0  0  0  0  0  0  0  0
    0.0490   -1.0750    0.6539 C   0  0  2  0  0  0  0  0  0  0  0  0
   -0.4056   -2.2038    1.5746 C   0  0  0  0  0  0  0  0  0  0  0  0
    0.3544   -3.0748    1.9930 O   0  0  0  0  0  0  0  0  0  0  0  0
    1.1754   -0.2470    1.2894 C   0  0  2  0  0  0  0  0  0  0  0  0
    0.7391    0.3439    2.5125 O   0  0  0  0  0  0  0  0  0  0  0  0
    1.6530    0.8745    0.3748 C   0  0  0  0  0  0  0  0  0  0  0  0
   -1.6733   -0.5660   -0.4691 H   0  0  0  0  0  0  0  0  0  0  0  0
    0.3957   -1.5170   -0.2881 H   0  0  0  0  0  0  0  0  0  0  0  0
    2.0319   -0.8889    1.5260 H   0  0  0  0  0  0  0  0  0  0  0  0
    1.5061    0.8067    2.8829 H   0  0  0  0  0  0  0  0  0  0  0  0
    0.8324    1.5486    0.1062 H   0  0  0  0  0  0  0  0  0  0  0  0
    2.0989    0.4773   -0.5421 H   0  0  0  0  0  0  0  0  0  0  0  0
    2.4021    1.4877    0.8876 H   0  0  0  0  0  0  0  0  0  0  0  0
   -1.7680   -2.1517    1.8331 N   0  0  0  0  0  0  0  0  0  0  0  0
   -2.4416   -3.1314    2.6526 C   0  0  2  0  0  0  0  0  0  0  0  0
   -2.1655   -2.7939    4.1118 C   0  0  0  0  0  0  0  0  0  0  0  0
   -1.2000   -2.1249    4.4745 O   0  0  0  0  0  0  0  0  0  0  0  0
   -1.9770   -4.5416    2.3236 C   0  0  0  0  0  0  0  0  0  0  0  0
   -2.3127   -1.3948    1.4301 H   0  0  0  0  0  0  0  0  0  0  0  0
   -3.5134   -3.0300    2.4502 H   0  0  0  0  0  0  0  0  0  0  0  0
   -0.9054   -4.6623    2.5201 H   0  0  0  0  0  0  0  0  0  0  0  0
   -2.5093   -5.2853    2.9257 H   0  0  0  0  0  0  0  0  0  0  0  0
   -2.1491   -4.7720    1.2667 H   0  0  0  0  0  0  0  0  0  0  0  0
   -3.1000   -3.3636    4.9651 N   0  0  0  0  0  0  0  0  0  0  0  0
   -3.0480   -3.2002    6.3992 C   0  0  0  0  0  0  0  0  0  0  0  0
   -3.8784   -3.8873    4.5757 H   0  0  0  0  0  0  0  0  0  0  0  0
   -2.4854   -4.0345    6.8437 H   0  0  0  0  0  0  0  0  0  0  0  0
   -2.5484   -2.2508    6.6421 H   0  0  0  0  0  0  0  0  0  0  0  0
   -4.0706   -3.1906    6.8044 H   0  0  0  0  0  0  0  0  0  0  0  0
  1  3  1  0  0  0  0
  1  7  1  0  0  0  0
  1  2  2  0  0  0  0
 32 33  1  0  0  0  0
 33 41  1  0  0  0  0
 33 34  2  0  0  0  0
  8  9  1  0  0  0  0
  9 17  1  0  0  0  0
  9 10  2  0  0  0  0
 18 19  1  0  0  0  0
 19 31  1  0  0  0  0
 19 20  2  0  0  0  0
 32 35  1  0  0  0  0
  8 11  1  0  0  0  0
 21 23  1  0  0  0  0
 41 42  1  0  0  0  0
 31 32  1  0  0  0  0
  7  8  1  0  0  0  0
 18 21  1  0  0  0  0
 17 18  1  0  0  0  0
 21 22  1  0  0  0  0
  3  4  1  0  0  0  0
  3  5  1  0  0  0  0
  3  6  1  0  0  0  0
 35 38  1  0  0  0  0
 35 39  1  0  0  0  0
 35 40  1  0  0  0  0
 11 14  1  0  0  0  0
 11 15  1  0  0  0  0
 11 16  1  0  0  0  0
 23 28  1  0  0  0  0
 23 29  1  0  0  0  0
 23 30  1  0  0  0  0
 42 44  1  0  0  0  0
 42 45  1  0  0  0  0
 42 46  1  0  0  0  0
 32 37  1  0  0  0  0
  8 13  1  0  0  0  0
 18 25  1  0  0  0  0
 21 26  1  0  0  0  0
 41 43  1  0  0  0  0
  7 12  1  0  0  0  0
 31 36  1  0  0  0  0
 17 24  1  0  0  0  0
 22 27  1  0  0  0  0
M  END
$$$$

  -OEChem-05262214473D

 46 45  0     1  0  0  0  0  0999 V2000
   -4.6700    2.7214    1.5150 C   0  0  0  0  0  0  0  0  0  0  0  0
   -5.4532    2.5715    0.5845 O   0  0  0  0  0  0  0  0  0  0  0  0
   -5.0996    3.4865    2.7226 C   0  0  0  0  0  0  0  0  0  0  0  0
   -4.8796    4.5629    2.6387 H   0  0  0  0  0  0  0  0  0  0  0  0
   -6.1861    3.4241    2.8954 H   0  0  0  0  0  0  0  0  0  0  0  0
   -4.6369    3.1693    3.6708 H   0  0  0  0  0  0  0  0  0  0  0  0
   -3.3731    2.2391    1.5790 N   0  0  0  0  0  0  0  0  0  0  0  0
   -2.7599    1.4751    0.5247 C   0  0  2  0  0  0  0  0  0  0  0  0
   -1.5143    0.8067    1.0915 C   0  0  0  0  0  0  0  0  0  0  0  0
   -0.9247    1.2213    2.0872 O   0  0  0  0  0  0  0  0  0  0  0  0
   -2.4106    2.3553   -0.6653 C   0  0  0  0  0  0  0  0  0  0  0  0
   -2.8254    2.4352    2.4150 H   0  0  0  0  0  0  0  0  0  0  0  0
   -3.4836    0.7082    0.2278 H   0  0  0  0  0  0  0  0  0  0  0  0
   -1.6866    3.1298   -0.3871 H   0  0  0  0  0  0  0  0  0  0  0  0
   -1.9704    1.7677   -1.4777 H   0  0  0  0  0  0  0  0  0  0  0  0
   -3.3030    2.8584   -1.0531 H   0  0  0  0  0  0  0  0  0  0  0  0
   -1.1107   -0.2839    0.3303 N   0  0  0  0  0  0  0  0  0  0  0  0
    0.0490   -1.0750    0.6539 C   0  0  2  0  0  0  0  0  0  0  0  0
   -0.4056   -2.2038    1.5746 C   0  0  0  0  0  0  0  0  0  0  0  0
    0.3776   -2.9110    2.2052 O   0  0  0  0  0  0  0  0  0  0  0  0
    1.1754   -0.2470    1.2894 C   0  0  2  0  0  0  0  0  0  0  0  0
    0.7391    0.3439    2.5125 O   0  0  0  0  0  0  0  0  0  0  0  0
    1.6530    0.8745    0.3748 C   0  0  0  0  0  0  0  0  0  0  0  0
   -1.6733   -0.5660   -0.4691 H   0  0  0  0  0  0  0  0  0  0  0  0
    0.3957   -1.5170   -0.2881 H   0  0  0  0  0  0  0  0  0  0  0  0
    2.0319   -0.8889    1.5260 H   0  0  0  0  0  0  0  0  0  0  0  0
    1.5061    0.8067    2.8829 H   0  0  0  0  0  0  0  0  0  0  0  0
    0.8324    1.5486    0.1062 H   0  0  0  0  0  0  0  0  0  0  0  0
    2.0989    0.4773   -0.5421 H   0  0  0  0  0  0  0  0  0  0  0  0
    2.4021    1.4877    0.8876 H   0  0  0  0  0  0  0  0  0  0  0  0
   -1.7846   -2.3594    1.5701 N   0  0  0  0  0  0  0  0  0  0  0  0
   -2.4535   -3.3836    2.3375 C   0  0  2  0  0  0  0  0  0  0  0  0
   -2.5245   -2.9157    3.7851 C   0  0  0  0  0  0  0  0  0  0  0  0
   -1.7601   -2.0767    4.2571 O   0  0  0  0  0  0  0  0  0  0  0  0
   -1.7287   -4.7163    2.2320 C   0  0  0  0  0  0  0  0  0  0  0  0
   -2.3452   -1.7284    1.0051 H   0  0  0  0  0  0  0  0  0  0  0  0
   -3.4671   -3.4717    1.9315 H   0  0  0  0  0  0  0  0  0  0  0  0
   -0.7112   -4.6477    2.6339 H   0  0  0  0  0  0  0  0  0  0  0  0
   -2.2528   -5.4985    2.7911 H   0  0  0  0  0  0  0  0  0  0  0  0
   -1.6524   -5.0368    1.1873 H   0  0  0  0  0  0  0  0  0  0  0  0
   -3.5139   -3.5768    4.4994 N   0  0  0  0  0  0  0  0  0  0  0  0
   -3.7711   -3.3187    5.8970 C   0  0  0  0  0  0  0  0  0  0  0  0
   -4.1133   -4.2439    4.0225 H   0  0  0  0  0  0  0  0  0  0  0  0
   -3.1898   -4.0205    6.5130 H   0  0  0  0  0  0  0  0  0  0  0  0
   -3.4761   -2.2871    6.1395 H   0  0  0  0  0  0  0  0  0  0  0  0
   -4.8434   -3.4515    6.1029 H   0  0  0  0  0  0  0  0  0  0  0  0
  1  3  1  0  0  0  0
  1  7  1  0  0  0  0
  1  2  2  0  0  0  0
 32 33  1  0  0  0  0
 33 41  1  0  0  0  0
 33 34  2  0  0  0  0
  8  9  1  0  0  0  0
  9 17  1  0  0  0  0
  9 10  2  0  0  0  0
 18 19  1  0  0  0  0
 19 31  1  0  0  0  0
 19 20  2  0  0  0  0
 32 35  1  0  0  0  0
  8 11  1  0  0  0  0
 21 23  1  0  0  0  0
 41 42  1  0  0  0  0
 31 32  1  0  0  0  0
  7  8  1  0  0  0  0
 18 21  1  0  0  0  0
 17 18  1  0  0  0  0
 21 22  1  0  0  0  0
  3  4  1  0  0  0  0
  3  5  1  0  0  0  0
  3  6  1  0  0  0  0
 35 38  1  0  0  0  0
 35 39  1  0  0  0  0
 35 40  1  0  0  0  0
 11 14  1  0  0  0  0
 11 15  1  0  0  0  0
 11 16  1  0  0  0  0
 23 28  1  0  0  0  0
 23 29  1  0  0  0  0
 23 30  1  0  0  0  0
 42 44  1  0  0  0  0
 42 45  1  0  0  0  0
 42 46  1  0  0  0  0
 32 37  1  0  0  0  0
  8 13  1  0  0  0  0
 18 25  1  0  0  0  0
 21 26  1  0  0  0  0
 41 43  1  0  0  0  0
  7 12  1  0  0  0  0
 31 36  1  0  0  0  0
 17 24  1  0  0  0  0
 22 27  1  0  0  0  0
M  END
$$$$

  -OEChem-05262214473D

 46 45  0     1  0  0  0  0  0999 V2000
   -4.6700    2.7214    1.5150 C   0  0  0  0  0  0  0  0  0  0  0  0
   -5.4532    2.5715    0.5845 O   0  0  0  0  0  0  0  0  0  0  0  0
   -5.0996    3.4865    2.7226 C   0  0  0  0  0  0  0  0  0  0  0  0
   -4.8796    4.5629    2.6387 H   0  0  0  0  0  0  0  0  0  0  0  0
   -6.1861    3.4241    2.8954 H   0  0  0  0  0  0  0  0  0  0  0  0
   -4.6369    3.1693    3.6708 H   0  0  0  0  0  0  0  0  0  0  0  0
   -3.3731    2.2391    1.5790 N   0  0  0  0  0  0  0  0  0  0  0  0
   -2.7599    1.4751    0.5247 C   0  0  2  0  0  0  0  0  0  0  0  0
   -1.5143    0.8067    1.0915 C   0  0  0  0  0  0  0  0  0  0  0  0
   -0.9247    1.2213    2.0872 O   0  0  0  0  0  0  0  0  0  0  0  0
   -2.4106    2.3553   -0.6653 C   0  0  0  0  0  0  0  0  0  0  0  0
   -2.8254    2.4352    2.4150 H   0  0  0  0  0  0  0  0  0  0  0  0
   -3.4836    0.7082    0.2278 H   0  0  0  0  0  0  0  0  0  0  0  0
   -1.6866    3.1298   -0.3871 H   0  0  0  0  0  0  0  0  0  0  0  0
   -1.9704    1.7677   -1.4777 H   0  0  0  0  0  0  0  0  0  0  0  0
   -3.3030    2.8584   -1.0531 H   0  0  0  0  0  0  0  0  0  0  0  0
   -1.1107   -0.2839    0.3303 N   0  0  0  0  0  0  0  0  0  0  0  0
    0.0490   -1.0750    0.6539 C   0  0  2  0  0  0  0  0  0  0  0  0
   -0.4056   -2.2038    1.5746 C   0  0  0  0  0  0  0  0  0  0  0  0
    0.3338   -2.7329    2.4020 O   0  0  0  0  0  0  0  0  0  0  0  0
    1.1754   -0.2470    1.2894 C   0  0  2  0  0  0  0  0  0  0  0  0
    0.7391    0.3439    2.5125 O   0  0  0  0  0  0  0  0  0  0  0  0
    1.6530    0.8745    0.3748 C   0  0  0  0  0  0  0  0  0  0  0  0
   -1.6733   -0.5660   -0.4691 H   0  0  0  0  0  0  0  0  0  0  0  0
    0.3957   -1.5170   -0.2881 H   0  0  0  0  0  0  0  0  0  0  0  0
    2.0319   -0.8889    1.5260 H   0  0  0  0  0  0  0  0  0  0  0  0
    1.5061    0.8067    2.8829 H   0  0  0  0  0  0  0  0  0  0  0  0
    0.8324    1.5486    0.1062 H   0  0  0  0  0  0  0  0  0  0  0  0
    2.0989    0.4773   -0.5421 H   0  0  0  0  0  0  0  0  0  0  0  0
    2.4021    1.4877    0.8876 H   0  0  0  0  0  0  0  0  0  0  0  0
   -1.7177   -2.5830    1.3290 N   0  0  0  0  0  0  0  0  0  0  0  0
   -2.3653   -3.6534    2.0504 C   0  0  2  0  0  0  0  0  0  0  0  0
   -2.7896   -3.1147    3.4103 C   0  0  0  0  0  0  0  0  0  0  0  0
   -2.2669   -2.1342    3.9362 O   0  0  0  0  0  0  0  0  0  0  0  0
   -1.4440   -4.8534    2.2045 C   0  0  0  0  0  0  0  0  0  0  0  0
   -2.2431   -2.0884    0.6141 H   0  0  0  0  0  0  0  0  0  0  0  0
   -3.2541   -3.9311    1.4734 H   0  0  0  0  0  0  0  0  0  0  0  0
   -0.5478   -4.5944    2.7800 H   0  0  0  0  0  0  0  0  0  0  0  0
   -1.9461   -5.6746    2.7265 H   0  0  0  0  0  0  0  0  0  0  0  0
   -1.1160   -5.2211    1.2262 H   0  0  0  0  0  0  0  0  0  0  0  0
   -3.7912   -3.8833    3.9867 N   0  0  0  0  0  0  0  0  0  0  0  0
   -4.3549   -3.5847    5.2825 C   0  0  0  0  0  0  0  0  0  0  0  0
   -4.1786   -4.6678    3.4707 H   0  0  0  0  0  0  0  0  0  0  0  0
   -3.8091   -4.1425    6.0577 H   0  0  0  0  0  0  0  0  0  0  0  0
   -4.2704   -2.5058    5.4792 H   0  0  0  0  0  0  0  0  0  0  0  0
   -5.4149   -3.8783    5.2975 H   0  0  0  0  0  0  0  0  0  0  0  0
  1  3  1  0  0  0  0
  1  7  1  0  0  0  0
  1  2  2  0  0  0  0
 32 33  1  0  0  0  0
 33 41  1  0  0  0  0
 33 34  2  0  0  0  0
  8  9  1  0  0  0  0
  9 17  1  0  0  0  0
  9 10  2  0  0  0  0
 18 19  1  0  0  0  0
 19 31  1  0  0  0  0
 19 20  2  0  0  0  0
 32 35  1  0  0  0  0
  8 11  1  0  0  0  0
 21 23  1  0  0  0  0
 41 42  1  0  0  0  0
 31 32  1  0  0  0  0
  7  8  1  0  0  0  0
 18 21  1  0  0  0  0
 17 18  1  0  0  0  0
 21 22  1  0  0  0  0
  3  4  1  0  0  0  0
  3  5  1  0  0  0  0
  3  6  1  0  0  0  0
 35 38  1  0  0  0  0
 35 39  1  0  0  0  0
 35 40  1  0  0  0  0
 11 14  1  0  0  0  0
 11 15  1  0  0  0  0
 11 16  1  0  0  0  0
 23 28  1  0  0  0  0
 23 29  1  0  0  0  0
 23 30  1  0  0  0  0
 42 44  1  0  0  0  0
 42 45  1  0  0  0  0
 42 46  1  0  0  0  0
 32 37  1  0  0  0  0
  8 13  1  0  0  0  0
 18 25  1  0  0  0  0
 21 26  1  0  0  0  0
 41 43  1  0  0  0  0
  7 12  1  0  0  0  0
 31 36  1  0  0  0  0
 17 24  1  0  0  0  0
 22 27  1  0  0  0  0
M  END
$$$$

  -OEChem-05262214473D

 46 45  0     1  0  0  0  0  0999 V2000
   -4.6700    2.7214    1.5150 C   0  0  0  0  0  0  0  0  0  0  0  0
   -5.4532    2.5715    0.5845 O   0  0  0  0  0  0  0  0  0  0  0  0
   -5.0996    3.4865    2.7226 C   0  0  0  0  0  0  0  0  0  0  0  0
   -4.8796    4.5629    2.6387 H   0  0  0  0  0  0  0  0  0  0  0  0
   -6.1861    3.4241    2.8954 H   0  0  0  0  0  0  0  0  0  0  0  0
   -4.6369    3.1693    3.6708 H   0  0  0  0  0  0  0  0  0  0  0  0
   -3.3731    2.2391    1.5790 N   0  0  0  0  0  0  0  0  0  0  0  0
   -2.7599    1.4751    0.5247 C   0  0  2  0  0  0  0  0  0  0  0  0
   -1.5143    0.8067    1.0915 C   0  0  0  0  0  0  0  0  0  0  0  0
   -0.9247    1.2213    2.0872 O   0  0  0  0  0  0  0  0  0  0  0  0
   -2.4106    2.3553   -0.6653 C   0  0  0  0  0  0  0  0  0  0  0  0
   -2.8254    2.4352    2.4150 H   0  0  0  0  0  0  0  0  0  0  0  0
   -3.4836    0.7082    0.2278 H   0  0  0  0  0  0  0  0  0  0  0  0
   -1.6866    3.1298   -0.3871 H   0  0  0  0  0  0  0  0  0  0  0  0
   -1.9704    1.7677   -1.4777 H   0  0  0  0  0  0  0  0  0  0  0  0
   -3.3030    2.8584   -1.0531 H   0  0  0  0  0  0  0  0  0  0  0  0
   -1.1107   -0.2839    0.3303 N   0  0  0  0  0  0  0  0  0  0  0  0
    0.0490   -1.0750    0.6539 C   0  0  2  0  0  0  0  0  0  0  0  0
   -0.4056   -2.2038    1.5746 C   0  0  0  0  0  0  0  0  0  0  0  0
    0.2260   -2.5525    2.5699 O   0  0  0  0  0  0  0  0  0  0  0  0
    1.1754   -0.2470    1.2894 C   0  0  2  0  0  0  0  0  0  0  0  0
    0.7391    0.3439    2.5125 O   0  0  0  0  0  0  0  0  0  0  0  0
    1.6530    0.8745    0.3748 C   0  0  0  0  0  0  0  0  0  0  0  0
   -1.6733   -0.5660   -0.4691 H   0  0  0  0  0  0  0  0  0  0  0  0
    0.3957   -1.5170   -0.2881 H   0  0  0  0  0  0  0  0  0  0  0  0
    2.0319   -0.8889    1.5260 H   0  0  0  0  0  0  0  0  0  0  0  0
    1.5061    0.8067    2.8829 H   0  0  0  0  0  0  0  0  0  0  0  0
    0.8324    1.5486    0.1062 H   0  0  0  0  0  0  0  0  0  0  0  0
    2.0989    0.4773   -0.5421 H   0  0  0  0  0  0  0  0  0  0  0  0
    2.4021    1.4877    0.8876 H   0  0  0  0  0  0  0  0  0  0  0  0
   -1.5721   -2.8071    1.1262 N   0  0  0  0  0  0  0  0  0  0  0  0
   -2.1830   -3.9223    1.8107 C   0  0  2  0  0  0  0  0  0  0  0  0
   -2.9429   -3.3772    3.0127 C   0  0  0  0  0  0  0  0  0  0  0  0
   -2.6861   -2.2938    3.5337 O   0  0  0  0  0  0  0  0  0  0  0  0
   -1.1424   -4.9435    2.2430 C   0  0  0  0  0  0  0  0  0  0  0  0
   -2.0135   -2.4504    0.2837 H   0  0  0  0  0  0  0  0  0  0  0  0
   -2.8889   -4.3769    1.1072 H   0  0  0  0  0  0  0  0  0  0  0  0
   -0.4262   -4.5062    2.9482 H   0  0  0  0  0  0  0  0  0  0  0  0
   -1.6099   -5.8019    2.7365 H   0  0  0  0  0  0  0  0  0  0  0  0
   -0.5766   -5.3124    1.3806 H   0  0  0  0  0  0  0  0  0  0  0  0
   -3.9130   -4.2622    3.4620 N   0  0  0  0  0  0  0  0  0  0  0  0
   -4.7596   -3.9803    4.5977 C   0  0  0  0  0  0  0  0  0  0  0  0
   -4.0698   -5.1299    2.9578 H   0  0  0  0  0  0  0  0  0  0  0  0
   -4.3010   -4.3921    5.5088 H   0  0  0  0  0  0  0  0  0  0  0  0
   -4.8770   -2.8919    4.7062 H   0  0  0  0  0  0  0  0  0  0  0  0
   -5.7460   -4.4418    4.4431 H   0  0  0  0  0  0  0  0  0  0  0  0
  1  3  1  0  0  0  0
  1  7  1  0  0  0  0
  1  2  2  0  0  0  0
 32 33  1  0  0  0  0
 33 41  1  0  0  0  0
 33 34  2  0  0  0  0
  8  9  1  0  0  0  0
  9 17  1  0  0  0  0
  9 10  2  0  0  0  0
 18 19  1  0  0  0  0
 19 31  1  0  0  0  0
 19 20  2  0  0  0  0
 32 35  1  0  0  0  0
  8 11  1  0  0  0  0
 21 23  1  0  0  0  0
 41 42  1  0  0  0  0
 31 32  1  0  0  0  0
  7  8  1  0  0  0  0
 18 21  1  0  0  0  0
 17 18  1  0  0  0  0
 21 22  1  0  0  0  0
  3  4  1  0  0  0  0
  3  5  1  0  0  0  0
  3  6  1  0  0  0  0
 35 38  1  0  0  0  0
 35 39  1  0  0  0  0
 35 40  1  0  0  0  0
 11 14  1  0  0  0  0
 11 15  1  0  0  0  0
 11 16  1  0  0  0  0
 23 28  1  0  0  0  0
 23 29  1  0  0  0  0
 23 30  1  0  0  0  0
 42 44  1  0  0  0  0
 42 45  1  0  0  0  0
 42 46  1  0  0  0  0
 32 37  1  0  0  0  0
  8 13  1  0  0  0  0
 18 25  1  0  0  0  0
 21 26  1  0  0  0  0
 41 43  1  0  0  0  0
  7 12  1  0  0  0  0
 31 36  1  0  0  0  0
 17 24  1  0  0  0  0
 22 27  1  0  0  0  0
M  END
$$$$

  -OEChem-05262214473D

 46 45  0     1  0  0  0  0  0999 V2000
   -4.6700    2.7214    1.5150 C   0  0  0  0  0  0  0  0  0  0  0  0
   -5.4532    2.5715    0.5845 O   0  0  0  0  0  0  0  0  0  0  0  0
   -5.0996    3.4865    2.7226 C   0  0  0  0  0  0  0  0  0  0  0  0
   -4.8796    4.5629    2.6387 H   0  0  0  0  0  0  0  0  0  0  0  0
   -6.1861    3.4241    2.8954 H   0  0  0  0  0  0  0  0  0  0  0  0
   -4.6369    3.1693    3.6708 H   0  0  0  0  0  0  0  0  0  0  0  0
   -3.3731    2.2391    1.5790 N   0  0  0  0  0  0  0  0  0  0  0  0
   -2.7599    1.4751    0.5247 C   0  0  2  0  0  0  0  0  0  0  0  0
   -1.5143    0.8067    1.0915 C   0  0  0  0  0  0  0  0  0  0  0  0
   -0.9247    1.2213    2.0872 O   0  0  0  0  0  0  0  0  0  0  0  0
   -2.4106    2.3553   -0.6653 C   0  0  0  0  0  0  0  0  0  0  0  0
   -2.8254    2.4352    2.4150 H   0  0  0  0  0  0  0  0  0  0  0  0
   -3.4836    0.7082    0.2278 H   0  0  0  0  0  0  0  0  0  0  0  0
   -1.6866    3.1298   -0.3871 H   0  0  0  0  0  0  0  0  0  0  0  0
   -1.9704    1.7677   -1.4777 H   0  0  0  0  0  0  0  0  0  0  0  0
   -3.3030    2.8584   -1.0531 H   0  0  0  0  0  0  0  0  0  0  0  0
   -1.1107   -0.2839    0.3303 N   0  0  0  0  0  0  0  0  0  0  0  0
    0.0490   -1.0750    0.6539 C   0  0  2  0  0  0  0  0  0  0  0  0
   -0.4056   -2.2038    1.5746 C   0  0  0  0  0  0  0  0  0  0  0  0
    0.0616   -2.3821    2.6976 O   0  0  0  0  0  0  0  0  0  0  0  0
    1.1754   -0.2470    1.2894 C   0  0  2  0  0  0  0  0  0  0  0  0
    0.7391    0.3439    2.5125 O   0  0  0  0  0  0  0  0  0  0  0  0
    1.6530    0.8745    0.3748 C   0  0  0  0  0  0  0  0  0  0  0  0
   -1.6733   -0.5660   -0.4691 H   0  0  0  0  0  0  0  0  0  0  0  0
    0.3957   -1.5170   -0.2881 H   0  0  0  0  0  0  0  0  0  0  0  0
    2.0319   -0.8889    1.5260 H   0  0  0  0  0  0  0  0  0  0  0  0
    1.5061    0.8067    2.8829 H   0  0  0  0  0  0  0  0  0  0  0  0
    0.8324    1.5486    0.1062 H   0  0  0  0  0  0  0  0  0  0  0  0
    2.0989    0.4773   -0.5421 H   0  0  0  0  0  0  0  0  0  0  0  0
    2.4021    1.4877    0.8876 H   0  0  0  0  0  0  0  0  0  0  0  0
   -1.3576   -3.0165    0.9754 N   0  0  0  0  0  0  0  0  0  0  0  0
   -1.9190   -4.1720    1.6348 C   0  0  2  0  0  0  0  0  0  0  0  0
   -2.9738   -3.6853    2.6197 C   0  0  0  0  0  0  0  0  0  0  0  0
   -2.9890   -2.5444    3.0769 O   0  0  0  0  0  0  0  0  0  0  0  0
   -0.8443   -4.9804    2.3449 C   0  0  0  0  0  0  0  0  0  0  0  0
   -1.6718   -2.7896    0.0364 H   0  0  0  0  0  0  0  0  0  0  0  0
   -2.3964   -4.7788    0.8577 H   0  0  0  0  0  0  0  0  0  0  0  0
   -0.3547   -4.3890    3.1272 H   0  0  0  0  0  0  0  0  0  0  0  0
   -1.2673   -5.8716    2.8203 H   0  0  0  0  0  0  0  0  0  0  0  0
   -0.0709   -5.3044    1.6401 H   0  0  0  0  0  0  0  0  0  0  0  0
   -3.8710   -4.6876    2.9611 N   0  0  0  0  0  0  0  0  0  0  0  0
   -4.9577   -4.4783    3.8893 C   0  0  0  0  0  0  0  0  0  0  0  0
   -3.7944   -5.5988    2.5188 H   0  0  0  0  0  0  0  0  0  0  0  0
   -4.6321   -4.7523    4.9036 H   0  0  0  0  0  0  0  0  0  0  0  0
   -5.2546   -3.4193    3.8731 H   0  0  0  0  0  0  0  0  0  0  0  0
   -5.8143   -5.1038    3.5978 H   0  0  0  0  0  0  0  0  0  0  0  0
  1  3  1  0  0  0  0
  1  7  1  0  0  0  0
  1  2  2  0  0  0  0
 32 33  1  0  0  0  0
 33 41  1  0  0  0  0
 33 34  2  0  0  0  0
  8  9  1  0  0  0  0
  9 17  1  0  0  0  0
  9 10  2  0  0  0  0
 18 19  1  0  0  0  0
 19 31  1  0  0  0  0
 19 20  2  0  0  0  0
 32 35  1  0  0  0  0
  8 11  1  0  0  0  0
 21 23  1  0  0  0  0
 41 42  1  0  0  0  0
 31 32  1  0  0  0  0
  7  8  1  0  0  0  0
 18 21  1  0  0  0  0
 17 18  1  0  0  0  0
 21 22  1  0  0  0  0
  3  4  1  0  0  0  0
  3  5  1  0  0  0  0
  3  6  1  0  0  0  0
 35 38  1  0  0  0  0
 35 39  1  0  0  0  0
 35 40  1  0  0  0  0
 11 14  1  0  0  0  0
 11 15  1  0  0  0  0
 11 16  1  0  0  0  0
 23 28  1  0  0  0  0
 23 29  1  0  0  0  0
 23 30  1  0  0  0  0
 42 44  1  0  0  0  0
 42 45  1  0  0  0  0
 42 46  1  0  0  0  0
 32 37  1  0  0  0  0
  8 13  1  0  0  0  0
 18 25  1  0  0  0  0
 21 26  1  0  0  0  0
 41 43  1  0  0  0  0
  7 12  1  0  0  0  0
 31 36  1  0  0  0  0
 17 24  1  0  0  0  0
 22 27  1  0  0  0  0
M  END
$$$$

  -OEChem-05262214473D

 46 45  0     1  0  0  0  0  0999 V2000
   -4.6700    2.7214    1.5150 C   0  0  0  0  0  0  0  0  0  0  0  0
   -5.4532    2.5715    0.5845 O   0  0  0  0  0  0  0  0  0  0  0  0
   -5.0996    3.4865    2.7226 C   0  0  0  0  0  0  0  0  0  0  0  0
   -4.8796    4.5629    2.6387 H   0  0  0  0  0  0  0  0  0  0  0  0
   -6.1861    3.4241    2.8954 H   0  0  0  0  0  0  0  0  0  0  0  0
   -4.6369    3.1693    3.6708 H   0  0  0  0  0  0  0  0  0  0  0  0
   -3.3731    2.2391    1.5790 N   0  0  0  0  0  0  0  0  0  0  0  0
   -2.7599    1.4751    0.5247 C   0  0  2  0  0  0  0  0  0  0  0  0
   -1.5143    0.8067    1.0915 C   0  0  0  0  0  0  0  0  0  0  0  0
   -0.9247    1.2213    2.0872 O   0  0  0  0  0  0  0  0  0  0  0  0
   -2.4106    2.3553   -0.6653 C   0  0  0  0  0  0  0  0  0  0  0  0
   -2.8254    2.4352    2.4150 H   0  0  0  0  0  0  0  0  0  0  0  0
   -3.4836    0.7082    0.2278 H   0  0  0  0  0  0  0  0  0  0  0  0
   -1.6866    3.1298   -0.3871 H   0  0  0  0  0  0  0  0  0  0  0  0
   -1.9704    1.7677   -1.4777 H   0  0  0  0  0  0  0  0  0  0  0  0
   -3.3030    2.8584   -1.0531 H   0  0  0  0  0  0  0  0  0  0  0  0
   -1.1107   -0.2839    0.3303 N   0  0  0  0  0  0  0  0  0  0  0  0
    0.0490   -1.0750    0.6539 C   0  0  2  0  0  0  0  0  0  0  0  0
   -0.4056   -2.2038    1.5746 C   0  0  0  0  0  0  0  0  0  0  0  0
   -0.1483   -2.2334    2.7763 O   0  0  0  0  0  0  0  0  0  0  0  0
    1.1754   -0.2470    1.2894 C   0  0  2  0  0  0  0  0  0  0  0  0
    0.7391    0.3439    2.5125 O   0  0  0  0  0  0  0  0  0  0  0  0
    1.6530    0.8745    0.3748 C   0  0  0  0  0  0  0  0  0  0  0  0
   -1.6733   -0.5660   -0.4691 H   0  0  0  0  0  0  0  0  0  0  0  0
    0.3957   -1.5170   -0.2881 H   0  0  0  0  0  0  0  0  0  0  0  0
    2.0319   -0.8889    1.5260 H   0  0  0  0  0  0  0  0  0  0  0  0
    1.5061    0.8067    2.8829 H   0  0  0  0  0  0  0  0  0  0  0  0
    0.8324    1.5486    0.1062 H   0  0  0  0  0  0  0  0  0  0  0  0
    2.0989    0.4773   -0.5421 H   0  0  0  0  0  0  0  0  0  0  0  0
    2.4021    1.4877    0.8876 H   0  0  0  0  0  0  0  0  0  0  0  0
   -1.0889   -3.1968    0.8870 N   0  0  0  0  0  0  0  0  0  0  0  0
   -1.5913   -4.3856    1.5347 C   0  0  2  0  0  0  0  0  0  0  0  0
   -2.8804   -4.0181    2.2578 C   0  0  0  0  0  0  0  0  0  0  0  0
   -3.1550   -2.8689    2.5970 O   0  0  0  0  0  0  0  0  0  0  0  0
   -0.5701   -4.9617    2.5032 C   0  0  0  0  0  0  0  0  0  0  0  0
   -1.2415   -3.0830   -0.1108 H   0  0  0  0  0  0  0  0  0  0  0  0
   -1.8102   -5.1093    0.7420 H   0  0  0  0  0  0  0  0  0  0  0  0
   -0.3382   -4.2508    3.3047 H   0  0  0  0  0  0  0  0  0  0  0  0
   -0.9414   -5.8789    2.9722 H   0  0  0  0  0  0  0  0  0  0  0  0
    0.3667   -5.1978    1.9870 H   0  0  0  0  0  0  0  0  0  0  0  0
   -3.6682   -5.1307    2.5181 N   0  0  0  0  0  0  0  0  0  0  0  0
   -4.9356   -5.0450    3.2054 C   0  0  0  0  0  0  0  0  0  0  0  0
   -3.3711   -6.0426    2.1838 H   0  0  0  0  0  0  0  0  0  0  0  0
   -4.7798   -5.1987    4.2835 H   0  0  0  0  0  0  0  0  0  0  0  0
   -5.3775   -4.0519    3.0369 H   0  0  0  0  0  0  0  0  0  0  0  0
   -5.6150   -5.8190    2.8192 H   0  0  0  0  0  0  0  0  0  0  0  0
  1  3  1  0  0  0  0
  1  7  1  0  0  0  0
  1  2  2  0  0  0  0
 32 33  1  0  0  0  0
 33 41  1  0  0  0  0
 33 34  2  0  0  0  0
  8  9  1  0  0  0  0
  9 17  1  0  0  0  0
  9 10  2  0  0  0  0
 18 19  1  0  0  0  0
 19 31  1  0  0  0  0
 19 20  2  0  0  0  0
 32 35  1  0  0  0  0
  8 11  1  0  0  0  0
 21 23  1  0  0  0  0
 41 42  1  0  0  0  0
 31 32  1  0  0  0  0
  7  8  1  0  0  0  0
 18 21  1  0  0  0  0
 17 18  1  0  0  0  0
 21 22  1  0  0  0  0
  3  4  1  0  0  0  0
  3  5  1  0  0  0  0
  3  6  1  0  0  0  0
 35 38  1  0  0  0  0
 35 39  1  0  0  0  0
 35 40  1  0  0  0  0
 11 14  1  0  0  0  0
 11 15  1  0  0  0  0
 11 16  1  0  0  0  0
 23 28  1  0  0  0  0
 23 29  1  0  0  0  0
 23 30  1  0  0  0  0
 42 44  1  0  0  0  0
 42 45  1  0  0  0  0
 42 46  1  0  0  0  0
 32 37  1  0  0  0  0
  8 13  1  0  0  0  0
 18 25  1  0  0  0  0
 21 26  1  0  0  0  0
 41 43  1  0  0  0  0
  7 12  1  0  0  0  0
 31 36  1  0  0  0  0
 17 24  1  0  0  0  0
 22 27  1  0  0  0  0
M  END
$$$$

  -OEChem-05262214473D

 46 45  0     1  0  0  0  0  0999 V2000
   -4.6700    2.7214    1.5150 C   0  0  0  0  0  0  0  0  0  0  0  0
   -5.4532    2.5715    0.5845 O   0  0  0  0  0  0  0  0  0  0  0  0
   -5.0996    3.4865    2.7226 C   0  0  0  0  0  0  0  0  0  0  0  0
   -4.8796    4.5629    2.6387 H   0  0  0  0  0  0  0  0  0  0  0  0
   -6.1861    3.4241    2.8954 H   0  0  0  0  0  0  0  0  0  0  0  0
   -4.6369    3.1693    3.6708 H   0  0  0  0  0  0  0  0  0  0  0  0
   -3.3731    2.2391    1.5790 N   0  0  0  0  0  0  0  0  0  0  0  0
   -2.7599    1.4751    0.5247 C   0  0  2  0  0  0  0  0  0  0  0  0
   -1.5143    0.8067    1.0915 C   0  0  0  0  0  0  0  0  0  0  0  0
   -0.9247    1.2213    2.0872 O   0  0  0  0  0  0  0  0  0  0  0  0
   -2.4106    2.3553   -0.6653 C   0  0  0  0  0  0  0  0  0  0  0  0
   -2.8254    2.4352    2.4150 H   0  0  0  0  0  0  0  0  0  0  0  0
   -3.4836    0.7082    0.2278 H   0  0  0  0  0  0  0  0  0  0  0  0
   -1.6866    3.1298   -0.3871 H   0  0  0  0  0  0  0  0  0  0  0  0
   -1.9704    1.7677   -1.4777 H   0  0  0  0  0  0  0  0  0  0  0  0
   -3.3030    2.8584   -1.0531 H   0  0  0  0  0  0  0  0  0  0  0  0
   -1.1107   -0.2839    0.3303 N   0  0  0  0  0  0  0  0  0  0  0  0
    0.0490   -1.0750    0.6539 C   0  0  2  0  0  0  0  0  0  0  0  0
   -0.4056   -2.2038    1.5746 C   0  0  0  0  0  0  0  0  0  0  0  0
   -0.3894   -2.1164    2.8007 O   0  0  0  0  0  0  0  0  0  0  0  0
    1.1754   -0.2470    1.2894 C   0  0  2  0  0  0  0  0  0  0  0  0
    0.7391    0.3439    2.5125 O   0  0  0  0  0  0  0  0  0  0  0  0
    1.6530    0.8745    0.3748 C   0  0  0  0  0  0  0  0  0  0  0  0
   -1.6733   -0.5660   -0.4691 H   0  0  0  0  0  0  0  0  0  0  0  0
    0.3957   -1.5170   -0.2881 H   0  0  0  0  0  0  0  0  0  0  0  0
    2.0319   -0.8889    1.5260 H   0  0  0  0  0  0  0  0  0  0  0  0
    1.5061    0.8067    2.8829 H   0  0  0  0  0  0  0  0  0  0  0  0
    0.8324    1.5486    0.1062 H   0  0  0  0  0  0  0  0  0  0  0  0
    2.0989    0.4773   -0.5421 H   0  0  0  0  0  0  0  0  0  0  0  0
    2.4021    1.4877    0.8876 H   0  0  0  0  0  0  0  0  0  0  0  0
   -0.7842   -3.3359    0.8669 N   0  0  0  0  0  0  0  0  0  0  0  0
   -1.2223   -4.5485    1.5173 C   0  0  2  0  0  0  0  0  0  0  0  0
   -2.6688   -4.3529    1.9519 C   0  0  0  0  0  0  0  0  0  0  0  0
   -3.1728   -3.2454    2.1267 O   0  0  0  0  0  0  0  0  0  0  0  0
   -0.3385   -4.8886    2.7072 C   0  0  0  0  0  0  0  0  0  0  0  0
   -0.7519   -3.3106   -0.1480 H   0  0  0  0  0  0  0  0  0  0  0  0
   -1.1702   -5.3459    0.7679 H   0  0  0  0  0  0  0  0  0  0  0  0
   -0.3779   -4.1011    3.4687 H   0  0  0  0  0  0  0  0  0  0  0  0
   -0.6546   -5.8234    3.1819 H   0  0  0  0  0  0  0  0  0  0  0  0
    0.7062   -4.9996    2.3976 H   0  0  0  0  0  0  0  0  0  0  0  0
   -3.3182   -5.5611    2.1632 N   0  0  0  0  0  0  0  0  0  0  0  0
   -4.6948   -5.6416    2.5928 C   0  0  0  0  0  0  0  0  0  0  0  0
   -2.8287   -6.4310    1.9754 H   0  0  0  0  0  0  0  0  0  0  0  0
   -4.7340   -5.7007    3.6906 H   0  0  0  0  0  0  0  0  0  0  0  0
   -5.2374   -4.7466    2.2543 H   0  0  0  0  0  0  0  0  0  0  0  0
   -5.1618   -6.5388    2.1606 H   0  0  0  0  0  0  0  0  0  0  0  0
  1  3  1  0  0  0  0
  1  7  1  0  0  0  0
  1  2  2  0  0  0  0
 32 33  1  0  0  0  0
 33 41  1  0  0  0  0
 33 34  2  0  0  0  0
  8  9  1  0  0  0  0
  9 17  1  0  0  0  0
  9 10  2  0  0  0  0
 18 19  1  0  0  0  0
 19 31  1  0  0  0  0
 19 20  2  0  0  0  0
 32 35  1  0  0  0  0
  8 11  1  0  0  0  0
 21 23  1  0  0  0  0
 41 42  1  0  0  0  0
 31 32  1  0  0  0  0
  7  8  1  0  0  0  0
 18 21  1  0  0  0  0
 17 18  1  0  0  0  0
 21 22  1  0  0  0  0
  3  4  1  0  0  0  0
  3  5  1  0  0  0  0
  3  6  1  0  0  0  0
 35 38  1  0  0  0  0
 35 39  1  0  0  0  0
 35 40  1  0  0  0  0
 11 14  1  0  0  0  0
 11 15  1  0  0  0  0
 11 16  1  0  0  0  0
 23 28  1  0  0  0  0
 23 29  1  0  0  0  0
 23 30  1  0  0  0  0
 42 44  1  0  0  0  0
 42 45  1  0  0  0  0
 42 46  1  0  0  0  0
 32 37  1  0  0  0  0
  8 13  1  0  0  0  0
 18 25  1  0  0  0  0
 21 26  1  0  0  0  0
 41 43  1  0  0  0  0
  7 12  1  0  0  0  0
 31 36  1  0  0  0  0
 17 24  1  0  0  0  0
 22 27  1  0  0  0  0
M  END
$$$$

  -OEChem-05262214473D

 46 45  0     1  0  0  0  0  0999 V2000
   -4.6700    2.7214    1.5150 C   0  0  0  0  0  0  0  0  0  0  0  0
   -5.4532    2.5715    0.5845 O   0  0  0  0  0  0  0  0  0  0  0  0
   -5.0996    3.4865    2.7226 C   0  0  0  0  0  0  0  0  0  0  0  0
   -4.8796    4.5629    2.6387 H   0  0  0  0  0  0  0  0  0  0  0  0
   -6.1861    3.4241    2.8954 H   0  0  0  0  0  0  0  0  0  0  0  0
   -4.6369    3.1693    3.6708 H   0  0  0  0  0  0  0  0  0  0  0  0
   -3.3731    2.2391    1.5790 N   0  0  0  0  0  0  0  0  0  0  0  0
   -2.7599    1.4751    0.5247 C   0  0  2  0  0  0  0  0  0  0  0  0
   -1.5143    0.8067    1.0915 C   0  0  0  0  0  0  0  0  0  0  0  0
   -0.9247    1.2213    2.0872 O   0  0  0  0  0  0  0  0  0  0  0  0
   -2.4106    2.3553   -0.6653 C   0  0  0  0  0  0  0  0  0  0  0  0
   -2.8254    2.4352    2.4150 H   0  0  0  0  0  0  0  0  0  0  0  0
   -3.4836    0.7082    0.2278 H   0  0  0  0  0  0  0  0  0  0  0  0
   -1.6866    3.1298   -0.3871 H   0  0  0  0  0  0  0  0  0  0  0  0
   -1.9704    1.7677   -1.4777 H   0  0  0  0  0  0  0  0  0  0  0  0
   -3.3030    2.8584   -1.0531 H   0  0  0  0  0  0  0  0  0  0  0  0
   -1.1107   -0.2839    0.3303 N   0  0  0  0  0  0  0  0  0  0  0  0
    0.0490   -1.0750    0.6539 C   0  0  2  0  0  0  0  0  0  0  0  0
   -0.4056   -2.2038    1.5746 C   0  0  0  0  0  0  0  0  0  0  0  0
   -0.6451   -2.0392    2.7691 O   0  0  0  0  0  0  0  0  0  0  0  0
    1.1754   -0.2470    1.2894 C   0  0  2  0  0  0  0  0  0  0  0  0
    0.7391    0.3439    2.5125 O   0  0  0  0  0  0  0  0  0  0  0  0
    1.6530    0.8745    0.3748 C   0  0  0  0  0  0  0  0  0  0  0  0
   -1.6733   -0.5660   -0.4691 H   0  0  0  0  0  0  0  0  0  0  0  0
    0.3957   -1.5170   -0.2881 H   0  0  0  0  0  0  0  0  0  0  0  0
    2.0319   -0.8889    1.5260 H   0  0  0  0  0  0  0  0  0  0  0  0
    1.5061    0.8067    2.8829 H   0  0  0  0  0  0  0  0  0  0  0  0
    0.8324    1.5486    0.1062 H   0  0  0  0  0  0  0  0  0  0  0  0
    2.0989    0.4773   -0.5421 H   0  0  0  0  0  0  0  0  0  0  0  0
    2.4021    1.4877    0.8876 H   0  0  0  0  0  0  0  0  0  0  0  0
   -0.4643   -3.4242    0.9166 N   0  0  0  0  0  0  0  0  0  0  0  0
   -0.8371   -4.6496    1.5836 C   0  0  2  0  0  0  0  0  0  0  0  0
   -2.3537   -4.6668    1.7226 C   0  0  0  0  0  0  0  0  0  0  0  0
   -3.0411   -3.6480    1.6980 O   0  0  0  0  0  0  0  0  0  0  0  0
   -0.1653   -4.7661    2.9430 C   0  0  0  0  0  0  0  0  0  0  0  0
   -0.2362   -3.4568   -0.0727 H   0  0  0  0  0  0  0  0  0  0  0  0
   -0.5200   -5.4725    0.9338 H   0  0  0  0  0  0  0  0  0  0  0  0
   -0.4709   -3.9501    3.6079 H   0  0  0  0  0  0  0  0  0  0  0  0
   -0.4264   -5.7088    3.4351 H   0  0  0  0  0  0  0  0  0  0  0  0
    0.9247   -4.7236    2.8439 H   0  0  0  0  0  0  0  0  0  0  0  0
   -2.8450   -5.9495    1.9206 N   0  0  0  0  0  0  0  0  0  0  0  0
   -4.2518   -6.2275    2.0932 C   0  0  0  0  0  0  0  0  0  0  0  0
   -2.2043   -6.7376    1.9079 H   0  0  0  0  0  0  0  0  0  0  0  0
   -4.4979   -6.2242    3.1653 H   0  0  0  0  0  0  0  0  0  0  0  0
   -4.8437   -5.4560    1.5789 H   0  0  0  0  0  0  0  0  0  0  0  0
   -4.4855   -7.2141    1.6666 H   0  0  0  0  0  0  0  0  0  0  0  0
  1  3  1  0  0  0  0
  1  7  1  0  0  0  0
  1  2  2  0  0  0  0
 32 33  1  0  0  0  0
 33 41  1  0  0  0  0
 33 34  2  0  0  0  0
  8  9  1  0  0  0  0
  9 17  1  0  0  0  0
  9 10  2  0  0  0  0
 18 19  1  0  0  0  0
 19 31  1  0  0  0  0
 19 20  2  0  0  0  0
 32 35  1  0  0  0  0
  8 11  1  0  0  0  0
 21 23  1  0  0  0  0
 41 42  1  0  0  0  0
 31 32  1  0  0  0  0
  7  8  1  0  0  0  0
 18 21  1  0  0  0  0
 17 18  1  0  0  0  0
 21 22  1  0  0  0  0
  3  4  1  0  0  0  0
  3  5  1  0  0  0  0
  3  6  1  0  0  0  0
 35 38  1  0  0  0  0
 35 39  1  0  0  0  0
 35 40  1  0  0  0  0
 11 14  1  0  0  0  0
 11 15  1  0  0  0  0
 11 16  1  0  0  0  0
 23 28  1  0  0  0  0
 23 29  1  0  0  0  0
 23 30  1  0  0  0  0
 42 44  1  0  0  0  0
 42 45  1  0  0  0  0
 42 46  1  0  0  0  0
 32 37  1  0  0  0  0
  8 13  1  0  0  0  0
 18 25  1  0  0  0  0
 21 26  1  0  0  0  0
 41 43  1  0  0  0  0
  7 12  1  0  0  0  0
 31 36  1  0  0  0  0
 17 24  1  0  0  0  0
 22 27  1  0  0  0  0
M  END
$$$$

  -OEChem-05262214473D

 46 45  0     1  0  0  0  0  0999 V2000
   -4.6700    2.7214    1.5150 C   0  0  0  0  0  0  0  0  0  0  0  0
   -5.4532    2.5715    0.5845 O   0  0  0  0  0  0  0  0  0  0  0  0
   -5.0996    3.4865    2.7226 C   0  0  0  0  0  0  0  0  0  0  0  0
   -4.8796    4.5629    2.6387 H   0  0  0  0  0  0  0  0  0  0  0  0
   -6.1861    3.4241    2.8954 H   0  0  0  0  0  0  0  0  0  0  0  0
   -4.6369    3.1693    3.6708 H   0  0  0  0  0  0  0  0  0  0  0  0
   -3.3731    2.2391    1.5790 N   0  0  0  0  0  0  0  0  0  0  0  0
   -2.7599    1.4751    0.5247 C   0  0  2  0  0  0  0  0  0  0  0  0
   -1.5143    0.8067    1.0915 C   0  0  0  0  0  0  0  0  0  0  0  0
   -0.9247    1.2213    2.0872 O   0  0  0  0  0  0  0  0  0  0  0  0
   -2.4106    2.3553   -0.6653 C   0  0  0  0  0  0  0  0  0  0  0  0
   -2.8254    2.4352    2.4150 H   0  0  0  0  0  0  0  0  0  0  0  0
   -3.4836    0.7082    0.2278 H   0  0  0  0  0  0  0  0  0  0  0  0
   -1.6866    3.1298   -0.3871 H   0  0  0  0  0  0  0  0  0  0  0  0
   -1.9704    1.7677   -1.4777 H   0  0  0  0  0  0  0  0  0  0  0  0
   -3.3030    2.8584   -1.0531 H   0  0  0  0  0  0  0  0  0  0  0  0
   -1.1107   -0.2839    0.3303 N   0  0  0  0  0  0  0  0  0  0  0  0
    0.0490   -1.0750    0.6539 C   0  0  2  0  0  0  0  0  0  0  0  0
   -0.4056   -2.2038    1.5746 C   0  0  0  0  0  0  0  0  0  0  0  0
   -0.8982   -2.0070    2.6836 O   0  0  0  0  0  0  0  0  0  0  0  0
    1.1754   -0.2470    1.2894 C   0  0  2  0  0  0  0  0  0  0  0  0
    0.7391    0.3439    2.5125 O   0  0  0  0  0  0  0  0  0  0  0  0
    1.6530    0.8745    0.3748 C   0  0  0  0  0  0  0  0  0  0  0  0
   -1.6733   -0.5660   -0.4691 H   0  0  0  0  0  0  0  0  0  0  0  0
    0.3957   -1.5170   -0.2881 H   0  0  0  0  0  0  0  0  0  0  0  0
    2.0319   -0.8889    1.5260 H   0  0  0  0  0  0  0  0  0  0  0  0
    1.5061    0.8067    2.8829 H   0  0  0  0  0  0  0  0  0  0  0  0
    0.8324    1.5486    0.1062 H   0  0  0  0  0  0  0  0  0  0  0  0
    2.0989    0.4773   -0.5421 H   0  0  0  0  0  0  0  0  0  0  0  0
    2.4021    1.4877    0.8876 H   0  0  0  0  0  0  0  0  0  0  0  0
   -0.1511   -3.4557    1.0327 N   0  0  0  0  0  0  0  0  0  0  0  0
   -0.4620   -4.6819    1.7292 C   0  0  2  0  0  0  0  0  0  0  0  0
   -1.9563   -4.9384    1.5858 C   0  0  0  0  0  0  0  0  0  0  0  0
   -2.7690   -4.0494    1.3402 O   0  0  0  0  0  0  0  0  0  0  0  0
   -0.0623   -4.6025    3.1944 C   0  0  0  0  0  0  0  0  0  0  0  0
    0.2702   -3.5118    0.1101 H   0  0  0  0  0  0  0  0  0  0  0  0
    0.0960   -5.4804    1.2282 H   0  0  0  0  0  0  0  0  0  0  0  0
   -0.6111   -3.8079    3.7130 H   0  0  0  0  0  0  0  0  0  0  0  0
   -0.2724   -5.5430    3.7145 H   0  0  0  0  0  0  0  0  0  0  0  0
    1.0072   -4.3884    3.2956 H   0  0  0  0  0  0  0  0  0  0  0  0
   -2.2809   -6.2696    1.8068 N   0  0  0  0  0  0  0  0  0  0  0  0
   -3.6367   -6.7628    1.7406 C   0  0  0  0  0  0  0  0  0  0  0  0
   -1.5404   -6.9414    1.9858 H   0  0  0  0  0  0  0  0  0  0  0  0
   -4.0875   -6.7334    2.7436 H   0  0  0  0  0  0  0  0  0  0  0  0
   -4.2233   -6.1320    1.0565 H   0  0  0  0  0  0  0  0  0  0  0  0
   -3.6322   -7.7988    1.3710 H   0  0  0  0  0  0  0  0  0  0  0  0
  1  3  1  0  0  0  0
  1  7  1  0  0  0  0
  1  2  2  0  0  0  0
 32 33  1  0  0  0  0
 33 41  1  0  0  0  0
 33 34  2  0  0  0  0
  8  9  1  0  0  0  0
  9 17  1  0  0  0  0
  9 10  2  0  0  0  0
 18 19  1  0  0  0  0
 19 31  1  0  0  0  0
 19 20  2  0  0  0  0
 32 35  1  0  0  0  0
  8 11  1  0  0  0  0
 21 23  1  0  0  0  0
 41 42  1  0  0  0  0
 31 32  1  0  0  0  0
  7  8  1  0  0  0  0
 18 21  1  0  0  0  0
 17 18  1  0  0  0  0
 21 22  1  0  0  0  0
  3  4  1  0  0  0  0
  3  5  1  0  0  0  0
  3  6  1  0  0  0  0
 35 38  1  0  0  0  0
 35 39  1  0  0  0  0
 35 40  1  0  0  0  0
 11 14  1  0  0  0  0
 11 15  1  0  0  0  0
 11 16  1  0  0  0  0
 23 28  1  0  0  0  0
 23 29  1  0  0  0  0
 23 30  1  0  0  0  0
 42 44  1  0  0  0  0
 42 45  1  0  0  0  0
 42 46  1  0  0  0  0
 32 37  1  0  0  0  0
  8 13  1  0  0  0  0
 18 25  1  0  0  0  0
 21 26  1  0  0  0  0
 41 43  1  0  0  0  0
  7 12  1  0  0  0  0
 31 36  1  0  0  0  0
 17 24  1  0  0  0  0
 22 27  1  0  0  0  0
M  END
$$$$

  -OEChem-05262214473D

 46 45  0     1  0  0  0  0  0999 V2000
   -4.6700    2.7214    1.5150 C   0  0  0  0  0  0  0  0  0  0  0  0
   -5.4532    2.5715    0.5845 O   0  0  0  0  0  0  0  0  0  0  0  0
   -5.0996    3.4865    2.7226 C   0  0  0  0  0  0  0  0  0  0  0  0
   -4.8796    4.5629    2.6387 H   0  0  0  0  0  0  0  0  0  0  0  0
   -6.1861    3.4241    2.8954 H   0  0  0  0  0  0  0  0  0  0  0  0
   -4.6369    3.1693    3.6708 H   0  0  0  0  0  0  0  0  0  0  0  0
   -3.3731    2.2391    1.5790 N   0  0  0  0  0  0  0  0  0  0  0  0
   -2.7599    1.4751    0.5247 C   0  0  2  0  0  0  0  0  0  0  0  0
   -1.5143    0.8067    1.0915 C   0  0  0  0  0  0  0  0  0  0  0  0
   -0.9247    1.2213    2.0872 O   0  0  0  0  0  0  0  0  0  0  0  0
   -2.4106    2.3553   -0.6653 C   0  0  0  0  0  0  0  0  0  0  0  0
   -2.8254    2.4352    2.4150 H   0  0  0  0  0  0  0  0  0  0  0  0
   -3.4836    0.7082    0.2278 H   0  0  0  0  0  0  0  0  0  0  0  0
   -1.6866    3.1298   -0.3871 H   0  0  0  0  0  0  0  0  0  0  0  0
   -1.9704    1.7677   -1.4777 H   0  0  0  0  0  0  0  0  0  0  0  0
   -3.3030    2.8584   -1.0531 H   0  0  0  0  0  0  0  0  0  0  0  0
   -1.1107   -0.2839    0.3303 N   0  0  0  0  0  0  0  0  0  0  0  0
    0.0490   -1.0750    0.6539 C   0  0  2  0  0  0  0  0  0  0  0  0
   -0.4056   -2.2038    1.5746 C   0  0  0  0  0  0  0  0  0  0  0  0
   -1.1313   -2.0220    2.5501 O   0  0  0  0  0  0  0  0  0  0  0  0
    1.1754   -0.2470    1.2894 C   0  0  2  0  0  0  0  0  0  0  0  0
    0.7391    0.3439    2.5125 O   0  0  0  0  0  0  0  0  0  0  0  0
    1.6530    0.8745    0.3748 C   0  0  0  0  0  0  0  0  0  0  0  0
   -1.6733   -0.5660   -0.4691 H   0  0  0  0  0  0  0  0  0  0  0  0
    0.3957   -1.5170   -0.2881 H   0  0  0  0  0  0  0  0  0  0  0  0
    2.0319   -0.8889    1.5260 H   0  0  0  0  0  0  0  0  0  0  0  0
    1.5061    0.8067    2.8829 H   0  0  0  0  0  0  0  0  0  0  0  0
    0.8324    1.5486    0.1062 H   0  0  0  0  0  0  0  0  0  0  0  0
    2.0989    0.4773   -0.5421 H   0  0  0  0  0  0  0  0  0  0  0  0
    2.4021    1.4877    0.8876 H   0  0  0  0  0  0  0  0  0  0  0  0
    0.1342   -3.4283    1.2072 N   0  0  0  0  0  0  0  0  0  0  0  0
   -0.1224   -4.6433    1.9442 C   0  0  2  0  0  0  0  0  0  0  0  0
   -1.5039   -5.1493    1.5506 C   0  0  0  0  0  0  0  0  0  0  0  0
   -2.3750   -4.4223    1.0777 O   0  0  0  0  0  0  0  0  0  0  0  0
   -0.0364   -4.4090    3.4444 C   0  0  0  0  0  0  0  0  0  0  0  0
    0.7330   -3.4716    0.3878 H   0  0  0  0  0  0  0  0  0  0  0  0
    0.6360   -5.3692    1.6312 H   0  0  0  0  0  0  0  0  0  0  0  0
   -0.7887   -3.6844    3.7766 H   0  0  0  0  0  0  0  0  0  0  0  0
   -0.2030   -5.3372    4.0011 H   0  0  0  0  0  0  0  0  0  0  0  0
    0.9480   -4.0169    3.7218 H   0  0  0  0  0  0  0  0  0  0  0  0
   -1.6642   -6.4994    1.8296 N   0  0  0  0  0  0  0  0  0  0  0  0
   -2.8915   -7.2110    1.5591 C   0  0  0  0  0  0  0  0  0  0  0  0
   -0.8822   -7.0286    2.2040 H   0  0  0  0  0  0  0  0  0  0  0  0
   -3.5309   -7.1938    2.4540 H   0  0  0  0  0  0  0  0  0  0  0  0
   -3.4185   -6.7283    0.7229 H   0  0  0  0  0  0  0  0  0  0  0  0
   -2.6601   -8.2532    1.2939 H   0  0  0  0  0  0  0  0  0  0  0  0
  1  3  1  0  0  0  0
  1  7  1  0  0  0  0
  1  2  2  0  0  0  0
 32 33  1  0  0  0  0
 33 41  1  0  0  0  0
 33 34  2  0  0  0  0
  8  9  1  0  0  0  0
  9 17  1  0  0  0  0
  9 10  2  0  0  0  0
 18 19  1  0  0  0  0
 19 31  1  0  0  0  0
 19 20  2  0  0  0  0
 32 35  1  0  0  0  0
  8 11  1  0  0  0  0
 21 23  1  0  0  0  0
 41 42  1  0  0  0  0
 31 32  1  0  0  0  0
  7  8  1  0  0  0  0
 18 21  1  0  0  0  0
 17 18  1  0  0  0  0
 21 22  1  0  0  0  0
  3  4  1  0  0  0  0
  3  5  1  0  0  0  0
  3  6  1  0  0  0  0
 35 38  1  0  0  0  0
 35 39  1  0  0  0  0
 35 40  1  0  0  0  0
 11 14  1  0  0  0  0
 11 15  1  0  0  0  0
 11 16  1  0  0  0  0
 23 28  1  0  0  0  0
 23 29  1  0  0  0  0
 23 30  1  0  0  0  0
 42 44  1  0  0  0  0
 42 45  1  0  0  0  0
 42 46  1  0  0  0  0
 32 37  1  0  0  0  0
  8 13  1  0  0  0  0
 18 25  1  0  0  0  0
 21 26  1  0  0  0  0
 41 43  1  0  0  0  0
  7 12  1  0  0  0  0
 31 36  1  0  0  0  0
 17 24  1  0  0  0  0
 22 27  1  0  0  0  0
M  END
$$$$

  -OEChem-05262214473D

 46 45  0     1  0  0  0  0  0999 V2000
   -4.6700    2.7214    1.5150 C   0  0  0  0  0  0  0  0  0  0  0  0
   -5.4532    2.5715    0.5845 O   0  0  0  0  0  0  0  0  0  0  0  0
   -5.0996    3.4865    2.7226 C   0  0  0  0  0  0  0  0  0  0  0  0
   -4.8796    4.5629    2.6387 H   0  0  0  0  0  0  0  0  0  0  0  0
   -6.1861    3.4241    2.8954 H   0  0  0  0  0  0  0  0  0  0  0  0
   -4.6369    3.1693    3.6708 H   0  0  0  0  0  0  0  0  0  0  0  0
   -3.3731    2.2391    1.5790 N   0  0  0  0  0  0  0  0  0  0  0  0
   -2.7599    1.4751    0.5247 C   0  0  2  0  0  0  0  0  0  0  0  0
   -1.5143    0.8067    1.0915 C   0  0  0  0  0  0  0  0  0  0  0  0
   -0.9247    1.2213    2.0872 O   0  0  0  0  0  0  0  0  0  0  0  0
   -2.4106    2.3553   -0.6653 C   0  0  0  0  0  0  0  0  0  0  0  0
   -2.8254    2.4352    2.4150 H   0  0  0  0  0  0  0  0  0  0  0  0
   -3.4836    0.7082    0.2278 H   0  0  0  0  0  0  0  0  0  0  0  0
   -1.6866    3.1298   -0.3871 H   0  0  0  0  0  0  0  0  0  0  0  0
   -1.9704    1.7677   -1.4777 H   0  0  0  0  0  0  0  0  0  0  0  0
   -3.3030    2.8584   -1.0531 H   0  0  0  0  0  0  0  0  0  0  0  0
   -1.1107   -0.2839    0.3303 N   0  0  0  0  0  0  0  0  0  0  0  0
    0.0490   -1.0750    0.6539 C   0  0  2  0  0  0  0  0  0  0  0  0
   -0.4056   -2.2038    1.5746 C   0  0  0  0  0  0  0  0  0  0  0  0
   -1.3285   -2.0832    2.3777 O   0  0  0  0  0  0  0  0  0  0  0  0
    1.1754   -0.2470    1.2894 C   0  0  2  0  0  0  0  0  0  0  0  0
    0.7391    0.3439    2.5125 O   0  0  0  0  0  0  0  0  0  0  0  0
    1.6530    0.8745    0.3748 C   0  0  0  0  0  0  0  0  0  0  0  0
   -1.6733   -0.5660   -0.4691 H   0  0  0  0  0  0  0  0  0  0  0  0
    0.3957   -1.5170   -0.2881 H   0  0  0  0  0  0  0  0  0  0  0  0
    2.0319   -0.8889    1.5260 H   0  0  0  0  0  0  0  0  0  0  0  0
    1.5061    0.8067    2.8829 H   0  0  0  0  0  0  0  0  0  0  0  0
    0.8324    1.5486    0.1062 H   0  0  0  0  0  0  0  0  0  0  0  0
    2.0989    0.4773   -0.5421 H   0  0  0  0  0  0  0  0  0  0  0  0
    2.4021    1.4877    0.8876 H   0  0  0  0  0  0  0  0  0  0  0  0
    0.3720   -3.3438    1.4282 N   0  0  0  0  0  0  0  0  0  0  0  0
    0.1584   -4.5364    2.2139 C   0  0  2  0  0  0  0  0  0  0  0  0
   -1.0272   -5.2851    1.6195 C   0  0  0  0  0  0  0  0  0  0  0  0
   -1.8859   -4.7411    0.9283 O   0  0  0  0  0  0  0  0  0  0  0  0
   -0.0895   -4.1989    3.6759 C   0  0  0  0  0  0  0  0  0  0  0  0
    1.1206   -3.3392    0.7416 H   0  0  0  0  0  0  0  0  0  0  0  0
    1.0630   -5.1464    2.1152 H   0  0  0  0  0  0  0  0  0  0  0  0
   -0.9918   -3.5880    3.7946 H   0  0  0  0  0  0  0  0  0  0  0  0
   -0.2229   -5.1054    4.2753 H   0  0  0  0  0  0  0  0  0  0  0  0
    0.7512   -3.6345    4.0935 H   0  0  0  0  0  0  0  0  0  0  0  0
   -1.0370   -6.6233    1.9874 N   0  0  0  0  0  0  0  0  0  0  0  0
   -2.0670   -7.5416    1.5610 C   0  0  0  0  0  0  0  0  0  0  0  0
   -0.2745   -6.9931    2.5474 H   0  0  0  0  0  0  0  0  0  0  0  0
   -2.8658   -7.5739    2.3164 H   0  0  0  0  0  0  0  0  0  0  0  0
   -2.4841   -7.2043    0.6006 H   0  0  0  0  0  0  0  0  0  0  0  0
   -1.6354   -8.5462    1.4407 H   0  0  0  0  0  0  0  0  0  0  0  0
  1  3  1  0  0  0  0
  1  7  1  0  0  0  0
  1  2  2  0  0  0  0
 32 33  1  0  0  0  0
 33 41  1  0  0  0  0
 33 34  2  0  0  0  0
  8  9  1  0  0  0  0
  9 17  1  0  0  0  0
  9 10  2  0  0  0  0
 18 19  1  0  0  0  0
 19 31  1  0  0  0  0
 19 20  2  0  0  0  0
 32 35  1  0  0  0  0
  8 11  1  0  0  0  0
 21 23  1  0  0  0  0
 41 42  1  0  0  0  0
 31 32  1  0  0  0  0
  7  8  1  0  0  0  0
 18 21  1  0  0  0  0
 17 18  1  0  0  0  0
 21 22  1  0  0  0  0
  3  4  1  0  0  0  0
  3  5  1  0  0  0  0
  3  6  1  0  0  0  0
 35 38  1  0  0  0  0
 35 39  1  0  0  0  0
 35 40  1  0  0  0  0
 11 14  1  0  0  0  0
 11 15  1  0  0  0  0
 11 16  1  0  0  0  0
 23 28  1  0  0  0  0
 23 29  1  0  0  0  0
 23 30  1  0  0  0  0
 42 44  1  0  0  0  0
 42 45  1  0  0  0  0
 42 46  1  0  0  0  0
 32 37  1  0  0  0  0
  8 13  1  0  0  0  0
 18 25  1  0  0  0  0
 21 26  1  0  0  0  0
 41 43  1  0  0  0  0
  7 12  1  0  0  0  0
 31 36  1  0  0  0  0
 17 24  1  0  0  0  0
 22 27  1  0  0  0  0
M  END
$$$$

  -OEChem-05262214473D

 46 45  0     1  0  0  0  0  0999 V2000
   -4.6700    2.7214    1.5150 C   0  0  0  0  0  0  0  0  0  0  0  0
   -5.4532    2.5715    0.5845 O   0  0  0  0  0  0  0  0  0  0  0  0
   -5.0996    3.4865    2.7226 C   0  0  0  0  0  0  0  0  0  0  0  0
   -4.8796    4.5629    2.6387 H   0  0  0  0  0  0  0  0  0  0  0  0
   -6.1861    3.4241    2.8954 H   0  0  0  0  0  0  0  0  0  0  0  0
   -4.6369    3.1693    3.6708 H   0  0  0  0  0  0  0  0  0  0  0  0
   -3.3731    2.2391    1.5790 N   0  0  0  0  0  0  0  0  0  0  0  0
   -2.7599    1.4751    0.5247 C   0  0  2  0  0  0  0  0  0  0  0  0
   -1.5143    0.8067    1.0915 C   0  0  0  0  0  0  0  0  0  0  0  0
   -0.9247    1.2213    2.0872 O   0  0  0  0  0  0  0  0  0  0  0  0
   -2.4106    2.3553   -0.6653 C   0  0  0  0  0  0  0  0  0  0  0  0
   -2.8254    2.4352    2.4150 H   0  0  0  0  0  0  0  0  0  0  0  0
   -3.4836    0.7082    0.2278 H   0  0  0  0  0  0  0  0  0  0  0  0
   -1.6866    3.1298   -0.3871 H   0  0  0  0  0  0  0  0  0  0  0  0
   -1.9704    1.7677   -1.4777 H   0  0  0  0  0  0  0  0  0  0  0  0
   -3.3030    2.8584   -1.0531 H   0  0  0  0  0  0  0  0  0  0  0  0
   -1.1107   -0.2839    0.3303 N   0  0  0  0  0  0  0  0  0  0  0  0
    0.0490   -1.0750    0.6539 C   0  0  2  0  0  0  0  0  0  0  0  0
   -0.4056   -2.2038    1.5746 C   0  0  0  0  0  0  0  0  0  0  0  0
   -1.4765   -2.1864    2.1781 O   0  0  0  0  0  0  0  0  0  0  0  0
    1.1754   -0.2470    1.2894 C   0  0  2  0  0  0  0  0  0  0  0  0
    0.7391    0.3439    2.5125 O   0  0  0  0  0  0  0  0  0  0  0  0
    1.6530    0.8745    0.3748 C   0  0  0  0  0  0  0  0  0  0  0  0
   -1.6733   -0.5660   -0.4691 H   0  0  0  0  0  0  0  0  0  0  0  0
    0.3957   -1.5170   -0.2881 H   0  0  0  0  0  0  0  0  0  0  0  0
    2.0319   -0.8889    1.5260 H   0  0  0  0  0  0  0  0  0  0  0  0
    1.5061    0.8067    2.8829 H   0  0  0  0  0  0  0  0  0  0  0  0
    0.8324    1.5486    0.1062 H   0  0  0  0  0  0  0  0  0  0  0  0
    2.0989    0.4773   -0.5421 H   0  0  0  0  0  0  0  0  0  0  0  0
    2.4021    1.4877    0.8876 H   0  0  0  0  0  0  0  0  0  0  0  0
    0.5462   -3.2080    1.6807 N   0  0  0  0  0  0  0  0  0  0  0  0
    0.3613   -4.3685    2.5199 C   0  0  2  0  0  0  0  0  0  0  0  0
   -0.5587   -5.3365    1.7878 C   0  0  0  0  0  0  0  0  0  0  0  0
   -1.3350   -4.9842    0.9022 O   0  0  0  0  0  0  0  0  0  0  0  0
   -0.2179   -3.9863    3.8731 C   0  0  0  0  0  0  0  0  0  0  0  0
    1.4066   -3.1234    1.1473 H   0  0  0  0  0  0  0  0  0  0  0  0
    1.3480   -4.8272    2.6473 H   0  0  0  0  0  0  0  0  0  0  0  0
   -1.2065   -3.5251    3.7656 H   0  0  0  0  0  0  0  0  0  0  0  0
   -0.3309   -4.8636    4.5185 H   0  0  0  0  0  0  0  0  0  0  0  0
    0.4303   -3.2672    4.3854 H   0  0  0  0  0  0  0  0  0  0  0  0
   -0.4420   -6.6329    2.2694 N   0  0  0  0  0  0  0  0  0  0  0  0
   -1.2192   -7.7320    1.7461 C   0  0  0  0  0  0  0  0  0  0  0  0
    0.2411   -6.8376    2.9928 H   0  0  0  0  0  0  0  0  0  0  0  0
   -2.1378   -7.8477    2.3402 H   0  0  0  0  0  0  0  0  0  0  0  0
   -1.4838   -7.5276    0.6982 H   0  0  0  0  0  0  0  0  0  0  0  0
   -0.6280   -8.6580    1.8012 H   0  0  0  0  0  0  0  0  0  0  0  0
  1  3  1  0  0  0  0
  1  7  1  0  0  0  0
  1  2  2  0  0  0  0
 32 33  1  0  0  0  0
 33 41  1  0  0  0  0
 33 34  2  0  0  0  0
  8  9  1  0  0  0  0
  9 17  1  0  0  0  0
  9 10  2  0  0  0  0
 18 19  1  0  0  0  0
 19 31  1  0  0  0  0
 19 20  2  0  0  0  0
 32 35  1  0  0  0  0
  8 11  1  0  0  0  0
 21 23  1  0  0  0  0
 41 42  1  0  0  0  0
 31 32  1  0  0  0  0
  7  8  1  0  0  0  0
 18 21  1  0  0  0  0
 17 18  1  0  0  0  0
 21 22  1  0  0  0  0
  3  4  1  0  0  0  0
  3  5  1  0  0  0  0
  3  6  1  0  0  0  0
 35 38  1  0  0  0  0
 35 39  1  0  0  0  0
 35 40  1  0  0  0  0
 11 14  1  0  0  0  0
 11 15  1  0  0  0  0
 11 16  1  0  0  0  0
 23 28  1  0  0  0  0
 23 29  1  0  0  0  0
 23 30  1  0  0  0  0
 42 44  1  0  0  0  0
 42 45  1  0  0  0  0
 42 46  1  0  0  0  0
 32 37  1  0  0  0  0
  8 13  1  0  0  0  0
 18 25  1  0  0  0  0
 21 26  1  0  0  0  0
 41 43  1  0  0  0  0
  7 12  1  0  0  0  0
 31 36  1  0  0  0  0
 17 24  1  0  0  0  0
 22 27  1  0  0  0  0
M  END
$$$$

  -OEChem-05262214473D

 46 45  0     1  0  0  0  0  0999 V2000
   -4.6700    2.7214    1.5150 C   0  0  0  0  0  0  0  0  0  0  0  0
   -5.4532    2.5715    0.5845 O   0  0  0  0  0  0  0  0  0  0  0  0
   -5.0996    3.4865    2.7226 C   0  0  0  0  0  0  0  0  0  0  0  0
   -4.8796    4.5629    2.6387 H   0  0  0  0  0  0  0  0  0  0  0  0
   -6.1861    3.4241    2.8954 H   0  0  0  0  0  0  0  0  0  0  0  0
   -4.6369    3.1693    3.6708 H   0  0  0  0  0  0  0  0  0  0  0  0
   -3.3731    2.2391    1.5790 N   0  0  0  0  0  0  0  0  0  0  0  0
   -2.7599    1.4751    0.5247 C   0  0  2  0  0  0  0  0  0  0  0  0
   -1.5143    0.8067    1.0915 C   0  0  0  0  0  0  0  0  0  0  0  0
   -0.9247    1.2213    2.0872 O   0  0  0  0  0  0  0  0  0  0  0  0
   -2.4106    2.3553   -0.6653 C   0  0  0  0  0  0  0  0  0  0  0  0
   -2.8254    2.4352    2.4150 H   0  0  0  0  0  0  0  0  0  0  0  0
   -3.4836    0.7082    0.2278 H   0  0  0  0  0  0  0  0  0  0  0  0
   -1.6866    3.1298   -0.3871 H   0  0  0  0  0  0  0  0  0  0  0  0
   -1.9704    1.7677   -1.4777 H   0  0  0  0  0  0  0  0  0  0  0  0
   -3.3030    2.8584   -1.0531 H   0  0  0  0  0  0  0  0  0  0  0  0
   -1.1107   -0.2839    0.3303 N   0  0  0  0  0  0  0  0  0  0  0  0
    0.0490   -1.0750    0.6539 C   0  0  2  0  0  0  0  0  0  0  0  0
   -0.4427   -2.3922    1.2469 C   0  0  0  0  0  0  0  0  0  0  0  0
   -1.6325   -2.6430    1.4281 O   0  0  0  0  0  0  0  0  0  0  0  0
    1.0149   -0.3533    1.6049 C   0  0  2  0  0  0  0  0  0  0  0  0
    0.3743   -0.0552    2.8444 O   0  0  0  0  0  0  0  0  0  0  0  0
    1.5290    0.9565    1.0196 C   0  0  0  0  0  0  0  0  0  0  0  0
   -1.6733   -0.5660   -0.4691 H   0  0  0  0  0  0  0  0  0  0  0  0
    0.5520   -1.2914   -0.2965 H   0  0  0  0  0  0  0  0  0  0  0  0
    1.8759   -0.9933    1.8298 H   0  0  0  0  0  0  0  0  0  0  0  0
    1.0478    0.3509    3.4110 H   0  0  0  0  0  0  0  0  0  0  0  0
    0.7055    1.6363    0.7757 H   0  0  0  0  0  0  0  0  0  0  0  0
    2.1233    0.7829    0.1175 H   0  0  0  0  0  0  0  0  0  0  0  0
    2.1545    1.4784    1.7522 H   0  0  0  0  0  0  0  0  0  0  0  0
    0.6050   -3.2329    1.5949 N   0  0  0  0  0  0  0  0  0  0  0  0
    0.3951   -4.5246    2.2055 C   0  0  2  0  0  0  0  0  0  0  0  0
   -0.0080   -5.5027    1.1099 C   0  0  0  0  0  0  0  0  0  0  0  0
   -0.5004   -5.1471    0.0411 O   0  0  0  0  0  0  0  0  0  0  0  0
   -0.6670   -4.4572    3.2917 C   0  0  0  0  0  0  0  0  0  0  0  0
    1.5567   -2.9278    1.4131 H   0  0  0  0  0  0  0  0  0  0  0  0
    1.3553   -4.8314    2.6345 H   0  0  0  0  0  0  0  0  0  0  0  0
   -1.6361   -4.1514    2.8808 H   0  0  0  0  0  0  0  0  0  0  0  0
   -0.8047   -5.4310    3.7731 H   0  0  0  0  0  0  0  0  0  0  0  0
   -0.3895   -3.7313    4.0637 H   0  0  0  0  0  0  0  0  0  0  0  0
    0.2067   -6.8220    1.4833 N   0  0  0  0  0  0  0  0  0  0  0  0
   -0.1076   -7.9373    0.6210 C   0  0  0  0  0  0  0  0  0  0  0  0
    0.6367   -7.0236    2.3811 H   0  0  0  0  0  0  0  0  0  0  0  0
   -1.1266   -8.2917    0.8357 H   0  0  0  0  0  0  0  0  0  0  0  0
   -0.0445   -7.6175   -0.4296 H   0  0  0  0  0  0  0  0  0  0  0  0
    0.6092   -8.7523    0.8000 H   0  0  0  0  0  0  0  0  0  0  0  0
  1  3  1  0  0  0  0
  1  7  1  0  0  0  0
  1  2  2  0  0  0  0
 32 33  1  0  0  0  0
 33 41  1  0  0  0  0
 33 34  2  0  0  0  0
  8  9  1  0  0  0  0
  9 17  1  0  0  0  0
  9 10  2  0  0  0  0
 18 19  1  0  0  0  0
 19 31  1  0  0  0  0
 19 20  2  0  0  0  0
 32 35  1  0  0  0  0
  8 11  1  0  0  0  0
 21 23  1  0  0  0  0
 41 42  1  0  0  0  0
 31 32  1  0  0  0  0
  7  8  1  0  0  0  0
 18 21  1  0  0  0  0
 17 18  1  0  0  0  0
 21 22  1  0  0  0  0
  3  4  1  0  0  0  0
  3  5  1  0  0  0  0
  3  6  1  0  0  0  0
 35 38  1  0  0  0  0
 35 39  1  0  0  0  0
 35 40  1  0  0  0  0
 11 14  1  0  0  0  0
 11 15  1  0  0  0  0
 11 16  1  0  0  0  0
 23 28  1  0  0  0  0
 23 29  1  0  0  0  0
 23 30  1  0  0  0  0
 42 44  1  0  0  0  0
 42 45  1  0  0  0  0
 42 46  1  0  0  0  0
 32 37  1  0  0  0  0
  8 13  1  0  0  0  0
 18 25  1  0  0  0  0
 21 26  1  0  0  0  0
 41 43  1  0  0  0  0
  7 12  1  0  0  0  0
 31 36  1  0  0  0  0
 17 24  1  0  0  0  0
 22 27  1  0  0  0  0
M  END
$$$$

  -OEChem-05262214473D

 46 45  0     1  0  0  0  0  0999 V2000
   -4.6700    2.7214    1.5150 C   0  0  0  0  0  0  0  0  0  0  0  0
   -5.4532    2.5715    0.5845 O   0  0  0  0  0  0  0  0  0  0  0  0
   -5.0996    3.4865    2.7226 C   0  0  0  0  0  0  0  0  0  0  0  0
   -4.8796    4.5629    2.6387 H   0  0  0  0  0  0  0  0  0  0  0  0
   -6.1861    3.4241    2.8954 H   0  0  0  0  0  0  0  0  0  0  0  0
   -4.6369    3.1693    3.6708 H   0  0  0  0  0  0  0  0  0  0  0  0
   -3.3731    2.2391    1.5790 N   0  0  0  0  0  0  0  0  0  0  0  0
   -2.7599    1.4751    0.5247 C   0  0  2  0  0  0  0  0  0  0  0  0
   -1.5143    0.8067    1.0915 C   0  0  0  0  0  0  0  0  0  0  0  0
   -0.9247    1.2213    2.0872 O   0  0  0  0  0  0  0  0  0  0  0  0
   -2.4106    2.3553   -0.6653 C   0  0  0  0  0  0  0  0  0  0  0  0
   -2.8254    2.4352    2.4150 H   0  0  0  0  0  0  0  0  0  0  0  0
   -3.4836    0.7082    0.2278 H   0  0  0  0  0  0  0  0  0  0  0  0
   -1.6866    3.1298   -0.3871 H   0  0  0  0  0  0  0  0  0  0  0  0
   -1.9704    1.7677   -1.4777 H   0  0  0  0  0  0  0  0  0  0  0  0
   -3.3030    2.8584   -1.0531 H   0  0  0  0  0  0  0  0  0  0  0  0
   -1.1107   -0.2839    0.3303 N   0  0  0  0  0  0  0  0  0  0  0  0
    0.0490   -1.0750    0.6539 C   0  0  2  0  0  0  0  0  0  0  0  0
   -0.4427   -2.3922    1.2469 C   0  0  0  0  0  0  0  0  0  0  0  0
   -1.6146   -2.7587    1.1859 O   0  0  0  0  0  0  0  0  0  0  0  0
    1.0149   -0.3533    1.6049 C   0  0  2  0  0  0  0  0  0  0  0  0
    0.3743   -0.0552    2.8444 O   0  0  0  0  0  0  0  0  0  0  0  0
    1.5290    0.9565    1.0196 C   0  0  0  0  0  0  0  0  0  0  0  0
   -1.6733   -0.5660   -0.4691 H   0  0  0  0  0  0  0  0  0  0  0  0
    0.5520   -1.2914   -0.2965 H   0  0  0  0  0  0  0  0  0  0  0  0
    1.8759   -0.9933    1.8298 H   0  0  0  0  0  0  0  0  0  0  0  0
    1.0478    0.3509    3.4110 H   0  0  0  0  0  0  0  0  0  0  0  0
    0.7055    1.6363    0.7757 H   0  0  0  0  0  0  0  0  0  0  0  0
    2.1233    0.7829    0.1175 H   0  0  0  0  0  0  0  0  0  0  0  0
    2.1545    1.4784    1.7522 H   0  0  0  0  0  0  0  0  0  0  0  0
    0.5704   -3.0852    1.8942 N   0  0  0  0  0  0  0  0  0  0  0  0
    0.3456   -4.3449    2.5636 C   0  0  2  0  0  0  0  0  0  0  0  0
    0.2933   -5.4377    1.5041 C   0  0  0  0  0  0  0  0  0  0  0  0
    0.0269   -5.2163    0.3246 O   0  0  0  0  0  0  0  0  0  0  0  0
   -0.9376   -4.3167    3.3793 C   0  0  0  0  0  0  0  0  0  0  0  0
    1.5066   -2.6911    1.8973 H   0  0  0  0  0  0  0  0  0  0  0  0
    1.2066   -4.5125    3.2197 H   0  0  0  0  0  0  0  0  0  0  0  0
   -1.8114   -4.1498    2.7388 H   0  0  0  0  0  0  0  0  0  0  0  0
   -1.0919   -5.2626    3.9089 H   0  0  0  0  0  0  0  0  0  0  0  0
   -0.9104   -3.5111    4.1209 H   0  0  0  0  0  0  0  0  0  0  0  0
    0.5366   -6.6951    2.0388 N   0  0  0  0  0  0  0  0  0  0  0  0
    0.5299   -7.8973    1.2385 C   0  0  0  0  0  0  0  0  0  0  0  0
    0.7675   -6.7829    3.0241 H   0  0  0  0  0  0  0  0  0  0  0  0
   -0.4746   -8.3453    1.2573 H   0  0  0  0  0  0  0  0  0  0  0  0
    0.8012   -7.6490    0.2018 H   0  0  0  0  0  0  0  0  0  0  0  0
    1.2583   -8.6134    1.6466 H   0  0  0  0  0  0  0  0  0  0  0  0
  1  3  1  0  0  0  0
  1  7  1  0  0  0  0
  1  2  2  0  0  0  0
 32 33  1  0  0  0  0
 33 41  1  0  0  0  0
 33 34  2  0  0  0  0
  8  9  1  0  0  0  0
  9 17  1  0  0  0  0
  9 10  2  0  0  0  0
 18 19  1  0  0  0  0
 19 31  1  0  0  0  0
 19 20  2  0  0  0  0
 32 35  1  0  0  0  0
  8 11  1  0  0  0  0
 21 23  1  0  0  0  0
 41 42  1  0  0  0  0
 31 32  1  0  0  0  0
  7  8  1  0  0  0  0
 18 21  1  0  0  0  0
 17 18  1  0  0  0  0
 21 22  1  0  0  0  0
  3  4  1  0  0  0  0
  3  5  1  0  0  0  0
  3  6  1  0  0  0  0
 35 38  1  0  0  0  0
 35 39  1  0  0  0  0
 35 40  1  0  0  0  0
 11 14  1  0  0  0  0
 11 15  1  0  0  0  0
 11 16  1  0  0  0  0
 23 28  1  0  0  0  0
 23 29  1  0  0  0  0
 23 30  1  0  0  0  0
 42 44  1  0  0  0  0
 42 45  1  0  0  0  0
 42 46  1  0  0  0  0
 32 37  1  0  0  0  0
  8 13  1  0  0  0  0
 18 25  1  0  0  0  0
 21 26  1  0  0  0  0
 41 43  1  0  0  0  0
  7 12  1  0  0  0  0
 31 36  1  0  0  0  0
 17 24  1  0  0  0  0
 22 27  1  0  0  0  0
M  END
$$$$

  -OEChem-05262214473D

 46 45  0     1  0  0  0  0  0999 V2000
   -4.6700    2.7214    1.5150 C   0  0  0  0  0  0  0  0  0  0  0  0
   -5.4532    2.5715    0.5845 O   0  0  0  0  0  0  0  0  0  0  0  0
   -5.0996    3.4865    2.7226 C   0  0  0  0  0  0  0  0  0  0  0  0
   -4.8796    4.5629    2.6387 H   0  0  0  0  0  0  0  0  0  0  0  0
   -6.1861    3.4241    2.8954 H   0  0  0  0  0  0  0  0  0  0  0  0
   -4.6369    3.1693    3.6708 H   0  0  0  0  0  0  0  0  0  0  0  0
   -3.3731    2.2391    1.5790 N   0  0  0  0  0  0  0  0  0  0  0  0
   -2.7599    1.4751    0.5247 C   0  0  2  0  0  0  0  0  0  0  0  0
   -1.5143    0.8067    1.0915 C   0  0  0  0  0  0  0  0  0  0  0  0
   -0.9247    1.2213    2.0872 O   0  0  0  0  0  0  0  0  0  0  0  0
   -2.4106    2.3553   -0.6653 C   0  0  0  0  0  0  0  0  0  0  0  0
   -2.8254    2.4352    2.4150 H   0  0  0  0  0  0  0  0  0  0  0  0
   -3.4836    0.7082    0.2278 H   0  0  0  0  0  0  0  0  0  0  0  0
   -1.6866    3.1298   -0.3871 H   0  0  0  0  0  0  0  0  0  0  0  0
   -1.9704    1.7677   -1.4777 H   0  0  0  0  0  0  0  0  0  0  0  0
   -3.3030    2.8584   -1.0531 H   0  0  0  0  0  0  0  0  0  0  0  0
   -1.1107   -0.2839    0.3303 N   0  0  0  0  0  0  0  0  0  0  0  0
    0.0490   -1.0750    0.6539 C   0  0  2  0  0  0  0  0  0  0  0  0
   -0.4427   -2.3922    1.2469 C   0  0  0  0  0  0  0  0  0  0  0  0
   -1.5315   -2.8889    0.9657 O   0  0  0  0  0  0  0  0  0  0  0  0
    1.0149   -0.3533    1.6049 C   0  0  2  0  0  0  0  0  0  0  0  0
    0.3743   -0.0552    2.8444 O   0  0  0  0  0  0  0  0  0  0  0  0
    1.5290    0.9565    1.0196 C   0  0  0  0  0  0  0  0  0  0  0  0
   -1.6733   -0.5660   -0.4691 H   0  0  0  0  0  0  0  0  0  0  0  0
    0.5520   -1.2914   -0.2965 H   0  0  0  0  0  0  0  0  0  0  0  0
    1.8759   -0.9933    1.8298 H   0  0  0  0  0  0  0  0  0  0  0  0
    1.0478    0.3509    3.4110 H   0  0  0  0  0  0  0  0  0  0  0  0
    0.7055    1.6363    0.7757 H   0  0  0  0  0  0  0  0  0  0  0  0
    2.1233    0.7829    0.1175 H   0  0  0  0  0  0  0  0  0  0  0  0
    2.1545    1.4784    1.7522 H   0  0  0  0  0  0  0  0  0  0  0  0
    0.4552   -2.9211    2.1632 N   0  0  0  0  0  0  0  0  0  0  0  0
    0.1997   -4.1464    2.8834 C   0  0  2  0  0  0  0  0  0  0  0  0
    0.4897   -5.3117    1.9468 C   0  0  0  0  0  0  0  0  0  0  0  0
    0.4799   -5.2065    0.7221 O   0  0  0  0  0  0  0  0  0  0  0  0
   -1.2326   -4.2010    3.3916 C   0  0  0  0  0  0  0  0  0  0  0  0
    1.3263   -2.4272    2.3340 H   0  0  0  0  0  0  0  0  0  0  0  0
    0.9003   -4.1705    3.7252 H   0  0  0  0  0  0  0  0  0  0  0  0
   -1.9491   -4.1778    2.5624 H   0  0  0  0  0  0  0  0  0  0  0  0
   -1.4166   -5.1176    3.9618 H   0  0  0  0  0  0  0  0  0  0  0  0
   -1.4485   -3.3460    4.0414 H   0  0  0  0  0  0  0  0  0  0  0  0
    0.7185   -6.4929    2.6386 N   0  0  0  0  0  0  0  0  0  0  0  0
    1.0037   -7.7431    1.9739 C   0  0  0  0  0  0  0  0  0  0  0  0
    0.7260   -6.4837    3.6543 H   0  0  0  0  0  0  0  0  0  0  0  0
    0.0664   -8.2964    1.8145 H   0  0  0  0  0  0  0  0  0  0  0  0
    1.4801   -7.5417    1.0031 H   0  0  0  0  0  0  0  0  0  0  0  0
    1.6822   -8.3434    2.5978 H   0  0  0  0  0  0  0  0  0  0  0  0
  1  3  1  0  0  0  0
  1  7  1  0  0  0  0
  1  2  2  0  0  0  0
 32 33  1  0  0  0  0
 33 41  1  0  0  0  0
 33 34  2  0  0  0  0
  8  9  1  0  0  0  0
  9 17  1  0  0  0  0
  9 10  2  0  0  0  0
 18 19  1  0  0  0  0
 19 31  1  0  0  0  0
 19 20  2  0  0  0  0
 32 35  1  0  0  0  0
  8 11  1  0  0  0  0
 21 23  1  0  0  0  0
 41 42  1  0  0  0  0
 31 32  1  0  0  0  0
  7  8  1  0  0  0  0
 18 21  1  0  0  0  0
 17 18  1  0  0  0  0
 21 22  1  0  0  0  0
  3  4  1  0  0  0  0
  3  5  1  0  0  0  0
  3  6  1  0  0  0  0
 35 38  1  0  0  0  0
 35 39  1  0  0  0  0
 35 40  1  0  0  0  0
 11 14  1  0  0  0  0
 11 15  1  0  0  0  0
 11 16  1  0  0  0  0
 23 28  1  0  0  0  0
 23 29  1  0  0  0  0
 23 30  1  0  0  0  0
 42 44  1  0  0  0  0
 42 45  1  0  0  0  0
 42 46  1  0  0  0  0
 32 37  1  0  0  0  0
  8 13  1  0  0  0  0
 18 25  1  0  0  0  0
 21 26  1  0  0  0  0
 41 43  1  0  0  0  0
  7 12  1  0  0  0  0
 31 36  1  0  0  0  0
 17 24  1  0  0  0  0
 22 27  1  0  0  0  0
M  END
$$$$

  -OEChem-05262214473D

 46 45  0     1  0  0  0  0  0999 V2000
   -4.6700    2.7214    1.5150 C   0  0  0  0  0  0  0  0  0  0  0  0
   -5.4532    2.5715    0.5845 O   0  0  0  0  0  0  0  0  0  0  0  0
   -5.0996    3.4865    2.7226 C   0  0  0  0  0  0  0  0  0  0  0  0
   -4.8796    4.5629    2.6387 H   0  0  0  0  0  0  0  0  0  0  0  0
   -6.1861    3.4241    2.8954 H   0  0  0  0  0  0  0  0  0  0  0  0
   -4.6369    3.1693    3.6708 H   0  0  0  0  0  0  0  0  0  0  0  0
   -3.3731    2.2391    1.5790 N   0  0  0  0  0  0  0  0  0  0  0  0
   -2.7599    1.4751    0.5247 C   0  0  2  0  0  0  0  0  0  0  0  0
   -1.5143    0.8067    1.0915 C   0  0  0  0  0  0  0  0  0  0  0  0
   -0.9247    1.2213    2.0872 O   0  0  0  0  0  0  0  0  0  0  0  0
   -2.4106    2.3553   -0.6653 C   0  0  0  0  0  0  0  0  0  0  0  0
   -2.8254    2.4352    2.4150 H   0  0  0  0  0  0  0  0  0  0  0  0
   -3.4836    0.7082    0.2278 H   0  0  0  0  0  0  0  0  0  0  0  0
   -1.6866    3.1298   -0.3871 H   0  0  0  0  0  0  0  0  0  0  0  0
   -1.9704    1.7677   -1.4777 H   0  0  0  0  0  0  0  0  0  0  0  0
   -3.3030    2.8584   -1.0531 H   0  0  0  0  0  0  0  0  0  0  0  0
   -1.1107   -0.2839    0.3303 N   0  0  0  0  0  0  0  0  0  0  0  0
    0.0490   -1.0750    0.6539 C   0  0  2  0  0  0  0  0  0  0  0  0
   -0.4427   -2.3922    1.2469 C   0  0  0  0  0  0  0  0  0  0  0  0
   -1.3890   -3.0247    0.7823 O   0  0  0  0  0  0  0  0  0  0  0  0
    1.0149   -0.3533    1.6049 C   0  0  2  0  0  0  0  0  0  0  0  0
    0.3743   -0.0552    2.8444 O   0  0  0  0  0  0  0  0  0  0  0  0
    1.5290    0.9565    1.0196 C   0  0  0  0  0  0  0  0  0  0  0  0
   -1.6733   -0.5660   -0.4691 H   0  0  0  0  0  0  0  0  0  0  0  0
    0.5520   -1.2914   -0.2965 H   0  0  0  0  0  0  0  0  0  0  0  0
    1.8759   -0.9933    1.8298 H   0  0  0  0  0  0  0  0  0  0  0  0
    1.0478    0.3509    3.4110 H   0  0  0  0  0  0  0  0  0  0  0  0
    0.7055    1.6363    0.7757 H   0  0  0  0  0  0  0  0  0  0  0  0
    2.1233    0.7829    0.1175 H   0  0  0  0  0  0  0  0  0  0  0  0
    2.1545    1.4784    1.7522 H   0  0  0  0  0  0  0  0  0  0  0  0
    0.2674   -2.7517    2.3837 N   0  0  0  0  0  0  0  0  0  0  0  0
   -0.0327   -3.9427    3.1432 C   0  0  2  0  0  0  0  0  0  0  0  0
    0.5679   -5.1334    2.4078 C   0  0  0  0  0  0  0  0  0  0  0  0
    0.8276   -5.1183    1.2063 O   0  0  0  0  0  0  0  0  0  0  0  0
   -1.5320   -4.1179    3.3280 C   0  0  0  0  0  0  0  0  0  0  0  0
    1.0279   -2.1539    2.6935 H   0  0  0  0  0  0  0  0  0  0  0  0
    0.4570   -3.8289    4.1165 H   0  0  0  0  0  0  0  0  0  0  0  0
   -2.0399   -4.2335    2.3636 H   0  0  0  0  0  0  0  0  0  0  0  0
   -1.7567   -5.0057    3.9283 H   0  0  0  0  0  0  0  0  0  0  0  0
   -1.9671   -3.2473    3.8306 H   0  0  0  0  0  0  0  0  0  0  0  0
    0.7397   -6.2293    3.2417 N   0  0  0  0  0  0  0  0  0  0  0  0
    1.2815   -7.4851    2.7773 C   0  0  0  0  0  0  0  0  0  0  0  0
    0.5149   -6.1463    4.2288 H   0  0  0  0  0  0  0  0  0  0  0  0
    0.4596   -8.1482    2.4696 H   0  0  0  0  0  0  0  0  0  0  0  0
    1.9460   -7.3028    1.9199 H   0  0  0  0  0  0  0  0  0  0  0  0
    1.8520   -7.9606    3.5888 H   0  0  0  0  0  0  0  0  0  0  0  0
  1  3  1  0  0  0  0
  1  7  1  0  0  0  0
  1  2  2  0  0  0  0
 32 33  1  0  0  0  0
 33 41  1  0  0  0  0
 33 34  2  0  0  0  0
  8  9  1  0  0  0  0
  9 17  1  0  0  0  0
  9 10  2  0  0  0  0
 18 19  1  0  0  0  0
 19 31  1  0  0  0  0
 19 20  2  0  0  0  0
 32 35  1  0  0  0  0
  8 11  1  0  0  0  0
 21 23  1  0  0  0  0
 41 42  1  0  0  0  0
 31 32  1  0  0  0  0
  7  8  1  0  0  0  0
 18 21  1  0  0  0  0
 17 18  1  0  0  0  0
 21 22  1  0  0  0  0
  3  4  1  0  0  0  0
  3  5  1  0  0  0  0
  3  6  1  0  0  0  0
 35 38  1  0  0  0  0
 35 39  1  0  0  0  0
 35 40  1  0  0  0  0
 11 14  1  0  0  0  0
 11 15  1  0  0  0  0
 11 16  1  0  0  0  0
 23 28  1  0  0  0  0
 23 29  1  0  0  0  0
 23 30  1  0  0  0  0
 42 44  1  0  0  0  0
 42 45  1  0  0  0  0
 42 46  1  0  0  0  0
 32 37  1  0  0  0  0
  8 13  1  0  0  0  0
 18 25  1  0  0  0  0
 21 26  1  0  0  0  0
 41 43  1  0  0  0  0
  7 12  1  0  0  0  0
 31 36  1  0  0  0  0
 17 24  1  0  0  0  0
 22 27  1  0  0  0  0
M  END
$$$$

  -OEChem-05262214473D

 46 45  0     1  0  0  0  0  0999 V2000
   -4.6700    2.7214    1.5150 C   0  0  0  0  0  0  0  0  0  0  0  0
   -5.4532    2.5715    0.5845 O   0  0  0  0  0  0  0  0  0  0  0  0
   -5.0996    3.4865    2.7226 C   0  0  0  0  0  0  0  0  0  0  0  0
   -4.8796    4.5629    2.6387 H   0  0  0  0  0  0  0  0  0  0  0  0
   -6.1861    3.4241    2.8954 H   0  0  0  0  0  0  0  0  0  0  0  0
   -4.6369    3.1693    3.6708 H   0  0  0  0  0  0  0  0  0  0  0  0
   -3.3731    2.2391    1.5790 N   0  0  0  0  0  0  0  0  0  0  0  0
   -2.7599    1.4751    0.5247 C   0  0  2  0  0  0  0  0  0  0  0  0
   -1.5143    0.8067    1.0915 C   0  0  0  0  0  0  0  0  0  0  0  0
   -0.9247    1.2213    2.0872 O   0  0  0  0  0  0  0  0  0  0  0  0
   -2.4106    2.3553   -0.6653 C   0  0  0  0  0  0  0  0  0  0  0  0
   -2.8254    2.4352    2.4150 H   0  0  0  0  0  0  0  0  0  0  0  0
   -3.4836    0.7082    0.2278 H   0  0  0  0  0  0  0  0  0  0  0  0
   -1.6866    3.1298   -0.3871 H   0  0  0  0  0  0  0  0  0  0  0  0
   -1.9704    1.7677   -1.4777 H   0  0  0  0  0  0  0  0  0  0  0  0
   -3.3030    2.8584   -1.0531 H   0  0  0  0  0  0  0  0  0  0  0  0
   -1.1107   -0.2839    0.3303 N   0  0  0  0  0  0  0  0  0  0  0  0
    0.0490   -1.0750    0.6539 C   0  0  2  0  0  0  0  0  0  0  0  0
   -0.4427   -2.3922    1.2469 C   0  0  0  0  0  0  0  0  0  0  0  0
   -1.1967   -3.1568    0.6483 O   0  0  0  0  0  0  0  0  0  0  0  0
    1.0149   -0.3533    1.6049 C   0  0  2  0  0  0  0  0  0  0  0  0
    0.3743   -0.0552    2.8444 O   0  0  0  0  0  0  0  0  0  0  0  0
    1.5290    0.9565    1.0196 C   0  0  0  0  0  0  0  0  0  0  0  0
   -1.6733   -0.5660   -0.4691 H   0  0  0  0  0  0  0  0  0  0  0  0
    0.5520   -1.2914   -0.2965 H   0  0  0  0  0  0  0  0  0  0  0  0
    1.8759   -0.9933    1.8298 H   0  0  0  0  0  0  0  0  0  0  0  0
    1.0478    0.3509    3.4110 H   0  0  0  0  0  0  0  0  0  0  0  0
    0.7055    1.6363    0.7757 H   0  0  0  0  0  0  0  0  0  0  0  0
    2.1233    0.7829    0.1175 H   0  0  0  0  0  0  0  0  0  0  0  0
    2.1545    1.4784    1.7522 H   0  0  0  0  0  0  0  0  0  0  0  0
    0.0197   -2.5886    2.5405 N   0  0  0  0  0  0  0  0  0  0  0  0
   -0.3358   -3.7476    3.3253 C   0  0  2  0  0  0  0  0  0  0  0  0
    0.5225   -4.9148    2.8556 C   0  0  0  0  0  0  0  0  0  0  0  0
    1.0464   -4.9577    1.7444 O   0  0  0  0  0  0  0  0  0  0  0  0
   -1.8154   -4.0730    3.1928 C   0  0  0  0  0  0  0  0  0  0  0  0
    0.6320   -1.8900    2.9514 H   0  0  0  0  0  0  0  0  0  0  0  0
   -0.0929   -3.5108    4.3669 H   0  0  0  0  0  0  0  0  0  0  0  0
   -2.0776   -4.3129    2.1559 H   0  0  0  0  0  0  0  0  0  0  0  0
   -2.0890   -4.9346    3.8107 H   0  0  0  0  0  0  0  0  0  0  0  0
   -2.4309   -3.2217    3.5029 H   0  0  0  0  0  0  0  0  0  0  0  0
    0.5991   -5.9223    3.8070 N   0  0  0  0  0  0  0  0  0  0  0  0
    1.3444   -7.1409    3.5939 C   0  0  0  0  0  0  0  0  0  0  0  0
    0.1488   -5.7936    4.7084 H   0  0  0  0  0  0  0  0  0  0  0  0
    0.6781   -7.9109    3.1779 H   0  0  0  0  0  0  0  0  0  0  0  0
    2.1673   -6.9488    2.8896 H   0  0  0  0  0  0  0  0  0  0  0  0
    1.7560   -7.4911    4.5520 H   0  0  0  0  0  0  0  0  0  0  0  0
  1  3  1  0  0  0  0
  1  7  1  0  0  0  0
  1  2  2  0  0  0  0
 32 33  1  0  0  0  0
 33 41  1  0  0  0  0
 33 34  2  0  0  0  0
  8  9  1  0  0  0  0
  9 17  1  0  0  0  0
  9 10  2  0  0  0  0
 18 19  1  0  0  0  0
 19 31  1  0  0  0  0
 19 20  2  0  0  0  0
 32 35  1  0  0  0  0
  8 11  1  0  0  0  0
 21 23  1  0  0  0  0
 41 42  1  0  0  0  0
 31 32  1  0  0  0  0
  7  8  1  0  0  0  0
 18 21  1  0  0  0  0
 17 18  1  0  0  0  0
 21 22  1  0  0  0  0
  3  4  1  0  0  0  0
  3  5  1  0  0  0  0
  3  6  1  0  0  0  0
 35 38  1  0  0  0  0
 35 39  1  0  0  0  0
 35 40  1  0  0  0  0
 11 14  1  0  0  0  0
 11 15  1  0  0  0  0
 11 16  1  0  0  0  0
 23 28  1  0  0  0  0
 23 29  1  0  0  0  0
 23 30  1  0  0  0  0
 42 44  1  0  0  0  0
 42 45  1  0  0  0  0
 42 46  1  0  0  0  0
 32 37  1  0  0  0  0
  8 13  1  0  0  0  0
 18 25  1  0  0  0  0
 21 26  1  0  0  0  0
 41 43  1  0  0  0  0
  7 12  1  0  0  0  0
 31 36  1  0  0  0  0
 17 24  1  0  0  0  0
 22 27  1  0  0  0  0
M  END
$$$$

  -OEChem-05262214473D

 46 45  0     1  0  0  0  0  0999 V2000
   -4.6700    2.7214    1.5150 C   0  0  0  0  0  0  0  0  0  0  0  0
   -5.4532    2.5715    0.5845 O   0  0  0  0  0  0  0  0  0  0  0  0
   -5.0996    3.4865    2.7226 C   0  0  0  0  0  0  0  0  0  0  0  0
   -4.8796    4.5629    2.6387 H   0  0  0  0  0  0  0  0  0  0  0  0
   -6.1861    3.4241    2.8954 H   0  0  0  0  0  0  0  0  0  0  0  0
   -4.6369    3.1693    3.6708 H   0  0  0  0  0  0  0  0  0  0  0  0
   -3.3731    2.2391    1.5790 N   0  0  0  0  0  0  0  0  0  0  0  0
   -2.7599    1.4751    0.5247 C   0  0  2  0  0  0  0  0  0  0  0  0
   -1.5143    0.8067    1.0915 C   0  0  0  0  0  0  0  0  0  0  0  0
   -0.9247    1.2213    2.0872 O   0  0  0  0  0  0  0  0  0  0  0  0
   -2.4106    2.3553   -0.6653 C   0  0  0  0  0  0  0  0  0  0  0  0
   -2.8254    2.4352    2.4150 H   0  0  0  0  0  0  0  0  0  0  0  0
   -3.4836    0.7082    0.2278 H   0  0  0  0  0  0  0  0  0  0  0  0
   -1.6866    3.1298   -0.3871 H   0  0  0  0  0  0  0  0  0  0  0  0
   -1.9704    1.7677   -1.4777 H   0  0  0  0  0  0  0  0  0  0  0  0
   -3.3030    2.8584   -1.0531 H   0  0  0  0  0  0  0  0  0  0  0  0
   -1.1107   -0.2839    0.3303 N   0  0  0  0  0  0  0  0  0  0  0  0
    0.0490   -1.0750    0.6539 C   0  0  2  0  0  0  0  0  0  0  0  0
   -0.4427   -2.3922    1.2469 C   0  0  0  0  0  0  0  0  0  0  0  0
   -0.9677   -3.2762    0.5729 O   0  0  0  0  0  0  0  0  0  0  0  0
    1.0149   -0.3533    1.6049 C   0  0  2  0  0  0  0  0  0  0  0  0
    0.3743   -0.0552    2.8444 O   0  0  0  0  0  0  0  0  0  0  0  0
    1.5290    0.9565    1.0196 C   0  0  0  0  0  0  0  0  0  0  0  0
   -1.6733   -0.5660   -0.4691 H   0  0  0  0  0  0  0  0  0  0  0  0
    0.5520   -1.2914   -0.2965 H   0  0  0  0  0  0  0  0  0  0  0  0
    1.8759   -0.9933    1.8298 H   0  0  0  0  0  0  0  0  0  0  0  0
    1.0478    0.3509    3.4110 H   0  0  0  0  0  0  0  0  0  0  0  0
    0.7055    1.6363    0.7757 H   0  0  0  0  0  0  0  0  0  0  0  0
    2.1233    0.7829    0.1175 H   0  0  0  0  0  0  0  0  0  0  0  0
    2.1545    1.4784    1.7522 H   0  0  0  0  0  0  0  0  0  0  0  0
   -0.2711   -2.4429    2.6230 N   0  0  0  0  0  0  0  0  0  0  0  0
   -0.6887   -3.5745    3.4171 C   0  0  2  0  0  0  0  0  0  0  0  0
    0.3566   -4.6709    3.2598 C   0  0  0  0  0  0  0  0  0  0  0  0
    1.1214   -4.7357    2.2997 O   0  0  0  0  0  0  0  0  0  0  0  0
   -2.0633   -4.0695    2.9951 C   0  0  0  0  0  0  0  0  0  0  0  0
    0.1653   -1.6534    3.0900 H   0  0  0  0  0  0  0  0  0  0  0  0
   -0.7120   -3.2381    4.4594 H   0  0  0  0  0  0  0  0  0  0  0  0
   -2.0597   -4.4107    1.9534 H   0  0  0  0  0  0  0  0  0  0  0  0
   -2.3908   -4.9092    3.6168 H   0  0  0  0  0  0  0  0  0  0  0  0
   -2.8083   -3.2710    3.0806 H   0  0  0  0  0  0  0  0  0  0  0  0
    0.3060   -5.5927    4.2961 N   0  0  0  0  0  0  0  0  0  0  0  0
    1.1881   -6.7340    4.3680 C   0  0  0  0  0  0  0  0  0  0  0  0
   -0.3475   -5.4499    5.0605 H   0  0  0  0  0  0  0  0  0  0  0  0
    0.7070   -7.6006    3.8910 H   0  0  0  0  0  0  0  0  0  0  0  0
    2.1287   -6.5038    3.8462 H   0  0  0  0  0  0  0  0  0  0  0  0
    1.4009   -6.9670    5.4218 H   0  0  0  0  0  0  0  0  0  0  0  0
  1  3  1  0  0  0  0
  1  7  1  0  0  0  0
  1  2  2  0  0  0  0
 32 33  1  0  0  0  0
 33 41  1  0  0  0  0
 33 34  2  0  0  0  0
  8  9  1  0  0  0  0
  9 17  1  0  0  0  0
  9 10  2  0  0  0  0
 18 19  1  0  0  0  0
 19 31  1  0  0  0  0
 19 20  2  0  0  0  0
 32 35  1  0  0  0  0
  8 11  1  0  0  0  0
 21 23  1  0  0  0  0
 41 42  1  0  0  0  0
 31 32  1  0  0  0  0
  7  8  1  0  0  0  0
 18 21  1  0  0  0  0
 17 18  1  0  0  0  0
 21 22  1  0  0  0  0
  3  4  1  0  0  0  0
  3  5  1  0  0  0  0
  3  6  1  0  0  0  0
 35 38  1  0  0  0  0
 35 39  1  0  0  0  0
 35 40  1  0  0  0  0
 11 14  1  0  0  0  0
 11 15  1  0  0  0  0
 11 16  1  0  0  0  0
 23 28  1  0  0  0  0
 23 29  1  0  0  0  0
 23 30  1  0  0  0  0
 42 44  1  0  0  0  0
 42 45  1  0  0  0  0
 42 46  1  0  0  0  0
 32 37  1  0  0  0  0
  8 13  1  0  0  0  0
 18 25  1  0  0  0  0
 21 26  1  0  0  0  0
 41 43  1  0  0  0  0
  7 12  1  0  0  0  0
 31 36  1  0  0  0  0
 17 24  1  0  0  0  0
 22 27  1  0  0  0  0
M  END
$$$$

  -OEChem-05262214473D

 46 45  0     1  0  0  0  0  0999 V2000
   -4.6700    2.7214    1.5150 C   0  0  0  0  0  0  0  0  0  0  0  0
   -5.4532    2.5715    0.5845 O   0  0  0  0  0  0  0  0  0  0  0  0
   -5.0996    3.4865    2.7226 C   0  0  0  0  0  0  0  0  0  0  0  0
   -4.8796    4.5629    2.6387 H   0  0  0  0  0  0  0  0  0  0  0  0
   -6.1861    3.4241    2.8954 H   0  0  0  0  0  0  0  0  0  0  0  0
   -4.6369    3.1693    3.6708 H   0  0  0  0  0  0  0  0  0  0  0  0
   -3.3731    2.2391    1.5790 N   0  0  0  0  0  0  0  0  0  0  0  0
   -2.7599    1.4751    0.5247 C   0  0  2  0  0  0  0  0  0  0  0  0
   -1.5143    0.8067    1.0915 C   0  0  0  0  0  0  0  0  0  0  0  0
   -0.9247    1.2213    2.0872 O   0  0  0  0  0  0  0  0  0  0  0  0
   -2.4106    2.3553   -0.6653 C   0  0  0  0  0  0  0  0  0  0  0  0
   -2.8254    2.4352    2.4150 H   0  0  0  0  0  0  0  0  0  0  0  0
   -3.4836    0.7082    0.2278 H   0  0  0  0  0  0  0  0  0  0  0  0
   -1.6866    3.1298   -0.3871 H   0  0  0  0  0  0  0  0  0  0  0  0
   -1.9704    1.7677   -1.4777 H   0  0  0  0  0  0  0  0  0  0  0  0
   -3.3030    2.8584   -1.0531 H   0  0  0  0  0  0  0  0  0  0  0  0
   -1.1107   -0.2839    0.3303 N   0  0  0  0  0  0  0  0  0  0  0  0
    0.0490   -1.0750    0.6539 C   0  0  2  0  0  0  0  0  0  0  0  0
   -0.4427   -2.3922    1.2469 C   0  0  0  0  0  0  0  0  0  0  0  0
   -0.7177   -3.3748    0.5612 O   0  0  0  0  0  0  0  0  0  0  0  0
    1.0149   -0.3533    1.6049 C   0  0  2  0  0  0  0  0  0  0  0  0
    0.3743   -0.0552    2.8444 O   0  0  0  0  0  0  0  0  0  0  0  0
    1.5290    0.9565    1.0196 C   0  0  0  0  0  0  0  0  0  0  0  0
   -1.6733   -0.5660   -0.4691 H   0  0  0  0  0  0  0  0  0  0  0  0
    0.5520   -1.2914   -0.2965 H   0  0  0  0  0  0  0  0  0  0  0  0
    1.8759   -0.9933    1.8298 H   0  0  0  0  0  0  0  0  0  0  0  0
    1.0478    0.3509    3.4110 H   0  0  0  0  0  0  0  0  0  0  0  0
    0.7055    1.6363    0.7757 H   0  0  0  0  0  0  0  0  0  0  0  0
    2.1233    0.7829    0.1175 H   0  0  0  0  0  0  0  0  0  0  0  0
    2.1545    1.4784    1.7522 H   0  0  0  0  0  0  0  0  0  0  0  0
   -0.5850   -2.3246    2.6257 N   0  0  0  0  0  0  0  0  0  0  0  0
   -1.0676   -3.4351    3.4125 C   0  0  2  0  0  0  0  0  0  0  0  0
    0.0815   -4.4182    3.5929 C   0  0  0  0  0  0  0  0  0  0  0  0
    1.0475   -4.4674    2.8342 O   0  0  0  0  0  0  0  0  0  0  0  0
   -2.2591   -4.1074    2.7484 C   0  0  0  0  0  0  0  0  0  0  0  0
   -0.3402   -1.4602    3.0998 H   0  0  0  0  0  0  0  0  0  0  0  0
   -1.3581   -3.0291    4.3877 H   0  0  0  0  0  0  0  0  0  0  0  0
   -1.9873   -4.5203    1.7701 H   0  0  0  0  0  0  0  0  0  0  0  0
   -2.6416   -4.9312    3.3601 H   0  0  0  0  0  0  0  0  0  0  0  0
   -3.0735   -3.3917    2.5925 H   0  0  0  0  0  0  0  0  0  0  0  0
   -0.1195   -5.2631    4.6755 N   0  0  0  0  0  0  0  0  0  0  0  0
    0.8233   -6.2922    5.0469 C   0  0  0  0  0  0  0  0  0  0  0  0
   -0.9401   -5.1383    5.2610 H   0  0  0  0  0  0  0  0  0  0  0  0
    0.5444   -7.2386    4.5604 H   0  0  0  0  0  0  0  0  0  0  0  0
    1.8330   -5.9980    4.7244 H   0  0  0  0  0  0  0  0  0  0  0  0
    0.8109   -6.4239    6.1389 H   0  0  0  0  0  0  0  0  0  0  0  0
  1  3  1  0  0  0  0
  1  7  1  0  0  0  0
  1  2  2  0  0  0  0
 32 33  1  0  0  0  0
 33 41  1  0  0  0  0
 33 34  2  0  0  0  0
  8  9  1  0  0  0  0
  9 17  1  0  0  0  0
  9 10  2  0  0  0  0
 18 19  1  0  0  0  0
 19 31  1  0  0  0  0
 19 20  2  0  0  0  0
 32 35  1  0  0  0  0
  8 11  1  0  0  0  0
 21 23  1  0  0  0  0
 41 42  1  0  0  0  0
 31 32  1  0  0  0  0
  7  8  1  0  0  0  0
 18 21  1  0  0  0  0
 17 18  1  0  0  0  0
 21 22  1  0  0  0  0
  3  4  1  0  0  0  0
  3  5  1  0  0  0  0
  3  6  1  0  0  0  0
 35 38  1  0  0  0  0
 35 39  1  0  0  0  0
 35 40  1  0  0  0  0
 11 14  1  0  0  0  0
 11 15  1  0  0  0  0
 11 16  1  0  0  0  0
 23 28  1  0  0  0  0
 23 29  1  0  0  0  0
 23 30  1  0  0  0  0
 42 44  1  0  0  0  0
 42 45  1  0  0  0  0
 42 46  1  0  0  0  0
 32 37  1  0  0  0  0
  8 13  1  0  0  0  0
 18 25  1  0  0  0  0
 21 26  1  0  0  0  0
 41 43  1  0  0  0  0
  7 12  1  0  0  0  0
 31 36  1  0  0  0  0
 17 24  1  0  0  0  0
 22 27  1  0  0  0  0
M  END
$$$$

  -OEChem-05262214473D

 46 45  0     1  0  0  0  0  0999 V2000
   -4.6700    2.7214    1.5150 C   0  0  0  0  0  0  0  0  0  0  0  0
   -5.4532    2.5715    0.5845 O   0  0  0  0  0  0  0  0  0  0  0  0
   -5.0996    3.4865    2.7226 C   0  0  0  0  0  0  0  0  0  0  0  0
   -4.8796    4.5629    2.6387 H   0  0  0  0  0  0  0  0  0  0  0  0
   -6.1861    3.4241    2.8954 H   0  0  0  0  0  0  0  0  0  0  0  0
   -4.6369    3.1693    3.6708 H   0  0  0  0  0  0  0  0  0  0  0  0
   -3.3731    2.2391    1.5790 N   0  0  0  0  0  0  0  0  0  0  0  0
   -2.7599    1.4751    0.5247 C   0  0  2  0  0  0  0  0  0  0  0  0
   -1.5143    0.8067    1.0915 C   0  0  0  0  0  0  0  0  0  0  0  0
   -0.9247    1.2213    2.0872 O   0  0  0  0  0  0  0  0  0  0  0  0
   -2.4106    2.3553   -0.6653 C   0  0  0  0  0  0  0  0  0  0  0  0
   -2.8254    2.4352    2.4150 H   0  0  0  0  0  0  0  0  0  0  0  0
   -3.4836    0.7082    0.2278 H   0  0  0  0  0  0  0  0  0  0  0  0
   -1.6866    3.1298   -0.3871 H   0  0  0  0  0  0  0  0  0  0  0  0
   -1.9704    1.7677   -1.4777 H   0  0  0  0  0  0  0  0  0  0  0  0
   -3.3030    2.8584   -1.0531 H   0  0  0  0  0  0  0  0  0  0  0  0
   -1.1107   -0.2839    0.3303 N   0  0  0  0  0  0  0  0  0  0  0  0
    0.0490   -1.0750    0.6539 C   0  0  2  0  0  0  0  0  0  0  0  0
   -0.4427   -2.3922    1.2469 C   0  0  0  0  0  0  0  0  0  0  0  0
   -0.4636   -3.4459    0.6140 O   0  0  0  0  0  0  0  0  0  0  0  0
    1.0149   -0.3533    1.6049 C   0  0  2  0  0  0  0  0  0  0  0  0
    0.3743   -0.0552    2.8444 O   0  0  0  0  0  0  0  0  0  0  0  0
    1.5290    0.9565    1.0196 C   0  0  0  0  0  0  0  0  0  0  0  0
   -1.6733   -0.5660   -0.4691 H   0  0  0  0  0  0  0  0  0  0  0  0
    0.5520   -1.2914   -0.2965 H   0  0  0  0  0  0  0  0  0  0  0  0
    1.8759   -0.9933    1.8298 H   0  0  0  0  0  0  0  0  0  0  0  0
    1.0478    0.3509    3.4110 H   0  0  0  0  0  0  0  0  0  0  0  0
    0.7055    1.6363    0.7757 H   0  0  0  0  0  0  0  0  0  0  0  0
    2.1233    0.7829    0.1175 H   0  0  0  0  0  0  0  0  0  0  0  0
    2.1545    1.4784    1.7522 H   0  0  0  0  0  0  0  0  0  0  0  0
   -0.9007   -2.2416    2.5482 N   0  0  0  0  0  0  0  0  0  0  0  0
   -1.4466   -3.3389    3.3119 C   0  0  2  0  0  0  0  0  0  0  0  0
   -0.2841   -4.1741    3.8320 C   0  0  0  0  0  0  0  0  0  0  0  0
    0.8296   -4.1711    3.3117 O   0  0  0  0  0  0  0  0  0  0  0  0
   -2.3892   -4.1844    2.4696 C   0  0  0  0  0  0  0  0  0  0  0  0
   -0.8501   -1.3237    2.9803 H   0  0  0  0  0  0  0  0  0  0  0  0
   -1.9872   -2.8983    4.1566 H   0  0  0  0  0  0  0  0  0  0  0  0
   -1.8653   -4.6342    1.6183 H   0  0  0  0  0  0  0  0  0  0  0  0
   -2.8242   -4.9991    3.0579 H   0  0  0  0  0  0  0  0  0  0  0  0
   -3.2084   -3.5758    2.0718 H   0  0  0  0  0  0  0  0  0  0  0  0
   -0.6484   -4.9558    4.9194 N   0  0  0  0  0  0  0  0  0  0  0  0
    0.2748   -5.8455    5.5842 C   0  0  0  0  0  0  0  0  0  0  0  0
   -1.5886   -4.8803    5.2963 H   0  0  0  0  0  0  0  0  0  0  0  0
    0.2014   -6.8493    5.1405 H   0  0  0  0  0  0  0  0  0  0  0  0
    1.3002   -5.4659    5.4645 H   0  0  0  0  0  0  0  0  0  0  0  0
    0.0261   -5.8988    6.6544 H   0  0  0  0  0  0  0  0  0  0  0  0
  1  3  1  0  0  0  0
  1  7  1  0  0  0  0
  1  2  2  0  0  0  0
 32 33  1  0  0  0  0
 33 41  1  0  0  0  0
 33 34  2  0  0  0  0
  8  9  1  0  0  0  0
  9 17  1  0  0  0  0
  9 10  2  0  0  0  0
 18 19  1  0  0  0  0
 19 31  1  0  0  0  0
 19 20  2  0  0  0  0
 32 35  1  0  0  0  0
  8 11  1  0  0  0  0
 21 23  1  0  0  0  0
 41 42  1  0  0  0  0
 31 32  1  0  0  0  0
  7  8  1  0  0  0  0
 18 21  1  0  0  0  0
 17 18  1  0  0  0  0
 21 22  1  0  0  0  0
  3  4  1  0  0  0  0
  3  5  1  0  0  0  0
  3  6  1  0  0  0  0
 35 38  1  0  0  0  0
 35 39  1  0  0  0  0
 35 40  1  0  0  0  0
 11 14  1  0  0  0  0
 11 15  1  0  0  0  0
 11 16  1  0  0  0  0
 23 28  1  0  0  0  0
 23 29  1  0  0  0  0
 23 30  1  0  0  0  0
 42 44  1  0  0  0  0
 42 45  1  0  0  0  0
 42 46  1  0  0  0  0
 32 37  1  0  0  0  0
  8 13  1  0  0  0  0
 18 25  1  0  0  0  0
 21 26  1  0  0  0  0
 41 43  1  0  0  0  0
  7 12  1  0  0  0  0
 31 36  1  0  0  0  0
 17 24  1  0  0  0  0
 22 27  1  0  0  0  0
M  END
$$$$

  -OEChem-05262214473D

 46 45  0     1  0  0  0  0  0999 V2000
   -4.6700    2.7214    1.5150 C   0  0  0  0  0  0  0  0  0  0  0  0
   -5.4532    2.5715    0.5845 O   0  0  0  0  0  0  0  0  0  0  0  0
   -5.0996    3.4865    2.7226 C   0  0  0  0  0  0  0  0  0  0  0  0
   -4.8796    4.5629    2.6387 H   0  0  0  0  0  0  0  0  0  0  0  0
   -6.1861    3.4241    2.8954 H   0  0  0  0  0  0  0  0  0  0  0  0
   -4.6369    3.1693    3.6708 H   0  0  0  0  0  0  0  0  0  0  0  0
   -3.3731    2.2391    1.5790 N   0  0  0  0  0  0  0  0  0  0  0  0
   -2.7599    1.4751    0.5247 C   0  0  2  0  0  0  0  0  0  0  0  0
   -1.5143    0.8067    1.0915 C   0  0  0  0  0  0  0  0  0  0  0  0
   -0.9247    1.2213    2.0872 O   0  0  0  0  0  0  0  0  0  0  0  0
   -2.4106    2.3553   -0.6653 C   0  0  0  0  0  0  0  0  0  0  0  0
   -2.8254    2.4352    2.4150 H   0  0  0  0  0  0  0  0  0  0  0  0
   -3.4836    0.7082    0.2278 H   0  0  0  0  0  0  0  0  0  0  0  0
   -1.6866    3.1298   -0.3871 H   0  0  0  0  0  0  0  0  0  0  0  0
   -1.9704    1.7677   -1.4777 H   0  0  0  0  0  0  0  0  0  0  0  0
   -3.3030    2.8584   -1.0531 H   0  0  0  0  0  0  0  0  0  0  0  0
   -1.1107   -0.2839    0.3303 N   0  0  0  0  0  0  0  0  0  0  0  0
    0.0490   -1.0750    0.6539 C   0  0  2  0  0  0  0  0  0  0  0  0
   -0.4427   -2.3922    1.2469 C   0  0  0  0  0  0  0  0  0  0  0  0
   -0.2229   -3.4846    0.7276 O   0  0  0  0  0  0  0  0  0  0  0  0
    1.0149   -0.3533    1.6049 C   0  0  2  0  0  0  0  0  0  0  0  0
    0.3743   -0.0552    2.8444 O   0  0  0  0  0  0  0  0  0  0  0  0
    1.5290    0.9565    1.0196 C   0  0  0  0  0  0  0  0  0  0  0  0
   -1.6733   -0.5660   -0.4691 H   0  0  0  0  0  0  0  0  0  0  0  0
    0.5520   -1.2914   -0.2965 H   0  0  0  0  0  0  0  0  0  0  0  0
    1.8759   -0.9933    1.8298 H   0  0  0  0  0  0  0  0  0  0  0  0
    1.0478    0.3509    3.4110 H   0  0  0  0  0  0  0  0  0  0  0  0
    0.7055    1.6363    0.7757 H   0  0  0  0  0  0  0  0  0  0  0  0
    2.1233    0.7829    0.1175 H   0  0  0  0  0  0  0  0  0  0  0  0
    2.1545    1.4784    1.7522 H   0  0  0  0  0  0  0  0  0  0  0  0
   -1.1967   -2.1997    2.3959 N   0  0  0  0  0  0  0  0  0  0  0  0
   -1.7998   -3.2926    3.1219 C   0  0  2  0  0  0  0  0  0  0  0  0
   -0.7151   -3.9551    3.9610 C   0  0  0  0  0  0  0  0  0  0  0  0
    0.4828   -3.8670    3.6995 O   0  0  0  0  0  0  0  0  0  0  0  0
   -2.4448   -4.2951    2.1776 C   0  0  0  0  0  0  0  0  0  0  0  0
   -1.3297   -1.2530    2.7396 H   0  0  0  0  0  0  0  0  0  0  0  0
   -2.5564   -2.8545    3.7820 H   0  0  0  0  0  0  0  0  0  0  0  0
   -1.7022   -4.7446    1.5084 H   0  0  0  0  0  0  0  0  0  0  0  0
   -2.9263   -5.1082    2.7308 H   0  0  0  0  0  0  0  0  0  0  0  0
   -3.2039   -3.8105    1.5541 H   0  0  0  0  0  0  0  0  0  0  0  0
   -1.2447   -4.6918    5.0112 N   0  0  0  0  0  0  0  0  0  0  0  0
   -0.4200   -5.4244    5.9435 C   0  0  0  0  0  0  0  0  0  0  0  0
   -2.2489   -4.6934    5.1640 H   0  0  0  0  0  0  0  0  0  0  0  0
   -0.2987   -6.4595    5.5917 H   0  0  0  0  0  0  0  0  0  0  0  0
    0.5668   -4.9438    6.0160 H   0  0  0  0  0  0  0  0  0  0  0  0
   -0.8999   -5.4275    6.9333 H   0  0  0  0  0  0  0  0  0  0  0  0
  1  3  1  0  0  0  0
  1  7  1  0  0  0  0
  1  2  2  0  0  0  0
 32 33  1  0  0  0  0
 33 41  1  0  0  0  0
 33 34  2  0  0  0  0
  8  9  1  0  0  0  0
  9 17  1  0  0  0  0
  9 10  2  0  0  0  0
 18 19  1  0  0  0  0
 19 31  1  0  0  0  0
 19 20  2  0  0  0  0
 32 35  1  0  0  0  0
  8 11  1  0  0  0  0
 21 23  1  0  0  0  0
 41 42  1  0  0  0  0
 31 32  1  0  0  0  0
  7  8  1  0  0  0  0
 18 21  1  0  0  0  0
 17 18  1  0  0  0  0
 21 22  1  0  0  0  0
  3  4  1  0  0  0  0
  3  5  1  0  0  0  0
  3  6  1  0  0  0  0
 35 38  1  0  0  0  0
 35 39  1  0  0  0  0
 35 40  1  0  0  0  0
 11 14  1  0  0  0  0
 11 15  1  0  0  0  0
 11 16  1  0  0  0  0
 23 28  1  0  0  0  0
 23 29  1  0  0  0  0
 23 30  1  0  0  0  0
 42 44  1  0  0  0  0
 42 45  1  0  0  0  0
 42 46  1  0  0  0  0
 32 37  1  0  0  0  0
  8 13  1  0  0  0  0
 18 25  1  0  0  0  0
 21 26  1  0  0  0  0
 41 43  1  0  0  0  0
  7 12  1  0  0  0  0
 31 36  1  0  0  0  0
 17 24  1  0  0  0  0
 22 27  1  0  0  0  0
M  END
$$$$

  -OEChem-05262214473D

 46 45  0     1  0  0  0  0  0999 V2000
   -4.6700    2.7214    1.5150 C   0  0  0  0  0  0  0  0  0  0  0  0
   -5.4532    2.5715    0.5845 O   0  0  0  0  0  0  0  0  0  0  0  0
   -5.0996    3.4865    2.7226 C   0  0  0  0  0  0  0  0  0  0  0  0
   -4.8796    4.5629    2.6387 H   0  0  0  0  0  0  0  0  0  0  0  0
   -6.1861    3.4241    2.8954 H   0  0  0  0  0  0  0  0  0  0  0  0
   -4.6369    3.1693    3.6708 H   0  0  0  0  0  0  0  0  0  0  0  0
   -3.3731    2.2391    1.5790 N   0  0  0  0  0  0  0  0  0  0  0  0
   -2.7599    1.4751    0.5247 C   0  0  2  0  0  0  0  0  0  0  0  0
   -1.5143    0.8067    1.0915 C   0  0  0  0  0  0  0  0  0  0  0  0
   -0.9247    1.2213    2.0872 O   0  0  0  0  0  0  0  0  0  0  0  0
   -2.4106    2.3553   -0.6653 C   0  0  0  0  0  0  0  0  0  0  0  0
   -2.8254    2.4352    2.4150 H   0  0  0  0  0  0  0  0  0  0  0  0
   -3.4836    0.7082    0.2278 H   0  0  0  0  0  0  0  0  0  0  0  0
   -1.6866    3.1298   -0.3871 H   0  0  0  0  0  0  0  0  0  0  0  0
   -1.9704    1.7677   -1.4777 H   0  0  0  0  0  0  0  0  0  0  0  0
   -3.3030    2.8584   -1.0531 H   0  0  0  0  0  0  0  0  0  0  0  0
   -1.1107   -0.2839    0.3303 N   0  0  0  0  0  0  0  0  0  0  0  0
    0.0490   -1.0750    0.6539 C   0  0  2  0  0  0  0  0  0  0  0  0
   -0.4427   -2.3922    1.2469 C   0  0  0  0  0  0  0  0  0  0  0  0
   -0.0119   -3.4883    0.8944 O   0  0  0  0  0  0  0  0  0  0  0  0
    1.0149   -0.3533    1.6049 C   0  0  2  0  0  0  0  0  0  0  0  0
    0.3743   -0.0552    2.8444 O   0  0  0  0  0  0  0  0  0  0  0  0
    1.5290    0.9565    1.0196 C   0  0  0  0  0  0  0  0  0  0  0  0
   -1.6733   -0.5660   -0.4691 H   0  0  0  0  0  0  0  0  0  0  0  0
    0.5520   -1.2914   -0.2965 H   0  0  0  0  0  0  0  0  0  0  0  0
    1.8759   -0.9933    1.8298 H   0  0  0  0  0  0  0  0  0  0  0  0
    1.0478    0.3509    3.4110 H   0  0  0  0  0  0  0  0  0  0  0  0
    0.7055    1.6363    0.7757 H   0  0  0  0  0  0  0  0  0  0  0  0
    2.1233    0.7829    0.1175 H   0  0  0  0  0  0  0  0  0  0  0  0
    2.1545    1.4784    1.7522 H   0  0  0  0  0  0  0  0  0  0  0  0
   -1.4529   -2.2016    2.1791 N   0  0  0  0  0  0  0  0  0  0  0  0
   -2.1032   -3.2992    2.8557 C   0  0  2  0  0  0  0  0  0  0  0  0
   -1.1824   -3.7762    3.9710 C   0  0  0  0  0  0  0  0  0  0  0  0
    0.0305   -3.5759    3.9712 O   0  0  0  0  0  0  0  0  0  0  0  0
   -2.4222   -4.4319    1.8924 C   0  0  0  0  0  0  0  0  0  0  0  0
   -1.7462   -1.2531    2.3940 H   0  0  0  0  0  0  0  0  0  0  0  0
   -3.0269   -2.9007    3.2893 H   0  0  0  0  0  0  0  0  0  0  0  0
   -1.5089   -4.8439    1.4479 H   0  0  0  0  0  0  0  0  0  0  0  0
   -2.9409   -5.2512    2.4012 H   0  0  0  0  0  0  0  0  0  0  0  0
   -3.0603   -4.0800    1.0746 H   0  0  0  0  0  0  0  0  0  0  0  0
   -1.8678   -4.4892    4.9446 N   0  0  0  0  0  0  0  0  0  0  0  0
   -1.2138   -5.0575    6.1002 C   0  0  0  0  0  0  0  0  0  0  0  0
   -2.8760   -4.5903    4.8731 H   0  0  0  0  0  0  0  0  0  0  0  0
   -0.9217   -6.0956    5.8833 H   0  0  0  0  0  0  0  0  0  0  0  0
   -0.3174   -4.4673    6.3412 H   0  0  0  0  0  0  0  0  0  0  0  0
   -1.9041   -5.0422    6.9565 H   0  0  0  0  0  0  0  0  0  0  0  0
  1  3  1  0  0  0  0
  1  7  1  0  0  0  0
  1  2  2  0  0  0  0
 32 33  1  0  0  0  0
 33 41  1  0  0  0  0
 33 34  2  0  0  0  0
  8  9  1  0  0  0  0
  9 17  1  0  0  0  0
  9 10  2  0  0  0  0
 18 19  1  0  0  0  0
 19 31  1  0  0  0  0
 19 20  2  0  0  0  0
 32 35  1  0  0  0  0
  8 11  1  0  0  0  0
 21 23  1  0  0  0  0
 41 42  1  0  0  0  0
 31 32  1  0  0  0  0
  7  8  1  0  0  0  0
 18 21  1  0  0  0  0
 17 18  1  0  0  0  0
 21 22  1  0  0  0  0
  3  4  1  0  0  0  0
  3  5  1  0  0  0  0
  3  6  1  0  0  0  0
 35 38  1  0  0  0  0
 35 39  1  0  0  0  0
 35 40  1  0  0  0  0
 11 14  1  0  0  0  0
 11 15  1  0  0  0  0
 11 16  1  0  0  0  0
 23 28  1  0  0  0  0
 23 29  1  0  0  0  0
 23 30  1  0  0  0  0
 42 44  1  0  0  0  0
 42 45  1  0  0  0  0
 42 46  1  0  0  0  0
 32 37  1  0  0  0  0
  8 13  1  0  0  0  0
 18 25  1  0  0  0  0
 21 26  1  0  0  0  0
 41 43  1  0  0  0  0
  7 12  1  0  0  0  0
 31 36  1  0  0  0  0
 17 24  1  0  0  0  0
 22 27  1  0  0  0  0
M  END
$$$$

  -OEChem-05262214473D

 46 45  0     1  0  0  0  0  0999 V2000
   -4.6700    2.7214    1.5150 C   0  0  0  0  0  0  0  0  0  0  0  0
   -5.4532    2.5715    0.5845 O   0  0  0  0  0  0  0  0  0  0  0  0
   -5.0996    3.4865    2.7226 C   0  0  0  0  0  0  0  0  0  0  0  0
   -4.8796    4.5629    2.6387 H   0  0  0  0  0  0  0  0  0  0  0  0
   -6.1861    3.4241    2.8954 H   0  0  0  0  0  0  0  0  0  0  0  0
   -4.6369    3.1693    3.6708 H   0  0  0  0  0  0  0  0  0  0  0  0
   -3.3731    2.2391    1.5790 N   0  0  0  0  0  0  0  0  0  0  0  0
   -2.7599    1.4751    0.5247 C   0  0  2  0  0  0  0  0  0  0  0  0
   -1.5143    0.8067    1.0915 C   0  0  0  0  0  0  0  0  0  0  0  0
   -0.9247    1.2213    2.0872 O   0  0  0  0  0  0  0  0  0  0  0  0
   -2.4106    2.3553   -0.6653 C   0  0  0  0  0  0  0  0  0  0  0  0
   -2.8254    2.4352    2.4150 H   0  0  0  0  0  0  0  0  0  0  0  0
   -3.4836    0.7082    0.2278 H   0  0  0  0  0  0  0  0  0  0  0  0
   -1.6866    3.1298   -0.3871 H   0  0  0  0  0  0  0  0  0  0  0  0
   -1.9704    1.7677   -1.4777 H   0  0  0  0  0  0  0  0  0  0  0  0
   -3.3030    2.8584   -1.0531 H   0  0  0  0  0  0  0  0  0  0  0  0
   -1.1107   -0.2839    0.3303 N   0  0  0  0  0  0  0  0  0  0  0  0
    0.0490   -1.0750    0.6539 C   0  0  2  0  0  0  0  0  0  0  0  0
   -0.4427   -2.3922    1.2469 C   0  0  0  0  0  0  0  0  0  0  0  0
    0.1551   -3.4567    1.1030 O   0  0  0  0  0  0  0  0  0  0  0  0
    1.0149   -0.3533    1.6049 C   0  0  2  0  0  0  0  0  0  0  0  0
    0.3743   -0.0552    2.8444 O   0  0  0  0  0  0  0  0  0  0  0  0
    1.5290    0.9565    1.0196 C   0  0  0  0  0  0  0  0  0  0  0  0
   -1.6733   -0.5660   -0.4691 H   0  0  0  0  0  0  0  0  0  0  0  0
    0.5520   -1.2914   -0.2965 H   0  0  0  0  0  0  0  0  0  0  0  0
    1.8759   -0.9933    1.8298 H   0  0  0  0  0  0  0  0  0  0  0  0
    1.0478    0.3509    3.4110 H   0  0  0  0  0  0  0  0  0  0  0  0
    0.7055    1.6363    0.7757 H   0  0  0  0  0  0  0  0  0  0  0  0
    2.1233    0.7829    0.1175 H   0  0  0  0  0  0  0  0  0  0  0  0
    2.1545    1.4784    1.7522 H   0  0  0  0  0  0  0  0  0  0  0  0
   -1.6516   -2.2474    1.9127 N   0  0  0  0  0  0  0  0  0  0  0  0
   -2.3362   -3.3583    2.5312 C   0  0  2  0  0  0  0  0  0  0  0  0
   -1.6539   -3.6495    3.8614 C   0  0  0  0  0  0  0  0  0  0  0  0
   -0.4964   -3.3174    4.1084 O   0  0  0  0  0  0  0  0  0  0  0  0
   -2.3229   -4.5856    1.6334 C   0  0  0  0  0  0  0  0  0  0  0  0
   -2.0713   -1.3239    1.9671 H   0  0  0  0  0  0  0  0  0  0  0  0
   -3.3667   -3.0337    2.7121 H   0  0  0  0  0  0  0  0  0  0  0  0
   -1.2988   -4.9255    1.4410 H   0  0  0  0  0  0  0  0  0  0  0  0
   -2.8669   -5.4182    2.0915 H   0  0  0  0  0  0  0  0  0  0  0  0
   -2.7874   -4.3659    0.6660 H   0  0  0  0  0  0  0  0  0  0  0  0
   -2.4751   -4.3617    4.7242 N   0  0  0  0  0  0  0  0  0  0  0  0
   -2.0524   -4.7699    6.0436 C   0  0  0  0  0  0  0  0  0  0  0  0
   -3.4270   -4.5780    4.4435 H   0  0  0  0  0  0  0  0  0  0  0  0
   -1.6253   -5.7825    5.9954 H   0  0  0  0  0  0  0  0  0  0  0  0
   -1.2920   -4.0688    6.4181 H   0  0  0  0  0  0  0  0  0  0  0  0
   -2.9180   -4.7691    6.7224 H   0  0  0  0  0  0  0  0  0  0  0  0
  1  3  1  0  0  0  0
  1  7  1  0  0  0  0
  1  2  2  0  0  0  0
 32 33  1  0  0  0  0
 33 41  1  0  0  0  0
 33 34  2  0  0  0  0
  8  9  1  0  0  0  0
  9 17  1  0  0  0  0
  9 10  2  0  0  0  0
 18 19  1  0  0  0  0
 19 31  1  0  0  0  0
 19 20  2  0  0  0  0
 32 35  1  0  0  0  0
  8 11  1  0  0  0  0
 21 23  1  0  0  0  0
 41 42  1  0  0  0  0
 31 32  1  0  0  0  0
  7  8  1  0  0  0  0
 18 21  1  0  0  0  0
 17 18  1  0  0  0  0
 21 22  1  0  0  0  0
  3  4  1  0  0  0  0
  3  5  1  0  0  0  0
  3  6  1  0  0  0  0
 35 38  1  0  0  0  0
 35 39  1  0  0  0  0
 35 40  1  0  0  0  0
 11 14  1  0  0  0  0
 11 15  1  0  0  0  0
 11 16  1  0  0  0  0
 23 28  1  0  0  0  0
 23 29  1  0  0  0  0
 23 30  1  0  0  0  0
 42 44  1  0  0  0  0
 42 45  1  0  0  0  0
 42 46  1  0  0  0  0
 32 37  1  0  0  0  0
  8 13  1  0  0  0  0
 18 25  1  0  0  0  0
 21 26  1  0  0  0  0
 41 43  1  0  0  0  0
  7 12  1  0  0  0  0
 31 36  1  0  0  0  0
 17 24  1  0  0  0  0
 22 27  1  0  0  0  0
M  END
$$$$

  -OEChem-05262214473D

 46 45  0     1  0  0  0  0  0999 V2000
   -4.6700    2.7214    1.5150 C   0  0  0  0  0  0  0  0  0  0  0  0
   -5.4532    2.5715    0.5845 O   0  0  0  0  0  0  0  0  0  0  0  0
   -5.0996    3.4865    2.7226 C   0  0  0  0  0  0  0  0  0  0  0  0
   -4.8796    4.5629    2.6387 H   0  0  0  0  0  0  0  0  0  0  0  0
   -6.1861    3.4241    2.8954 H   0  0  0  0  0  0  0  0  0  0  0  0
   -4.6369    3.1693    3.6708 H   0  0  0  0  0  0  0  0  0  0  0  0
   -3.3731    2.2391    1.5790 N   0  0  0  0  0  0  0  0  0  0  0  0
   -2.7599    1.4751    0.5247 C   0  0  2  0  0  0  0  0  0  0  0  0
   -1.5143    0.8067    1.0915 C   0  0  0  0  0  0  0  0  0  0  0  0
   -0.9247    1.2213    2.0872 O   0  0  0  0  0  0  0  0  0  0  0  0
   -2.4106    2.3553   -0.6653 C   0  0  0  0  0  0  0  0  0  0  0  0
   -2.8254    2.4352    2.4150 H   0  0  0  0  0  0  0  0  0  0  0  0
   -3.4836    0.7082    0.2278 H   0  0  0  0  0  0  0  0  0  0  0  0
   -1.6866    3.1298   -0.3871 H   0  0  0  0  0  0  0  0  0  0  0  0
   -1.9704    1.7677   -1.4777 H   0  0  0  0  0  0  0  0  0  0  0  0
   -3.3030    2.8584   -1.0531 H   0  0  0  0  0  0  0  0  0  0  0  0
   -1.1107   -0.2839    0.3303 N   0  0  0  0  0  0  0  0  0  0  0  0
    0.0490   -1.0750    0.6539 C   0  0  2  0  0  0  0  0  0  0  0  0
   -0.4427   -2.3922    1.2469 C   0  0  0  0  0  0  0  0  0  0  0  0
    0.2666   -3.3920    1.3391 O   0  0  0  0  0  0  0  0  0  0  0  0
    1.0149   -0.3533    1.6049 C   0  0  2  0  0  0  0  0  0  0  0  0
    0.3743   -0.0552    2.8444 O   0  0  0  0  0  0  0  0  0  0  0  0
    1.5290    0.9565    1.0196 C   0  0  0  0  0  0  0  0  0  0  0  0
   -1.6733   -0.5660   -0.4691 H   0  0  0  0  0  0  0  0  0  0  0  0
    0.5520   -1.2914   -0.2965 H   0  0  0  0  0  0  0  0  0  0  0  0
    1.8759   -0.9933    1.8298 H   0  0  0  0  0  0  0  0  0  0  0  0
    1.0478    0.3509    3.4110 H   0  0  0  0  0  0  0  0  0  0  0  0
    0.7055    1.6363    0.7757 H   0  0  0  0  0  0  0  0  0  0  0  0
    2.1233    0.7829    0.1175 H   0  0  0  0  0  0  0  0  0  0  0  0
    2.1545    1.4784    1.7522 H   0  0  0  0  0  0  0  0  0  0  0  0
   -1.7795   -2.3338    1.6148 N   0  0  0  0  0  0  0  0  0  0  0  0
   -2.4828   -3.4659    2.1708 C   0  0  2  0  0  0  0  0  0  0  0  0
   -2.0976   -3.5837    3.6395 C   0  0  0  0  0  0  0  0  0  0  0  0
   -1.0620   -3.1093    4.1016 O   0  0  0  0  0  0  0  0  0  0  0  0
   -2.1537   -4.7457    1.4182 C   0  0  0  0  0  0  0  0  0  0  0  0
   -2.2829   -1.4606    1.4881 H   0  0  0  0  0  0  0  0  0  0  0  0
   -3.5526   -3.2445    2.0898 H   0  0  0  0  0  0  0  0  0  0  0  0
   -1.0860   -4.9838    1.4880 H   0  0  0  0  0  0  0  0  0  0  0  0
   -2.7095   -5.5980    1.8228 H   0  0  0  0  0  0  0  0  0  0  0  0
   -2.4037   -4.6486    0.3562 H   0  0  0  0  0  0  0  0  0  0  0  0
   -3.0253   -4.3180    4.3650 N   0  0  0  0  0  0  0  0  0  0  0  0
   -2.8787   -4.5812    5.7776 C   0  0  0  0  0  0  0  0  0  0  0  0
   -3.8645   -4.6574    3.9043 H   0  0  0  0  0  0  0  0  0  0  0  0
   -2.3614   -5.5414    5.9204 H   0  0  0  0  0  0  0  0  0  0  0  0
   -2.2907   -3.7755    6.2414 H   0  0  0  0  0  0  0  0  0  0  0  0
   -3.8725   -4.6268    6.2470 H   0  0  0  0  0  0  0  0  0  0  0  0
  1  3  1  0  0  0  0
  1  7  1  0  0  0  0
  1  2  2  0  0  0  0
 32 33  1  0  0  0  0
 33 41  1  0  0  0  0
 33 34  2  0  0  0  0
  8  9  1  0  0  0  0
  9 17  1  0  0  0  0
  9 10  2  0  0  0  0
 18 19  1  0  0  0  0
 19 31  1  0  0  0  0
 19 20  2  0  0  0  0
 32 35  1  0  0  0  0
  8 11  1  0  0  0  0
 21 23  1  0  0  0  0
 41 42  1  0  0  0  0
 31 32  1  0  0  0  0
  7  8  1  0  0  0  0
 18 21  1  0  0  0  0
 17 18  1  0  0  0  0
 21 22  1  0  0  0  0
  3  4  1  0  0  0  0
  3  5  1  0  0  0  0
  3  6  1  0  0  0  0
 35 38  1  0  0  0  0
 35 39  1  0  0  0  0
 35 40  1  0  0  0  0
 11 14  1  0  0  0  0
 11 15  1  0  0  0  0
 11 16  1  0  0  0  0
 23 28  1  0  0  0  0
 23 29  1  0  0  0  0
 23 30  1  0  0  0  0
 42 44  1  0  0  0  0
 42 45  1  0  0  0  0
 42 46  1  0  0  0  0
 32 37  1  0  0  0  0
  8 13  1  0  0  0  0
 18 25  1  0  0  0  0
 21 26  1  0  0  0  0
 41 43  1  0  0  0  0
  7 12  1  0  0  0  0
 31 36  1  0  0  0  0
 17 24  1  0  0  0  0
 22 27  1  0  0  0  0
M  END
$$$$

  -OEChem-05262214473D

 46 45  0     1  0  0  0  0  0999 V2000
   -4.6700    2.7214    1.5150 C   0  0  0  0  0  0  0  0  0  0  0  0
   -5.4532    2.5715    0.5845 O   0  0  0  0  0  0  0  0  0  0  0  0
   -5.0996    3.4865    2.7226 C   0  0  0  0  0  0  0  0  0  0  0  0
   -4.8796    4.5629    2.6387 H   0  0  0  0  0  0  0  0  0  0  0  0
   -6.1861    3.4241    2.8954 H   0  0  0  0  0  0  0  0  0  0  0  0
   -4.6369    3.1693    3.6708 H   0  0  0  0  0  0  0  0  0  0  0  0
   -3.3731    2.2391    1.5790 N   0  0  0  0  0  0  0  0  0  0  0  0
   -2.7599    1.4751    0.5247 C   0  0  2  0  0  0  0  0  0  0  0  0
   -1.5143    0.8067    1.0915 C   0  0  0  0  0  0  0  0  0  0  0  0
   -0.9247    1.2213    2.0872 O   0  0  0  0  0  0  0  0  0  0  0  0
   -2.4106    2.3553   -0.6653 C   0  0  0  0  0  0  0  0  0  0  0  0
   -2.8254    2.4352    2.4150 H   0  0  0  0  0  0  0  0  0  0  0  0
   -3.4836    0.7082    0.2278 H   0  0  0  0  0  0  0  0  0  0  0  0
   -1.6866    3.1298   -0.3871 H   0  0  0  0  0  0  0  0  0  0  0  0
   -1.9704    1.7677   -1.4777 H   0  0  0  0  0  0  0  0  0  0  0  0
   -3.3030    2.8584   -1.0531 H   0  0  0  0  0  0  0  0  0  0  0  0
   -1.1107   -0.2839    0.3303 N   0  0  0  0  0  0  0  0  0  0  0  0
    0.0490   -1.0750    0.6539 C   0  0  2  0  0  0  0  0  0  0  0  0
   -0.4427   -2.3922    1.2469 C   0  0  0  0  0  0  0  0  0  0  0  0
    0.3150   -3.2986    1.5867 O   0  0  0  0  0  0  0  0  0  0  0  0
    1.0149   -0.3533    1.6049 C   0  0  2  0  0  0  0  0  0  0  0  0
    0.3743   -0.0552    2.8444 O   0  0  0  0  0  0  0  0  0  0  0  0
    1.5290    0.9565    1.0196 C   0  0  0  0  0  0  0  0  0  0  0  0
   -1.6733   -0.5660   -0.4691 H   0  0  0  0  0  0  0  0  0  0  0  0
    0.5520   -1.2914   -0.2965 H   0  0  0  0  0  0  0  0  0  0  0  0
    1.8759   -0.9933    1.8298 H   0  0  0  0  0  0  0  0  0  0  0  0
    1.0478    0.3509    3.4110 H   0  0  0  0  0  0  0  0  0  0  0  0
    0.7055    1.6363    0.7757 H   0  0  0  0  0  0  0  0  0  0  0  0
    2.1233    0.7829    0.1175 H   0  0  0  0  0  0  0  0  0  0  0  0
    2.1545    1.4784    1.7522 H   0  0  0  0  0  0  0  0  0  0  0  0
   -1.8278   -2.4549    1.3057 N   0  0  0  0  0  0  0  0  0  0  0  0
   -2.5330   -3.6146    1.7988 C   0  0  2  0  0  0  0  0  0  0  0  0
   -2.4833   -3.5833    3.3207 C   0  0  0  0  0  0  0  0  0  0  0  0
   -1.6277   -2.9658    3.9513 O   0  0  0  0  0  0  0  0  0  0  0  0
   -1.9260   -4.9012    1.2615 C   0  0  0  0  0  0  0  0  0  0  0  0
   -2.3665   -1.6539    0.9895 H   0  0  0  0  0  0  0  0  0  0  0  0
   -3.5718   -3.5187    1.4647 H   0  0  0  0  0  0  0  0  0  0  0  0
   -0.8851   -5.0147    1.5858 H   0  0  0  0  0  0  0  0  0  0  0  0
   -2.4793   -5.7782    1.6134 H   0  0  0  0  0  0  0  0  0  0  0  0
   -1.9355   -4.9090    0.1662 H   0  0  0  0  0  0  0  0  0  0  0  0
   -3.4809   -4.3611    3.8915 N   0  0  0  0  0  0  0  0  0  0  0  0
   -3.6364   -4.5042    5.3203 C   0  0  0  0  0  0  0  0  0  0  0  0
   -4.1587   -4.8231    3.2924 H   0  0  0  0  0  0  0  0  0  0  0  0
   -3.0800   -5.3889    5.6634 H   0  0  0  0  0  0  0  0  0  0  0  0
   -3.2454   -3.6075    5.8231 H   0  0  0  0  0  0  0  0  0  0  0  0
   -4.7026   -4.6250    5.5626 H   0  0  0  0  0  0  0  0  0  0  0  0
  1  3  1  0  0  0  0
  1  7  1  0  0  0  0
  1  2  2  0  0  0  0
 32 33  1  0  0  0  0
 33 41  1  0  0  0  0
 33 34  2  0  0  0  0
  8  9  1  0  0  0  0
  9 17  1  0  0  0  0
  9 10  2  0  0  0  0
 18 19  1  0  0  0  0
 19 31  1  0  0  0  0
 19 20  2  0  0  0  0
 32 35  1  0  0  0  0
  8 11  1  0  0  0  0
 21 23  1  0  0  0  0
 41 42  1  0  0  0  0
 31 32  1  0  0  0  0
  7  8  1  0  0  0  0
 18 21  1  0  0  0  0
 17 18  1  0  0  0  0
 21 22  1  0  0  0  0
  3  4  1  0  0  0  0
  3  5  1  0  0  0  0
  3  6  1  0  0  0  0
 35 38  1  0  0  0  0
 35 39  1  0  0  0  0
 35 40  1  0  0  0  0
 11 14  1  0  0  0  0
 11 15  1  0  0  0  0
 11 16  1  0  0  0  0
 23 28  1  0  0  0  0
 23 29  1  0  0  0  0
 23 30  1  0  0  0  0
 42 44  1  0  0  0  0
 42 45  1  0  0  0  0
 42 46  1  0  0  0  0
 32 37  1  0  0  0  0
  8 13  1  0  0  0  0
 18 25  1  0  0  0  0
 21 26  1  0  0  0  0
 41 43  1  0  0  0  0
  7 12  1  0  0  0  0
 31 36  1  0  0  0  0
 17 24  1  0  0  0  0
 22 27  1  0  0  0  0
M  END
$$$$

  -OEChem-05262214473D

 46 45  0     1  0  0  0  0  0999 V2000
   -4.6700    2.7214    1.5150 C   0  0  0  0  0  0  0  0  0  0  0  0
   -5.4532    2.5715    0.5845 O   0  0  0  0  0  0  0  0  0  0  0  0
   -5.0996    3.4865    2.7226 C   0  0  0  0  0  0  0  0  0  0  0  0
   -4.8796    4.5629    2.6387 H   0  0  0  0  0  0  0  0  0  0  0  0
   -6.1861    3.4241    2.8954 H   0  0  0  0  0  0  0  0  0  0  0  0
   -4.6369    3.1693    3.6708 H   0  0  0  0  0  0  0  0  0  0  0  0
   -3.3731    2.2391    1.5790 N   0  0  0  0  0  0  0  0  0  0  0  0
   -2.7599    1.4751    0.5247 C   0  0  2  0  0  0  0  0  0  0  0  0
   -1.5143    0.8067    1.0915 C   0  0  0  0  0  0  0  0  0  0  0  0
   -0.9247    1.2213    2.0872 O   0  0  0  0  0  0  0  0  0  0  0  0
   -2.4106    2.3553   -0.6653 C   0  0  0  0  0  0  0  0  0  0  0  0
   -2.8254    2.4352    2.4150 H   0  0  0  0  0  0  0  0  0  0  0  0
   -3.4836    0.7082    0.2278 H   0  0  0  0  0  0  0  0  0  0  0  0
   -1.6866    3.1298   -0.3871 H   0  0  0  0  0  0  0  0  0  0  0  0
   -1.9704    1.7677   -1.4777 H   0  0  0  0  0  0  0  0  0  0  0  0
   -3.3030    2.8584   -1.0531 H   0  0  0  0  0  0  0  0  0  0  0  0
   -1.1107   -0.2839    0.3303 N   0  0  0  0  0  0  0  0  0  0  0  0
    0.0490   -1.0750    0.6539 C   0  0  2  0  0  0  0  0  0  0  0  0
   -0.4427   -2.3922    1.2469 C   0  0  0  0  0  0  0  0  0  0  0  0
    0.2971   -3.1829    1.8289 O   0  0  0  0  0  0  0  0  0  0  0  0
    1.0149   -0.3533    1.6049 C   0  0  2  0  0  0  0  0  0  0  0  0
    0.3743   -0.0552    2.8444 O   0  0  0  0  0  0  0  0  0  0  0  0
    1.5290    0.9565    1.0196 C   0  0  0  0  0  0  0  0  0  0  0  0
   -1.6733   -0.5660   -0.4691 H   0  0  0  0  0  0  0  0  0  0  0  0
    0.5520   -1.2914   -0.2965 H   0  0  0  0  0  0  0  0  0  0  0  0
    1.8759   -0.9933    1.8298 H   0  0  0  0  0  0  0  0  0  0  0  0
    1.0478    0.3509    3.4110 H   0  0  0  0  0  0  0  0  0  0  0  0
    0.7055    1.6363    0.7757 H   0  0  0  0  0  0  0  0  0  0  0  0
    2.1233    0.7829    0.1175 H   0  0  0  0  0  0  0  0  0  0  0  0
    2.1545    1.4784    1.7522 H   0  0  0  0  0  0  0  0  0  0  0  0
   -1.7931   -2.6026    1.0064 N   0  0  0  0  0  0  0  0  0  0  0  0
   -2.4834   -3.7943    1.4407 C   0  0  2  0  0  0  0  0  0  0  0  0
   -2.7846   -3.6483    2.9264 C   0  0  0  0  0  0  0  0  0  0  0  0
   -2.1550   -2.8966    3.6678 O   0  0  0  0  0  0  0  0  0  0  0  0
   -1.6554   -5.0417    1.1739 C   0  0  0  0  0  0  0  0  0  0  0  0
   -2.3164   -1.8906    0.5053 H   0  0  0  0  0  0  0  0  0  0  0  0
   -3.4232   -3.8377    0.8795 H   0  0  0  0  0  0  0  0  0  0  0  0
   -0.7098   -5.0162    1.7278 H   0  0  0  0  0  0  0  0  0  0  0  0
   -2.1920   -5.9466    1.4776 H   0  0  0  0  0  0  0  0  0  0  0  0
   -1.4145   -5.1292    0.1090 H   0  0  0  0  0  0  0  0  0  0  0  0
   -3.8109   -4.4881    3.3359 N   0  0  0  0  0  0  0  0  0  0  0  0
   -4.2739   -4.5442    4.7028 C   0  0  0  0  0  0  0  0  0  0  0  0
   -4.2894   -5.0638    2.6494 H   0  0  0  0  0  0  0  0  0  0  0  0
   -3.7320   -5.3353    5.2419 H   0  0  0  0  0  0  0  0  0  0  0  0
   -4.0910   -3.5760    5.1918 H   0  0  0  0  0  0  0  0  0  0  0  0
   -5.3517   -4.7639    4.7160 H   0  0  0  0  0  0  0  0  0  0  0  0
  1  3  1  0  0  0  0
  1  7  1  0  0  0  0
  1  2  2  0  0  0  0
 32 33  1  0  0  0  0
 33 41  1  0  0  0  0
 33 34  2  0  0  0  0
  8  9  1  0  0  0  0
  9 17  1  0  0  0  0
  9 10  2  0  0  0  0
 18 19  1  0  0  0  0
 19 31  1  0  0  0  0
 19 20  2  0  0  0  0
 32 35  1  0  0  0  0
  8 11  1  0  0  0  0
 21 23  1  0  0  0  0
 41 42  1  0  0  0  0
 31 32  1  0  0  0  0
  7  8  1  0  0  0  0
 18 21  1  0  0  0  0
 17 18  1  0  0  0  0
 21 22  1  0  0  0  0
  3  4  1  0  0  0  0
  3  5  1  0  0  0  0
  3  6  1  0  0  0  0
 35 38  1  0  0  0  0
 35 39  1  0  0  0  0
 35 40  1  0  0  0  0
 11 14  1  0  0  0  0
 11 15  1  0  0  0  0
 11 16  1  0  0  0  0
 23 28  1  0  0  0  0
 23 29  1  0  0  0  0
 23 30  1  0  0  0  0
 42 44  1  0  0  0  0
 42 45  1  0  0  0  0
 42 46  1  0  0  0  0
 32 37  1  0  0  0  0
  8 13  1  0  0  0  0
 18 25  1  0  0  0  0
 21 26  1  0  0  0  0
 41 43  1  0  0  0  0
  7 12  1  0  0  0  0
 31 36  1  0  0  0  0
 17 24  1  0  0  0  0
 22 27  1  0  0  0  0
M  END
$$$$

  -OEChem-05262214473D

 46 45  0     1  0  0  0  0  0999 V2000
   -4.6700    2.7214    1.5150 C   0  0  0  0  0  0  0  0  0  0  0  0
   -5.4532    2.5715    0.5845 O   0  0  0  0  0  0  0  0  0  0  0  0
   -5.0996    3.4865    2.7226 C   0  0  0  0  0  0  0  0  0  0  0  0
   -4.8796    4.5629    2.6387 H   0  0  0  0  0  0  0  0  0  0  0  0
   -6.1861    3.4241    2.8954 H   0  0  0  0  0  0  0  0  0  0  0  0
   -4.6369    3.1693    3.6708 H   0  0  0  0  0  0  0  0  0  0  0  0
   -3.3731    2.2391    1.5790 N   0  0  0  0  0  0  0  0  0  0  0  0
   -2.7599    1.4751    0.5247 C   0  0  2  0  0  0  0  0  0  0  0  0
   -1.5143    0.8067    1.0915 C   0  0  0  0  0  0  0  0  0  0  0  0
   -0.9247    1.2213    2.0872 O   0  0  0  0  0  0  0  0  0  0  0  0
   -2.4106    2.3553   -0.6653 C   0  0  0  0  0  0  0  0  0  0  0  0
   -2.8254    2.4352    2.4150 H   0  0  0  0  0  0  0  0  0  0  0  0
   -3.4836    0.7082    0.2278 H   0  0  0  0  0  0  0  0  0  0  0  0
   -1.6866    3.1298   -0.3871 H   0  0  0  0  0  0  0  0  0  0  0  0
   -1.9704    1.7677   -1.4777 H   0  0  0  0  0  0  0  0  0  0  0  0
   -3.3030    2.8584   -1.0531 H   0  0  0  0  0  0  0  0  0  0  0  0
   -1.1107   -0.2839    0.3303 N   0  0  0  0  0  0  0  0  0  0  0  0
    0.0490   -1.0750    0.6539 C   0  0  2  0  0  0  0  0  0  0  0  0
   -0.4427   -2.3922    1.2469 C   0  0  0  0  0  0  0  0  0  0  0  0
    0.2141   -3.0527    2.0492 O   0  0  0  0  0  0  0  0  0  0  0  0
    1.0149   -0.3533    1.6049 C   0  0  2  0  0  0  0  0  0  0  0  0
    0.3743   -0.0552    2.8444 O   0  0  0  0  0  0  0  0  0  0  0  0
    1.5290    0.9565    1.0196 C   0  0  0  0  0  0  0  0  0  0  0  0
   -1.6733   -0.5660   -0.4691 H   0  0  0  0  0  0  0  0  0  0  0  0
    0.5520   -1.2914   -0.2965 H   0  0  0  0  0  0  0  0  0  0  0  0
    1.8759   -0.9933    1.8298 H   0  0  0  0  0  0  0  0  0  0  0  0
    1.0478    0.3509    3.4110 H   0  0  0  0  0  0  0  0  0  0  0  0
    0.7055    1.6363    0.7757 H   0  0  0  0  0  0  0  0  0  0  0  0
    2.1233    0.7829    0.1175 H   0  0  0  0  0  0  0  0  0  0  0  0
    2.1545    1.4784    1.7522 H   0  0  0  0  0  0  0  0  0  0  0  0
   -1.6780   -2.7667    0.7374 N   0  0  0  0  0  0  0  0  0  0  0  0
   -2.3375   -3.9928    1.1208 C   0  0  2  0  0  0  0  0  0  0  0  0
   -2.9810   -3.7743    2.4838 C   0  0  0  0  0  0  0  0  0  0  0  0
   -2.6079   -2.9064    3.2704 O   0  0  0  0  0  0  0  0  0  0  0  0
   -1.3604   -5.1574    1.1616 C   0  0  0  0  0  0  0  0  0  0  0  0
   -2.1360   -2.1545    0.0686 H   0  0  0  0  0  0  0  0  0  0  0  0
   -3.1169   -4.1796    0.3740 H   0  0  0  0  0  0  0  0  0  0  0  0
   -0.5721   -4.9882    1.9042 H   0  0  0  0  0  0  0  0  0  0  0  0
   -1.8673   -6.0916    1.4246 H   0  0  0  0  0  0  0  0  0  0  0  0
   -0.8764   -5.2943    0.1885 H   0  0  0  0  0  0  0  0  0  0  0  0
   -3.9927   -4.6903    2.7361 N   0  0  0  0  0  0  0  0  0  0  0  0
   -4.7477   -4.6985    3.9674 C   0  0  0  0  0  0  0  0  0  0  0  0
   -4.2479   -5.3630    2.0192 H   0  0  0  0  0  0  0  0  0  0  0  0
   -4.2730   -5.3842    4.6846 H   0  0  0  0  0  0  0  0  0  0  0  0
   -4.7699   -3.6833    4.3905 H   0  0  0  0  0  0  0  0  0  0  0  0
   -5.7755   -5.0339    3.7648 H   0  0  0  0  0  0  0  0  0  0  0  0
  1  3  1  0  0  0  0
  1  7  1  0  0  0  0
  1  2  2  0  0  0  0
 32 33  1  0  0  0  0
 33 41  1  0  0  0  0
 33 34  2  0  0  0  0
  8  9  1  0  0  0  0
  9 17  1  0  0  0  0
  9 10  2  0  0  0  0
 18 19  1  0  0  0  0
 19 31  1  0  0  0  0
 19 20  2  0  0  0  0
 32 35  1  0  0  0  0
  8 11  1  0  0  0  0
 21 23  1  0  0  0  0
 41 42  1  0  0  0  0
 31 32  1  0  0  0  0
  7  8  1  0  0  0  0
 18 21  1  0  0  0  0
 17 18  1  0  0  0  0
 21 22  1  0  0  0  0
  3  4  1  0  0  0  0
  3  5  1  0  0  0  0
  3  6  1  0  0  0  0
 35 38  1  0  0  0  0
 35 39  1  0  0  0  0
 35 40  1  0  0  0  0
 11 14  1  0  0  0  0
 11 15  1  0  0  0  0
 11 16  1  0  0  0  0
 23 28  1  0  0  0  0
 23 29  1  0  0  0  0
 23 30  1  0  0  0  0
 42 44  1  0  0  0  0
 42 45  1  0  0  0  0
 42 46  1  0  0  0  0
 32 37  1  0  0  0  0
  8 13  1  0  0  0  0
 18 25  1  0  0  0  0
 21 26  1  0  0  0  0
 41 43  1  0  0  0  0
  7 12  1  0  0  0  0
 31 36  1  0  0  0  0
 17 24  1  0  0  0  0
 22 27  1  0  0  0  0
M  END
$$$$

  -OEChem-05262214473D

 46 45  0     1  0  0  0  0  0999 V2000
   -4.6700    2.7214    1.5150 C   0  0  0  0  0  0  0  0  0  0  0  0
   -5.4532    2.5715    0.5845 O   0  0  0  0  0  0  0  0  0  0  0  0
   -5.0996    3.4865    2.7226 C   0  0  0  0  0  0  0  0  0  0  0  0
   -4.8796    4.5629    2.6387 H   0  0  0  0  0  0  0  0  0  0  0  0
   -6.1861    3.4241    2.8954 H   0  0  0  0  0  0  0  0  0  0  0  0
   -4.6369    3.1693    3.6708 H   0  0  0  0  0  0  0  0  0  0  0  0
   -3.3731    2.2391    1.5790 N   0  0  0  0  0  0  0  0  0  0  0  0
   -2.7599    1.4751    0.5247 C   0  0  2  0  0  0  0  0  0  0  0  0
   -1.5143    0.8067    1.0915 C   0  0  0  0  0  0  0  0  0  0  0  0
   -0.9247    1.2213    2.0872 O   0  0  0  0  0  0  0  0  0  0  0  0
   -2.4106    2.3553   -0.6653 C   0  0  0  0  0  0  0  0  0  0  0  0
   -2.8254    2.4352    2.4150 H   0  0  0  0  0  0  0  0  0  0  0  0
   -3.4836    0.7082    0.2278 H   0  0  0  0  0  0  0  0  0  0  0  0
   -1.6866    3.1298   -0.3871 H   0  0  0  0  0  0  0  0  0  0  0  0
   -1.9704    1.7677   -1.4777 H   0  0  0  0  0  0  0  0  0  0  0  0
   -3.3030    2.8584   -1.0531 H   0  0  0  0  0  0  0  0  0  0  0  0
   -1.1107   -0.2839    0.3303 N   0  0  0  0  0  0  0  0  0  0  0  0
    0.0490   -1.0750    0.6539 C   0  0  2  0  0  0  0  0  0  0  0  0
   -0.4427   -2.3922    1.2469 C   0  0  0  0  0  0  0  0  0  0  0  0
    0.0715   -2.9170    2.2326 O   0  0  0  0  0  0  0  0  0  0  0  0
    1.0149   -0.3533    1.6049 C   0  0  2  0  0  0  0  0  0  0  0  0
    0.3743   -0.0552    2.8444 O   0  0  0  0  0  0  0  0  0  0  0  0
    1.5290    0.9565    1.0196 C   0  0  0  0  0  0  0  0  0  0  0  0
   -1.6733   -0.5660   -0.4691 H   0  0  0  0  0  0  0  0  0  0  0  0
    0.5520   -1.2914   -0.2965 H   0  0  0  0  0  0  0  0  0  0  0  0
    1.8759   -0.9933    1.8298 H   0  0  0  0  0  0  0  0  0  0  0  0
    1.0478    0.3509    3.4110 H   0  0  0  0  0  0  0  0  0  0  0  0
    0.7055    1.6363    0.7757 H   0  0  0  0  0  0  0  0  0  0  0  0
    2.1233    0.7829    0.1175 H   0  0  0  0  0  0  0  0  0  0  0  0
    2.1545    1.4784    1.7522 H   0  0  0  0  0  0  0  0  0  0  0  0
   -1.4901   -2.9361    0.5169 N   0  0  0  0  0  0  0  0  0  0  0  0
   -2.1051   -4.1965    0.8610 C   0  0  2  0  0  0  0  0  0  0  0  0
   -3.0592   -3.9526    2.0228 C   0  0  0  0  0  0  0  0  0  0  0  0
   -2.9556   -2.9947    2.7861 O   0  0  0  0  0  0  0  0  0  0  0  0
   -1.0610   -5.2405    1.2252 C   0  0  0  0  0  0  0  0  0  0  0  0
   -1.8377   -2.4278   -0.2909 H   0  0  0  0  0  0  0  0  0  0  0  0
   -2.6736   -4.5212   -0.0172 H   0  0  0  0  0  0  0  0  0  0  0  0
   -0.4813   -4.9326    2.1030 H   0  0  0  0  0  0  0  0  0  0  0  0
   -1.5272   -6.2035    1.4581 H   0  0  0  0  0  0  0  0  0  0  0  0
   -0.3578   -5.3930    0.3993 H   0  0  0  0  0  0  0  0  0  0  0  0
   -4.0140   -4.9538    2.1330 N   0  0  0  0  0  0  0  0  0  0  0  0
   -5.0255   -4.9565    3.1640 C   0  0  0  0  0  0  0  0  0  0  0  0
   -4.0369   -5.7005    1.4447 H   0  0  0  0  0  0  0  0  0  0  0  0
   -4.6661   -5.5324    4.0295 H   0  0  0  0  0  0  0  0  0  0  0  0
   -5.2359   -3.9221    3.4737 H   0  0  0  0  0  0  0  0  0  0  0  0
   -5.9453   -5.4167    2.7738 H   0  0  0  0  0  0  0  0  0  0  0  0
  1  3  1  0  0  0  0
  1  7  1  0  0  0  0
  1  2  2  0  0  0  0
 32 33  1  0  0  0  0
 33 41  1  0  0  0  0
 33 34  2  0  0  0  0
  8  9  1  0  0  0  0
  9 17  1  0  0  0  0
  9 10  2  0  0  0  0
 18 19  1  0  0  0  0
 19 31  1  0  0  0  0
 19 20  2  0  0  0  0
 32 35  1  0  0  0  0
  8 11  1  0  0  0  0
 21 23  1  0  0  0  0
 41 42  1  0  0  0  0
 31 32  1  0  0  0  0
  7  8  1  0  0  0  0
 18 21  1  0  0  0  0
 17 18  1  0  0  0  0
 21 22  1  0  0  0  0
  3  4  1  0  0  0  0
  3  5  1  0  0  0  0
  3  6  1  0  0  0  0
 35 38  1  0  0  0  0
 35 39  1  0  0  0  0
 35 40  1  0  0  0  0
 11 14  1  0  0  0  0
 11 15  1  0  0  0  0
 11 16  1  0  0  0  0
 23 28  1  0  0  0  0
 23 29  1  0  0  0  0
 23 30  1  0  0  0  0
 42 44  1  0  0  0  0
 42 45  1  0  0  0  0
 42 46  1  0  0  0  0
 32 37  1  0  0  0  0
  8 13  1  0  0  0  0
 18 25  1  0  0  0  0
 21 26  1  0  0  0  0
 41 43  1  0  0  0  0
  7 12  1  0  0  0  0
 31 36  1  0  0  0  0
 17 24  1  0  0  0  0
 22 27  1  0  0  0  0
M  END
$$$$

  -OEChem-05262214473D

 46 45  0     1  0  0  0  0  0999 V2000
   -4.6700    2.7214    1.5150 C   0  0  0  0  0  0  0  0  0  0  0  0
   -5.4532    2.5715    0.5845 O   0  0  0  0  0  0  0  0  0  0  0  0
   -5.0996    3.4865    2.7226 C   0  0  0  0  0  0  0  0  0  0  0  0
   -4.8796    4.5629    2.6387 H   0  0  0  0  0  0  0  0  0  0  0  0
   -6.1861    3.4241    2.8954 H   0  0  0  0  0  0  0  0  0  0  0  0
   -4.6369    3.1693    3.6708 H   0  0  0  0  0  0  0  0  0  0  0  0
   -3.3731    2.2391    1.5790 N   0  0  0  0  0  0  0  0  0  0  0  0
   -2.7599    1.4751    0.5247 C   0  0  2  0  0  0  0  0  0  0  0  0
   -1.5143    0.8067    1.0915 C   0  0  0  0  0  0  0  0  0  0  0  0
   -0.9247    1.2213    2.0872 O   0  0  0  0  0  0  0  0  0  0  0  0
   -2.4106    2.3553   -0.6653 C   0  0  0  0  0  0  0  0  0  0  0  0
   -2.8254    2.4352    2.4150 H   0  0  0  0  0  0  0  0  0  0  0  0
   -3.4836    0.7082    0.2278 H   0  0  0  0  0  0  0  0  0  0  0  0
   -1.6866    3.1298   -0.3871 H   0  0  0  0  0  0  0  0  0  0  0  0
   -1.9704    1.7677   -1.4777 H   0  0  0  0  0  0  0  0  0  0  0  0
   -3.3030    2.8584   -1.0531 H   0  0  0  0  0  0  0  0  0  0  0  0
   -1.1107   -0.2839    0.3303 N   0  0  0  0  0  0  0  0  0  0  0  0
    0.0490   -1.0750    0.6539 C   0  0  2  0  0  0  0  0  0  0  0  0
   -0.4427   -2.3922    1.2469 C   0  0  0  0  0  0  0  0  0  0  0  0
   -0.1208   -2.7849    2.3665 O   0  0  0  0  0  0  0  0  0  0  0  0
    1.0149   -0.3533    1.6049 C   0  0  2  0  0  0  0  0  0  0  0  0
    0.3743   -0.0552    2.8444 O   0  0  0  0  0  0  0  0  0  0  0  0
    1.5290    0.9565    1.0196 C   0  0  0  0  0  0  0  0  0  0  0  0
   -1.6733   -0.5660   -0.4691 H   0  0  0  0  0  0  0  0  0  0  0  0
    0.5520   -1.2914   -0.2965 H   0  0  0  0  0  0  0  0  0  0  0  0
    1.8759   -0.9933    1.8298 H   0  0  0  0  0  0  0  0  0  0  0  0
    1.0478    0.3509    3.4110 H   0  0  0  0  0  0  0  0  0  0  0  0
    0.7055    1.6363    0.7757 H   0  0  0  0  0  0  0  0  0  0  0  0
    2.1233    0.7829    0.1175 H   0  0  0  0  0  0  0  0  0  0  0  0
    2.1545    1.4784    1.7522 H   0  0  0  0  0  0  0  0  0  0  0  0
   -1.2424   -3.0992    0.3601 N   0  0  0  0  0  0  0  0  0  0  0  0
   -1.8021   -4.3916    0.6790 C   0  0  2  0  0  0  0  0  0  0  0  0
   -3.0138   -4.1712    1.5749 C   0  0  0  0  0  0  0  0  0  0  0  0
   -3.1745   -3.1552    2.2480 O   0  0  0  0  0  0  0  0  0  0  0  0
   -0.7776   -5.2854    1.3604 C   0  0  0  0  0  0  0  0  0  0  0  0
   -1.4417   -2.6917   -0.5488 H   0  0  0  0  0  0  0  0  0  0  0  0
   -2.1237   -4.8393   -0.2676 H   0  0  0  0  0  0  0  0  0  0  0  0
   -0.4436   -4.8532    2.3107 H   0  0  0  0  0  0  0  0  0  0  0  0
   -1.1949   -6.2746    1.5758 H   0  0  0  0  0  0  0  0  0  0  0  0
    0.1060   -5.4186    0.7270 H   0  0  0  0  0  0  0  0  0  0  0  0
   -3.8733   -5.2609    1.5677 N   0  0  0  0  0  0  0  0  0  0  0  0
   -5.0884   -5.3006    2.3474 C   0  0  0  0  0  0  0  0  0  0  0  0
   -3.6707   -6.0531    0.9651 H   0  0  0  0  0  0  0  0  0  0  0  0
   -4.8846   -5.7697    3.3213 H   0  0  0  0  0  0  0  0  0  0  0  0
   -5.4571   -4.2761    2.5040 H   0  0  0  0  0  0  0  0  0  0  0  0
   -5.8494   -5.8861    1.8106 H   0  0  0  0  0  0  0  0  0  0  0  0
  1  3  1  0  0  0  0
  1  7  1  0  0  0  0
  1  2  2  0  0  0  0
 32 33  1  0  0  0  0
 33 41  1  0  0  0  0
 33 34  2  0  0  0  0
  8  9  1  0  0  0  0
  9 17  1  0  0  0  0
  9 10  2  0  0  0  0
 18 19  1  0  0  0  0
 19 31  1  0  0  0  0
 19 20  2  0  0  0  0
 32 35  1  0  0  0  0
  8 11  1  0  0  0  0
 21 23  1  0  0  0  0
 41 42  1  0  0  0  0
 31 32  1  0  0  0  0
  7  8  1  0  0  0  0
 18 21  1  0  0  0  0
 17 18  1  0  0  0  0
 21 22  1  0  0  0  0
  3  4  1  0  0  0  0
  3  5  1  0  0  0  0
  3  6  1  0  0  0  0
 35 38  1  0  0  0  0
 35 39  1  0  0  0  0
 35 40  1  0  0  0  0
 11 14  1  0  0  0  0
 11 15  1  0  0  0  0
 11 16  1  0  0  0  0
 23 28  1  0  0  0  0
 23 29  1  0  0  0  0
 23 30  1  0  0  0  0
 42 44  1  0  0  0  0
 42 45  1  0  0  0  0
 42 46  1  0  0  0  0
 32 37  1  0  0  0  0
  8 13  1  0  0  0  0
 18 25  1  0  0  0  0
 21 26  1  0  0  0  0
 41 43  1  0  0  0  0
  7 12  1  0  0  0  0
 31 36  1  0  0  0  0
 17 24  1  0  0  0  0
 22 27  1  0  0  0  0
M  END
$$$$

  -OEChem-05262214473D

 46 45  0     1  0  0  0  0  0999 V2000
   -4.6700    2.7214    1.5150 C   0  0  0  0  0  0  0  0  0  0  0  0
   -5.4532    2.5715    0.5845 O   0  0  0  0  0  0  0  0  0  0  0  0
   -5.0996    3.4865    2.7226 C   0  0  0  0  0  0  0  0  0  0  0  0
   -4.8796    4.5629    2.6387 H   0  0  0  0  0  0  0  0  0  0  0  0
   -6.1861    3.4241    2.8954 H   0  0  0  0  0  0  0  0  0  0  0  0
   -4.6369    3.1693    3.6708 H   0  0  0  0  0  0  0  0  0  0  0  0
   -3.3731    2.2391    1.5790 N   0  0  0  0  0  0  0  0  0  0  0  0
   -2.7599    1.4751    0.5247 C   0  0  2  0  0  0  0  0  0  0  0  0
   -1.5143    0.8067    1.0915 C   0  0  0  0  0  0  0  0  0  0  0  0
   -0.9247    1.2213    2.0872 O   0  0  0  0  0  0  0  0  0  0  0  0
   -2.4106    2.3553   -0.6653 C   0  0  0  0  0  0  0  0  0  0  0  0
   -2.8254    2.4352    2.4150 H   0  0  0  0  0  0  0  0  0  0  0  0
   -3.4836    0.7082    0.2278 H   0  0  0  0  0  0  0  0  0  0  0  0
   -1.6866    3.1298   -0.3871 H   0  0  0  0  0  0  0  0  0  0  0  0
   -1.9704    1.7677   -1.4777 H   0  0  0  0  0  0  0  0  0  0  0  0
   -3.3030    2.8584   -1.0531 H   0  0  0  0  0  0  0  0  0  0  0  0
   -1.1107   -0.2839    0.3303 N   0  0  0  0  0  0  0  0  0  0  0  0
    0.0490   -1.0750    0.6539 C   0  0  2  0  0  0  0  0  0  0  0  0
   -0.4427   -2.3922    1.2469 C   0  0  0  0  0  0  0  0  0  0  0  0
   -0.3497   -2.6654    2.4419 O   0  0  0  0  0  0  0  0  0  0  0  0
    1.0149   -0.3533    1.6049 C   0  0  2  0  0  0  0  0  0  0  0  0
    0.3743   -0.0552    2.8444 O   0  0  0  0  0  0  0  0  0  0  0  0
    1.5290    0.9565    1.0196 C   0  0  0  0  0  0  0  0  0  0  0  0
   -1.6733   -0.5660   -0.4691 H   0  0  0  0  0  0  0  0  0  0  0  0
    0.5520   -1.2914   -0.2965 H   0  0  0  0  0  0  0  0  0  0  0  0
    1.8759   -0.9933    1.8298 H   0  0  0  0  0  0  0  0  0  0  0  0
    1.0478    0.3509    3.4110 H   0  0  0  0  0  0  0  0  0  0  0  0
    0.7055    1.6363    0.7757 H   0  0  0  0  0  0  0  0  0  0  0  0
    2.1233    0.7829    0.1175 H   0  0  0  0  0  0  0  0  0  0  0  0
    2.1545    1.4784    1.7522 H   0  0  0  0  0  0  0  0  0  0  0  0
   -0.9516   -3.2449    0.2776 N   0  0  0  0  0  0  0  0  0  0  0  0
   -1.4491   -4.5647    0.5872 C   0  0  2  0  0  0  0  0  0  0  0  0
   -2.8479   -4.4151    1.1707 C   0  0  0  0  0  0  0  0  0  0  0  0
   -3.2495   -3.3772    1.6928 O   0  0  0  0  0  0  0  0  0  0  0  0
   -0.5297   -5.2890    1.5581 C   0  0  0  0  0  0  0  0  0  0  0  0
   -0.9751   -2.9283   -0.6874 H   0  0  0  0  0  0  0  0  0  0  0  0
   -1.5046   -5.1121   -0.3601 H   0  0  0  0  0  0  0  0  0  0  0  0
   -0.4615   -4.7554    2.5132 H   0  0  0  0  0  0  0  0  0  0  0  0
   -0.8931   -6.3000    1.7696 H   0  0  0  0  0  0  0  0  0  0  0  0
    0.4834   -5.3693    1.1493 H   0  0  0  0  0  0  0  0  0  0  0  0
   -3.5802   -5.5905    1.0787 N   0  0  0  0  0  0  0  0  0  0  0  0
   -4.9321   -5.7075    1.5733 C   0  0  0  0  0  0  0  0  0  0  0  0
   -3.1745   -6.3969    0.6130 H   0  0  0  0  0  0  0  0  0  0  0  0
   -4.9135   -6.0799    2.6082 H   0  0  0  0  0  0  0  0  0  0  0  0
   -5.4185   -4.7212    1.5474 H   0  0  0  0  0  0  0  0  0  0  0  0
   -5.4943   -6.4103    0.9408 H   0  0  0  0  0  0  0  0  0  0  0  0
  1  3  1  0  0  0  0
  1  7  1  0  0  0  0
  1  2  2  0  0  0  0
 32 33  1  0  0  0  0
 33 41  1  0  0  0  0
 33 34  2  0  0  0  0
  8  9  1  0  0  0  0
  9 17  1  0  0  0  0
  9 10  2  0  0  0  0
 18 19  1  0  0  0  0
 19 31  1  0  0  0  0
 19 20  2  0  0  0  0
 32 35  1  0  0  0  0
  8 11  1  0  0  0  0
 21 23  1  0  0  0  0
 41 42  1  0  0  0  0
 31 32  1  0  0  0  0
  7  8  1  0  0  0  0
 18 21  1  0  0  0  0
 17 18  1  0  0  0  0
 21 22  1  0  0  0  0
  3  4  1  0  0  0  0
  3  5  1  0  0  0  0
  3  6  1  0  0  0  0
 35 38  1  0  0  0  0
 35 39  1  0  0  0  0
 35 40  1  0  0  0  0
 11 14  1  0  0  0  0
 11 15  1  0  0  0  0
 11 16  1  0  0  0  0
 23 28  1  0  0  0  0
 23 29  1  0  0  0  0
 23 30  1  0  0  0  0
 42 44  1  0  0  0  0
 42 45  1  0  0  0  0
 42 46  1  0  0  0  0
 32 37  1  0  0  0  0
  8 13  1  0  0  0  0
 18 25  1  0  0  0  0
 21 26  1  0  0  0  0
 41 43  1  0  0  0  0
  7 12  1  0  0  0  0
 31 36  1  0  0  0  0
 17 24  1  0  0  0  0
 22 27  1  0  0  0  0
M  END
$$$$

  -OEChem-05262214473D

 46 45  0     1  0  0  0  0  0999 V2000
   -4.6700    2.7214    1.5150 C   0  0  0  0  0  0  0  0  0  0  0  0
   -5.4532    2.5715    0.5845 O   0  0  0  0  0  0  0  0  0  0  0  0
   -5.0996    3.4865    2.7226 C   0  0  0  0  0  0  0  0  0  0  0  0
   -4.8796    4.5629    2.6387 H   0  0  0  0  0  0  0  0  0  0  0  0
   -6.1861    3.4241    2.8954 H   0  0  0  0  0  0  0  0  0  0  0  0
   -4.6369    3.1693    3.6708 H   0  0  0  0  0  0  0  0  0  0  0  0
   -3.3731    2.2391    1.5790 N   0  0  0  0  0  0  0  0  0  0  0  0
   -2.7599    1.4751    0.5247 C   0  0  2  0  0  0  0  0  0  0  0  0
   -1.5143    0.8067    1.0915 C   0  0  0  0  0  0  0  0  0  0  0  0
   -0.9247    1.2213    2.0872 O   0  0  0  0  0  0  0  0  0  0  0  0
   -2.4106    2.3553   -0.6653 C   0  0  0  0  0  0  0  0  0  0  0  0
   -2.8254    2.4352    2.4150 H   0  0  0  0  0  0  0  0  0  0  0  0
   -3.4836    0.7082    0.2278 H   0  0  0  0  0  0  0  0  0  0  0  0
   -1.6866    3.1298   -0.3871 H   0  0  0  0  0  0  0  0  0  0  0  0
   -1.9704    1.7677   -1.4777 H   0  0  0  0  0  0  0  0  0  0  0  0
   -3.3030    2.8584   -1.0531 H   0  0  0  0  0  0  0  0  0  0  0  0
   -1.1107   -0.2839    0.3303 N   0  0  0  0  0  0  0  0  0  0  0  0
    0.0490   -1.0750    0.6539 C   0  0  2  0  0  0  0  0  0  0  0  0
   -0.4427   -2.3922    1.2469 C   0  0  0  0  0  0  0  0  0  0  0  0
   -0.5998   -2.5668    2.4536 O   0  0  0  0  0  0  0  0  0  0  0  0
    1.0149   -0.3533    1.6049 C   0  0  2  0  0  0  0  0  0  0  0  0
    0.3743   -0.0552    2.8444 O   0  0  0  0  0  0  0  0  0  0  0  0
    1.5290    0.9565    1.0196 C   0  0  0  0  0  0  0  0  0  0  0  0
   -1.6733   -0.5660   -0.4691 H   0  0  0  0  0  0  0  0  0  0  0  0
    0.5520   -1.2914   -0.2965 H   0  0  0  0  0  0  0  0  0  0  0  0
    1.8759   -0.9933    1.8298 H   0  0  0  0  0  0  0  0  0  0  0  0
    1.0478    0.3509    3.4110 H   0  0  0  0  0  0  0  0  0  0  0  0
    0.7055    1.6363    0.7757 H   0  0  0  0  0  0  0  0  0  0  0  0
    2.1233    0.7829    0.1175 H   0  0  0  0  0  0  0  0  0  0  0  0
    2.1545    1.4784    1.7522 H   0  0  0  0  0  0  0  0  0  0  0  0
   -0.6377   -3.3633    0.2749 N   0  0  0  0  0  0  0  0  0  0  0  0
   -1.0702   -4.7041    0.5917 C   0  0  2  0  0  0  0  0  0  0  0  0
   -2.5728   -4.6678    0.8377 C   0  0  0  0  0  0  0  0  0  0  0  0
   -3.1755   -3.6455    1.1582 O   0  0  0  0  0  0  0  0  0  0  0  0
   -0.3339   -5.2510    1.8048 C   0  0  0  0  0  0  0  0  0  0  0  0
   -0.4696   -3.1215   -0.6972 H   0  0  0  0  0  0  0  0  0  0  0  0
   -0.8585   -5.3210   -0.2884 H   0  0  0  0  0  0  0  0  0  0  0  0
   -0.5339   -4.6458    2.6965 H   0  0  0  0  0  0  0  0  0  0  0  0
   -0.6424   -6.2780    2.0264 H   0  0  0  0  0  0  0  0  0  0  0  0
    0.7485   -5.2486    1.6374 H   0  0  0  0  0  0  0  0  0  0  0  0
   -3.1547   -5.9201    0.6993 N   0  0  0  0  0  0  0  0  0  0  0  0
   -4.5673   -6.1493    0.8944 C   0  0  0  0  0  0  0  0  0  0  0  0
   -2.5819   -6.7084    0.4125 H   0  0  0  0  0  0  0  0  0  0  0  0
   -4.7510   -6.4420    1.9388 H   0  0  0  0  0  0  0  0  0  0  0  0
   -5.1228   -5.2270    0.6691 H   0  0  0  0  0  0  0  0  0  0  0  0
   -4.9042   -6.9534    0.2237 H   0  0  0  0  0  0  0  0  0  0  0  0
  1  3  1  0  0  0  0
  1  7  1  0  0  0  0
  1  2  2  0  0  0  0
 32 33  1  0  0  0  0
 33 41  1  0  0  0  0
 33 34  2  0  0  0  0
  8  9  1  0  0  0  0
  9 17  1  0  0  0  0
  9 10  2  0  0  0  0
 18 19  1  0  0  0  0
 19 31  1  0  0  0  0
 19 20  2  0  0  0  0
 32 35  1  0  0  0  0
  8 11  1  0  0  0  0
 21 23  1  0  0  0  0
 41 42  1  0  0  0  0
 31 32  1  0  0  0  0
  7  8  1  0  0  0  0
 18 21  1  0  0  0  0
 17 18  1  0  0  0  0
 21 22  1  0  0  0  0
  3  4  1  0  0  0  0
  3  5  1  0  0  0  0
  3  6  1  0  0  0  0
 35 38  1  0  0  0  0
 35 39  1  0  0  0  0
 35 40  1  0  0  0  0
 11 14  1  0  0  0  0
 11 15  1  0  0  0  0
 11 16  1  0  0  0  0
 23 28  1  0  0  0  0
 23 29  1  0  0  0  0
 23 30  1  0  0  0  0
 42 44  1  0  0  0  0
 42 45  1  0  0  0  0
 42 46  1  0  0  0  0
 32 37  1  0  0  0  0
  8 13  1  0  0  0  0
 18 25  1  0  0  0  0
 21 26  1  0  0  0  0
 41 43  1  0  0  0  0
  7 12  1  0  0  0  0
 31 36  1  0  0  0  0
 17 24  1  0  0  0  0
 22 27  1  0  0  0  0
M  END
$$$$

  -OEChem-05262214473D

 46 45  0     1  0  0  0  0  0999 V2000
   -4.6700    2.7214    1.5150 C   0  0  0  0  0  0  0  0  0  0  0  0
   -5.4532    2.5715    0.5845 O   0  0  0  0  0  0  0  0  0  0  0  0
   -5.0996    3.4865    2.7226 C   0  0  0  0  0  0  0  0  0  0  0  0
   -4.8796    4.5629    2.6387 H   0  0  0  0  0  0  0  0  0  0  0  0
   -6.1861    3.4241    2.8954 H   0  0  0  0  0  0  0  0  0  0  0  0
   -4.6369    3.1693    3.6708 H   0  0  0  0  0  0  0  0  0  0  0  0
   -3.3731    2.2391    1.5790 N   0  0  0  0  0  0  0  0  0  0  0  0
   -2.7599    1.4751    0.5247 C   0  0  2  0  0  0  0  0  0  0  0  0
   -1.5143    0.8067    1.0915 C   0  0  0  0  0  0  0  0  0  0  0  0
   -0.9247    1.2213    2.0872 O   0  0  0  0  0  0  0  0  0  0  0  0
   -2.4106    2.3553   -0.6653 C   0  0  0  0  0  0  0  0  0  0  0  0
   -2.8254    2.4352    2.4150 H   0  0  0  0  0  0  0  0  0  0  0  0
   -3.4836    0.7082    0.2278 H   0  0  0  0  0  0  0  0  0  0  0  0
   -1.6866    3.1298   -0.3871 H   0  0  0  0  0  0  0  0  0  0  0  0
   -1.9704    1.7677   -1.4777 H   0  0  0  0  0  0  0  0  0  0  0  0
   -3.3030    2.8584   -1.0531 H   0  0  0  0  0  0  0  0  0  0  0  0
   -1.1107   -0.2839    0.3303 N   0  0  0  0  0  0  0  0  0  0  0  0
    0.0490   -1.0750    0.6539 C   0  0  2  0  0  0  0  0  0  0  0  0
   -0.4427   -2.3922    1.2469 C   0  0  0  0  0  0  0  0  0  0  0  0
   -0.8538   -2.4957    2.4009 O   0  0  0  0  0  0  0  0  0  0  0  0
    1.0149   -0.3533    1.6049 C   0  0  2  0  0  0  0  0  0  0  0  0
    0.3743   -0.0552    2.8444 O   0  0  0  0  0  0  0  0  0  0  0  0
    1.5290    0.9565    1.0196 C   0  0  0  0  0  0  0  0  0  0  0  0
   -1.6733   -0.5660   -0.4691 H   0  0  0  0  0  0  0  0  0  0  0  0
    0.5520   -1.2914   -0.2965 H   0  0  0  0  0  0  0  0  0  0  0  0
    1.8759   -0.9933    1.8298 H   0  0  0  0  0  0  0  0  0  0  0  0
    1.0478    0.3509    3.4110 H   0  0  0  0  0  0  0  0  0  0  0  0
    0.7055    1.6363    0.7757 H   0  0  0  0  0  0  0  0  0  0  0  0
    2.1233    0.7829    0.1175 H   0  0  0  0  0  0  0  0  0  0  0  0
    2.1545    1.4784    1.7522 H   0  0  0  0  0  0  0  0  0  0  0  0
   -0.3220   -3.4462    0.3524 N   0  0  0  0  0  0  0  0  0  0  0  0
   -0.6913   -4.8003    0.6924 C   0  0  2  0  0  0  0  0  0  0  0  0
   -2.2073   -4.9119    0.5985 C   0  0  0  0  0  0  0  0  0  0  0  0
   -2.9577   -3.9418    0.6808 O   0  0  0  0  0  0  0  0  0  0  0  0
   -0.2038   -5.1740    2.0836 C   0  0  0  0  0  0  0  0  0  0  0  0
    0.0403   -3.2580   -0.5777 H   0  0  0  0  0  0  0  0  0  0  0  0
   -0.2294   -5.4518   -0.0574 H   0  0  0  0  0  0  0  0  0  0  0  0
   -0.6559   -4.5319    2.8483 H   0  0  0  0  0  0  0  0  0  0  0  0
   -0.4597   -6.2101    2.3286 H   0  0  0  0  0  0  0  0  0  0  0  0
    0.8835   -5.0645    2.1581 H   0  0  0  0  0  0  0  0  0  0  0  0
   -2.6258   -6.2274    0.4554 N   0  0  0  0  0  0  0  0  0  0  0  0
   -4.0188   -6.5960    0.3571 C   0  0  0  0  0  0  0  0  0  0  0  0
   -1.9333   -6.9664    0.3772 H   0  0  0  0  0  0  0  0  0  0  0  0
   -4.4080   -6.8312    1.3587 H   0  0  0  0  0  0  0  0  0  0  0  0
   -4.5901   -5.7591   -0.0709 H   0  0  0  0  0  0  0  0  0  0  0  0
   -4.1195   -7.4785   -0.2918 H   0  0  0  0  0  0  0  0  0  0  0  0
  1  3  1  0  0  0  0
  1  7  1  0  0  0  0
  1  2  2  0  0  0  0
 32 33  1  0  0  0  0
 33 41  1  0  0  0  0
 33 34  2  0  0  0  0
  8  9  1  0  0  0  0
  9 17  1  0  0  0  0
  9 10  2  0  0  0  0
 18 19  1  0  0  0  0
 19 31  1  0  0  0  0
 19 20  2  0  0  0  0
 32 35  1  0  0  0  0
  8 11  1  0  0  0  0
 21 23  1  0  0  0  0
 41 42  1  0  0  0  0
 31 32  1  0  0  0  0
  7  8  1  0  0  0  0
 18 21  1  0  0  0  0
 17 18  1  0  0  0  0
 21 22  1  0  0  0  0
  3  4  1  0  0  0  0
  3  5  1  0  0  0  0
  3  6  1  0  0  0  0
 35 38  1  0  0  0  0
 35 39  1  0  0  0  0
 35 40  1  0  0  0  0
 11 14  1  0  0  0  0
 11 15  1  0  0  0  0
 11 16  1  0  0  0  0
 23 28  1  0  0  0  0
 23 29  1  0  0  0  0
 23 30  1  0  0  0  0
 42 44  1  0  0  0  0
 42 45  1  0  0  0  0
 42 46  1  0  0  0  0
 32 37  1  0  0  0  0
  8 13  1  0  0  0  0
 18 25  1  0  0  0  0
 21 26  1  0  0  0  0
 41 43  1  0  0  0  0
  7 12  1  0  0  0  0
 31 36  1  0  0  0  0
 17 24  1  0  0  0  0
 22 27  1  0  0  0  0
M  END
$$$$

  -OEChem-05262214473D

 46 45  0     1  0  0  0  0  0999 V2000
   -4.6700    2.7214    1.5150 C   0  0  0  0  0  0  0  0  0  0  0  0
   -5.4532    2.5715    0.5845 O   0  0  0  0  0  0  0  0  0  0  0  0
   -5.0996    3.4865    2.7226 C   0  0  0  0  0  0  0  0  0  0  0  0
   -4.8796    4.5629    2.6387 H   0  0  0  0  0  0  0  0  0  0  0  0
   -6.1861    3.4241    2.8954 H   0  0  0  0  0  0  0  0  0  0  0  0
   -4.6369    3.1693    3.6708 H   0  0  0  0  0  0  0  0  0  0  0  0
   -3.3731    2.2391    1.5790 N   0  0  0  0  0  0  0  0  0  0  0  0
   -2.7599    1.4751    0.5247 C   0  0  2  0  0  0  0  0  0  0  0  0
   -1.5143    0.8067    1.0915 C   0  0  0  0  0  0  0  0  0  0  0  0
   -0.9247    1.2213    2.0872 O   0  0  0  0  0  0  0  0  0  0  0  0
   -2.4106    2.3553   -0.6653 C   0  0  0  0  0  0  0  0  0  0  0  0
   -2.8254    2.4352    2.4150 H   0  0  0  0  0  0  0  0  0  0  0  0
   -3.4836    0.7082    0.2278 H   0  0  0  0  0  0  0  0  0  0  0  0
   -1.6866    3.1298   -0.3871 H   0  0  0  0  0  0  0  0  0  0  0  0
   -1.9704    1.7677   -1.4777 H   0  0  0  0  0  0  0  0  0  0  0  0
   -3.3030    2.8584   -1.0531 H   0  0  0  0  0  0  0  0  0  0  0  0
   -1.1107   -0.2839    0.3303 N   0  0  0  0  0  0  0  0  0  0  0  0
    0.0490   -1.0750    0.6539 C   0  0  2  0  0  0  0  0  0  0  0  0
   -0.4427   -2.3922    1.2469 C   0  0  0  0  0  0  0  0  0  0  0  0
   -1.0946   -2.4570    2.2872 O   0  0  0  0  0  0  0  0  0  0  0  0
    1.0149   -0.3533    1.6049 C   0  0  2  0  0  0  0  0  0  0  0  0
    0.3743   -0.0552    2.8444 O   0  0  0  0  0  0  0  0  0  0  0  0
    1.5290    0.9565    1.0196 C   0  0  0  0  0  0  0  0  0  0  0  0
   -1.6733   -0.5660   -0.4691 H   0  0  0  0  0  0  0  0  0  0  0  0
    0.5520   -1.2914   -0.2965 H   0  0  0  0  0  0  0  0  0  0  0  0
    1.8759   -0.9933    1.8298 H   0  0  0  0  0  0  0  0  0  0  0  0
    1.0478    0.3509    3.4110 H   0  0  0  0  0  0  0  0  0  0  0  0
    0.7055    1.6363    0.7757 H   0  0  0  0  0  0  0  0  0  0  0  0
    2.1233    0.7829    0.1175 H   0  0  0  0  0  0  0  0  0  0  0  0
    2.1545    1.4784    1.7522 H   0  0  0  0  0  0  0  0  0  0  0  0
   -0.0260   -3.4882    0.5047 N   0  0  0  0  0  0  0  0  0  0  0  0
   -0.3380   -4.8466    0.8823 C   0  0  2  0  0  0  0  0  0  0  0  0
   -1.7762   -5.1309    0.4696 C   0  0  0  0  0  0  0  0  0  0  0  0
   -2.6108   -4.2459    0.2929 O   0  0  0  0  0  0  0  0  0  0  0  0
   -0.1482   -5.0633    2.3756 C   0  0  0  0  0  0  0  0  0  0  0  0
    0.5199   -3.3286   -0.3370 H   0  0  0  0  0  0  0  0  0  0  0  0
    0.3398   -5.4956    0.3173 H   0  0  0  0  0  0  0  0  0  0  0  0
   -0.8190   -4.4215    2.9582 H   0  0  0  0  0  0  0  0  0  0  0  0
   -0.3576   -6.1010    2.6557 H   0  0  0  0  0  0  0  0  0  0  0  0
    0.8790   -4.8298    2.6758 H   0  0  0  0  0  0  0  0  0  0  0  0
   -2.0295   -6.4913    0.3636 N   0  0  0  0  0  0  0  0  0  0  0  0
   -3.3240   -7.0172   -0.0022 C   0  0  0  0  0  0  0  0  0  0  0  0
   -1.2730   -7.1533    0.5095 H   0  0  0  0  0  0  0  0  0  0  0  0
   -3.9079   -7.2211    0.9075 H   0  0  0  0  0  0  0  0  0  0  0  0
   -3.8566   -6.2812   -0.6224 H   0  0  0  0  0  0  0  0  0  0  0  0
   -3.1935   -7.9498   -0.5707 H   0  0  0  0  0  0  0  0  0  0  0  0
  1  3  1  0  0  0  0
  1  7  1  0  0  0  0
  1  2  2  0  0  0  0
 32 33  1  0  0  0  0
 33 41  1  0  0  0  0
 33 34  2  0  0  0  0
  8  9  1  0  0  0  0
  9 17  1  0  0  0  0
  9 10  2  0  0  0  0
 18 19  1  0  0  0  0
 19 31  1  0  0  0  0
 19 20  2  0  0  0  0
 32 35  1  0  0  0  0
  8 11  1  0  0  0  0
 21 23  1  0  0  0  0
 41 42  1  0  0  0  0
 31 32  1  0  0  0  0
  7  8  1  0  0  0  0
 18 21  1  0  0  0  0
 17 18  1  0  0  0  0
 21 22  1  0  0  0  0
  3  4  1  0  0  0  0
  3  5  1  0  0  0  0
  3  6  1  0  0  0  0
 35 38  1  0  0  0  0
 35 39  1  0  0  0  0
 35 40  1  0  0  0  0
 11 14  1  0  0  0  0
 11 15  1  0  0  0  0
 11 16  1  0  0  0  0
 23 28  1  0  0  0  0
 23 29  1  0  0  0  0
 23 30  1  0  0  0  0
 42 44  1  0  0  0  0
 42 45  1  0  0  0  0
 42 46  1  0  0  0  0
 32 37  1  0  0  0  0
  8 13  1  0  0  0  0
 18 25  1  0  0  0  0
 21 26  1  0  0  0  0
 41 43  1  0  0  0  0
  7 12  1  0  0  0  0
 31 36  1  0  0  0  0
 17 24  1  0  0  0  0
 22 27  1  0  0  0  0
M  END
$$$$

  -OEChem-05262214473D

 46 45  0     1  0  0  0  0  0999 V2000
   -4.6700    2.7214    1.5150 C   0  0  0  0  0  0  0  0  0  0  0  0
   -5.4532    2.5715    0.5845 O   0  0  0  0  0  0  0  0  0  0  0  0
   -5.0996    3.4865    2.7226 C   0  0  0  0  0  0  0  0  0  0  0  0
   -4.8796    4.5629    2.6387 H   0  0  0  0  0  0  0  0  0  0  0  0
   -6.1861    3.4241    2.8954 H   0  0  0  0  0  0  0  0  0  0  0  0
   -4.6369    3.1693    3.6708 H   0  0  0  0  0  0  0  0  0  0  0  0
   -3.3731    2.2391    1.5790 N   0  0  0  0  0  0  0  0  0  0  0  0
   -2.7599    1.4751    0.5247 C   0  0  2  0  0  0  0  0  0  0  0  0
   -1.5143    0.8067    1.0915 C   0  0  0  0  0  0  0  0  0  0  0  0
   -0.9247    1.2213    2.0872 O   0  0  0  0  0  0  0  0  0  0  0  0
   -2.4106    2.3553   -0.6653 C   0  0  0  0  0  0  0  0  0  0  0  0
   -2.8254    2.4352    2.4150 H   0  0  0  0  0  0  0  0  0  0  0  0
   -3.4836    0.7082    0.2278 H   0  0  0  0  0  0  0  0  0  0  0  0
   -1.6866    3.1298   -0.3871 H   0  0  0  0  0  0  0  0  0  0  0  0
   -1.9704    1.7677   -1.4777 H   0  0  0  0  0  0  0  0  0  0  0  0
   -3.3030    2.8584   -1.0531 H   0  0  0  0  0  0  0  0  0  0  0  0
   -1.1107   -0.2839    0.3303 N   0  0  0  0  0  0  0  0  0  0  0  0
    0.0490   -1.0750    0.6539 C   0  0  2  0  0  0  0  0  0  0  0  0
   -0.4427   -2.3922    1.2469 C   0  0  0  0  0  0  0  0  0  0  0  0
   -1.3056   -2.4533    2.1204 O   0  0  0  0  0  0  0  0  0  0  0  0
    1.0149   -0.3533    1.6049 C   0  0  2  0  0  0  0  0  0  0  0  0
    0.3743   -0.0552    2.8444 O   0  0  0  0  0  0  0  0  0  0  0  0
    1.5290    0.9565    1.0196 C   0  0  0  0  0  0  0  0  0  0  0  0
   -1.6733   -0.5660   -0.4691 H   0  0  0  0  0  0  0  0  0  0  0  0
    0.5520   -1.2914   -0.2965 H   0  0  0  0  0  0  0  0  0  0  0  0
    1.8759   -0.9933    1.8298 H   0  0  0  0  0  0  0  0  0  0  0  0
    1.0478    0.3509    3.4110 H   0  0  0  0  0  0  0  0  0  0  0  0
    0.7055    1.6363    0.7757 H   0  0  0  0  0  0  0  0  0  0  0  0
    2.1233    0.7829    0.1175 H   0  0  0  0  0  0  0  0  0  0  0  0
    2.1545    1.4784    1.7522 H   0  0  0  0  0  0  0  0  0  0  0  0
    0.2301   -3.4862    0.7215 N   0  0  0  0  0  0  0  0  0  0  0  0
   -0.0346   -4.8400    1.1486 C   0  0  2  0  0  0  0  0  0  0  0  0
   -1.3090   -5.3098    0.4595 C   0  0  0  0  0  0  0  0  0  0  0  0
   -2.1585   -4.5371    0.0212 O   0  0  0  0  0  0  0  0  0  0  0  0
   -0.1708   -4.9265    2.6608 C   0  0  0  0  0  0  0  0  0  0  0  0
    0.9364   -3.3286    0.0086 H   0  0  0  0  0  0  0  0  0  0  0  0
    0.8103   -5.4494    0.8100 H   0  0  0  0  0  0  0  0  0  0  0  0
   -1.0123   -4.3222    3.0187 H   0  0  0  0  0  0  0  0  0  0  0  0
   -0.3431   -5.9580    2.9853 H   0  0  0  0  0  0  0  0  0  0  0  0
    0.7354   -4.5603    3.1553 H   0  0  0  0  0  0  0  0  0  0  0  0
   -1.4065   -6.6940    0.4301 N   0  0  0  0  0  0  0  0  0  0  0  0
   -2.5302   -7.3840   -0.1589 C   0  0  0  0  0  0  0  0  0  0  0  0
   -0.6460   -7.2564    0.8004 H   0  0  0  0  0  0  0  0  0  0  0  0
   -3.2848   -7.5850    0.6158 H   0  0  0  0  0  0  0  0  0  0  0  0
   -2.9725   -6.7577   -0.9476 H   0  0  0  0  0  0  0  0  0  0  0  0
   -2.1893   -8.3351   -0.5939 H   0  0  0  0  0  0  0  0  0  0  0  0
  1  3  1  0  0  0  0
  1  7  1  0  0  0  0
  1  2  2  0  0  0  0
 32 33  1  0  0  0  0
 33 41  1  0  0  0  0
 33 34  2  0  0  0  0
  8  9  1  0  0  0  0
  9 17  1  0  0  0  0
  9 10  2  0  0  0  0
 18 19  1  0  0  0  0
 19 31  1  0  0  0  0
 19 20  2  0  0  0  0
 32 35  1  0  0  0  0
  8 11  1  0  0  0  0
 21 23  1  0  0  0  0
 41 42  1  0  0  0  0
 31 32  1  0  0  0  0
  7  8  1  0  0  0  0
 18 21  1  0  0  0  0
 17 18  1  0  0  0  0
 21 22  1  0  0  0  0
  3  4  1  0  0  0  0
  3  5  1  0  0  0  0
  3  6  1  0  0  0  0
 35 38  1  0  0  0  0
 35 39  1  0  0  0  0
 35 40  1  0  0  0  0
 11 14  1  0  0  0  0
 11 15  1  0  0  0  0
 11 16  1  0  0  0  0
 23 28  1  0  0  0  0
 23 29  1  0  0  0  0
 23 30  1  0  0  0  0
 42 44  1  0  0  0  0
 42 45  1  0  0  0  0
 42 46  1  0  0  0  0
 32 37  1  0  0  0  0
  8 13  1  0  0  0  0
 18 25  1  0  0  0  0
 21 26  1  0  0  0  0
 41 43  1  0  0  0  0
  7 12  1  0  0  0  0
 31 36  1  0  0  0  0
 17 24  1  0  0  0  0
 22 27  1  0  0  0  0
M  END
$$$$

  -OEChem-05262214473D

 46 45  0     1  0  0  0  0  0999 V2000
   -4.6700    2.7214    1.5150 C   0  0  0  0  0  0  0  0  0  0  0  0
   -5.4532    2.5715    0.5845 O   0  0  0  0  0  0  0  0  0  0  0  0
   -5.0996    3.4865    2.7226 C   0  0  0  0  0  0  0  0  0  0  0  0
   -4.8796    4.5629    2.6387 H   0  0  0  0  0  0  0  0  0  0  0  0
   -6.1861    3.4241    2.8954 H   0  0  0  0  0  0  0  0  0  0  0  0
   -4.6369    3.1693    3.6708 H   0  0  0  0  0  0  0  0  0  0  0  0
   -3.3731    2.2391    1.5790 N   0  0  0  0  0  0  0  0  0  0  0  0
   -2.7599    1.4751    0.5247 C   0  0  2  0  0  0  0  0  0  0  0  0
   -1.5143    0.8067    1.0915 C   0  0  0  0  0  0  0  0  0  0  0  0
   -0.9247    1.2213    2.0872 O   0  0  0  0  0  0  0  0  0  0  0  0
   -2.4106    2.3553   -0.6653 C   0  0  0  0  0  0  0  0  0  0  0  0
   -2.8254    2.4352    2.4150 H   0  0  0  0  0  0  0  0  0  0  0  0
   -3.4836    0.7082    0.2278 H   0  0  0  0  0  0  0  0  0  0  0  0
   -1.6866    3.1298   -0.3871 H   0  0  0  0  0  0  0  0  0  0  0  0
   -1.9704    1.7677   -1.4777 H   0  0  0  0  0  0  0  0  0  0  0  0
   -3.3030    2.8584   -1.0531 H   0  0  0  0  0  0  0  0  0  0  0  0
   -1.1107   -0.2839    0.3303 N   0  0  0  0  0  0  0  0  0  0  0  0
    0.0490   -1.0750    0.6539 C   0  0  2  0  0  0  0  0  0  0  0  0
   -0.4427   -2.3922    1.2469 C   0  0  0  0  0  0  0  0  0  0  0  0
   -1.4726   -2.4849    1.9119 O   0  0  0  0  0  0  0  0  0  0  0  0
    1.0149   -0.3533    1.6049 C   0  0  2  0  0  0  0  0  0  0  0  0
    0.3743   -0.0552    2.8444 O   0  0  0  0  0  0  0  0  0  0  0  0
    1.5290    0.9565    1.0196 C   0  0  0  0  0  0  0  0  0  0  0  0
   -1.6733   -0.5660   -0.4691 H   0  0  0  0  0  0  0  0  0  0  0  0
    0.5520   -1.2914   -0.2965 H   0  0  0  0  0  0  0  0  0  0  0  0
    1.8759   -0.9933    1.8298 H   0  0  0  0  0  0  0  0  0  0  0  0
    1.0478    0.3509    3.4110 H   0  0  0  0  0  0  0  0  0  0  0  0
    0.7055    1.6363    0.7757 H   0  0  0  0  0  0  0  0  0  0  0  0
    2.1233    0.7829    0.1175 H   0  0  0  0  0  0  0  0  0  0  0  0
    2.1545    1.4784    1.7522 H   0  0  0  0  0  0  0  0  0  0  0  0
    0.4289   -3.4405    0.9879 N   0  0  0  0  0  0  0  0  0  0  0  0
    0.1983   -4.7809    1.4730 C   0  0  2  0  0  0  0  0  0  0  0  0
   -0.8374   -5.4365    0.5692 C   0  0  0  0  0  0  0  0  0  0  0  0
   -1.6316   -4.7955   -0.1159 O   0  0  0  0  0  0  0  0  0  0  0  0
   -0.2701   -4.7728    2.9198 C   0  0  0  0  0  0  0  0  0  0  0  0
    1.2616   -3.2578    0.4355 H   0  0  0  0  0  0  0  0  0  0  0  0
    1.1501   -5.3164    1.3871 H   0  0  0  0  0  0  0  0  0  0  0  0
   -1.2225   -4.2406    3.0256 H   0  0  0  0  0  0  0  0  0  0  0  0
   -0.4170   -5.7910    3.2950 H   0  0  0  0  0  0  0  0  0  0  0  0
    0.4625   -4.2744    3.5639 H   0  0  0  0  0  0  0  0  0  0  0  0
   -0.7991   -6.8215    0.6505 N   0  0  0  0  0  0  0  0  0  0  0  0
   -1.6916   -7.6716   -0.1023 C   0  0  0  0  0  0  0  0  0  0  0  0
   -0.0949   -7.2687    1.2300 H   0  0  0  0  0  0  0  0  0  0  0  0
   -2.5813   -7.8981    0.5037 H   0  0  0  0  0  0  0  0  0  0  0  0
   -1.9978   -7.1562   -1.0245 H   0  0  0  0  0  0  0  0  0  0  0  0
   -1.1754   -8.6082   -0.3598 H   0  0  0  0  0  0  0  0  0  0  0  0
  1  3  1  0  0  0  0
  1  7  1  0  0  0  0
  1  2  2  0  0  0  0
 32 33  1  0  0  0  0
 33 41  1  0  0  0  0
 33 34  2  0  0  0  0
  8  9  1  0  0  0  0
  9 17  1  0  0  0  0
  9 10  2  0  0  0  0
 18 19  1  0  0  0  0
 19 31  1  0  0  0  0
 19 20  2  0  0  0  0
 32 35  1  0  0  0  0
  8 11  1  0  0  0  0
 21 23  1  0  0  0  0
 41 42  1  0  0  0  0
 31 32  1  0  0  0  0
  7  8  1  0  0  0  0
 18 21  1  0  0  0  0
 17 18  1  0  0  0  0
 21 22  1  0  0  0  0
  3  4  1  0  0  0  0
  3  5  1  0  0  0  0
  3  6  1  0  0  0  0
 35 38  1  0  0  0  0
 35 39  1  0  0  0  0
 35 40  1  0  0  0  0
 11 14  1  0  0  0  0
 11 15  1  0  0  0  0
 11 16  1  0  0  0  0
 23 28  1  0  0  0  0
 23 29  1  0  0  0  0
 23 30  1  0  0  0  0
 42 44  1  0  0  0  0
 42 45  1  0  0  0  0
 42 46  1  0  0  0  0
 32 37  1  0  0  0  0
  8 13  1  0  0  0  0
 18 25  1  0  0  0  0
 21 26  1  0  0  0  0
 41 43  1  0  0  0  0
  7 12  1  0  0  0  0
 31 36  1  0  0  0  0
 17 24  1  0  0  0  0
 22 27  1  0  0  0  0
M  END
$$$$

  -OEChem-05262214473D

 46 45  0     1  0  0  0  0  0999 V2000
   -4.6700    2.7214    1.5150 C   0  0  0  0  0  0  0  0  0  0  0  0
   -5.4532    2.5715    0.5845 O   0  0  0  0  0  0  0  0  0  0  0  0
   -5.0996    3.4865    2.7226 C   0  0  0  0  0  0  0  0  0  0  0  0
   -4.8796    4.5629    2.6387 H   0  0  0  0  0  0  0  0  0  0  0  0
   -6.1861    3.4241    2.8954 H   0  0  0  0  0  0  0  0  0  0  0  0
   -4.6369    3.1693    3.6708 H   0  0  0  0  0  0  0  0  0  0  0  0
   -3.3731    2.2391    1.5790 N   0  0  0  0  0  0  0  0  0  0  0  0
   -2.7599    1.4751    0.5247 C   0  0  2  0  0  0  0  0  0  0  0  0
   -1.5143    0.8067    1.0915 C   0  0  0  0  0  0  0  0  0  0  0  0
   -0.9247    1.2213    2.0872 O   0  0  0  0  0  0  0  0  0  0  0  0
   -2.4106    2.3553   -0.6653 C   0  0  0  0  0  0  0  0  0  0  0  0
   -2.8254    2.4352    2.4150 H   0  0  0  0  0  0  0  0  0  0  0  0
   -3.4836    0.7082    0.2278 H   0  0  0  0  0  0  0  0  0  0  0  0
   -1.6866    3.1298   -0.3871 H   0  0  0  0  0  0  0  0  0  0  0  0
   -1.9704    1.7677   -1.4777 H   0  0  0  0  0  0  0  0  0  0  0  0
   -3.3030    2.8584   -1.0531 H   0  0  0  0  0  0  0  0  0  0  0  0
   -1.1107   -0.2839    0.3303 N   0  0  0  0  0  0  0  0  0  0  0  0
    0.0490   -1.0750    0.6539 C   0  0  2  0  0  0  0  0  0  0  0  0
   -0.4427   -2.3922    1.2469 C   0  0  0  0  0  0  0  0  0  0  0  0
   -1.5841   -2.5496    1.6757 O   0  0  0  0  0  0  0  0  0  0  0  0
    1.0149   -0.3533    1.6049 C   0  0  2  0  0  0  0  0  0  0  0  0
    0.3743   -0.0552    2.8444 O   0  0  0  0  0  0  0  0  0  0  0  0
    1.5290    0.9565    1.0196 C   0  0  0  0  0  0  0  0  0  0  0  0
   -1.6733   -0.5660   -0.4691 H   0  0  0  0  0  0  0  0  0  0  0  0
    0.5520   -1.2914   -0.2965 H   0  0  0  0  0  0  0  0  0  0  0  0
    1.8759   -0.9933    1.8298 H   0  0  0  0  0  0  0  0  0  0  0  0
    1.0478    0.3509    3.4110 H   0  0  0  0  0  0  0  0  0  0  0  0
    0.7055    1.6363    0.7757 H   0  0  0  0  0  0  0  0  0  0  0  0
    2.1233    0.7829    0.1175 H   0  0  0  0  0  0  0  0  0  0  0  0
    2.1545    1.4784    1.7522 H   0  0  0  0  0  0  0  0  0  0  0  0
    0.5568   -3.3541    1.2858 N   0  0  0  0  0  0  0  0  0  0  0  0
    0.3449   -4.6733    1.8335 C   0  0  2  0  0  0  0  0  0  0  0  0
   -0.3937   -5.5023    0.7910 C   0  0  0  0  0  0  0  0  0  0  0  0
   -1.0661   -5.0036   -0.1091 O   0  0  0  0  0  0  0  0  0  0  0  0
   -0.4393   -4.6127    3.1350 C   0  0  0  0  0  0  0  0  0  0  0  0
    1.4731   -3.1211    0.9145 H   0  0  0  0  0  0  0  0  0  0  0  0
    1.3360   -5.1056    2.0095 H   0  0  0  0  0  0  0  0  0  0  0  0
   -1.4352   -4.1823    2.9786 H   0  0  0  0  0  0  0  0  0  0  0  0
   -0.5745   -5.6112    3.5637 H   0  0  0  0  0  0  0  0  0  0  0  0
    0.0788   -3.9917    3.8737 H   0  0  0  0  0  0  0  0  0  0  0  0
   -0.2489   -6.8651    1.0097 N   0  0  0  0  0  0  0  0  0  0  0  0
   -0.8653   -7.8603    0.1637 C   0  0  0  0  0  0  0  0  0  0  0  0
    0.3426   -7.1893    1.7692 H   0  0  0  0  0  0  0  0  0  0  0  0
   -1.8451   -8.1392    0.5787 H   0  0  0  0  0  0  0  0  0  0  0  0
   -0.9991   -7.4495   -0.8478 H   0  0  0  0  0  0  0  0  0  0  0  0
   -0.2209   -8.7505    0.1156 H   0  0  0  0  0  0  0  0  0  0  0  0
  1  3  1  0  0  0  0
  1  7  1  0  0  0  0
  1  2  2  0  0  0  0
 32 33  1  0  0  0  0
 33 41  1  0  0  0  0
 33 34  2  0  0  0  0
  8  9  1  0  0  0  0
  9 17  1  0  0  0  0
  9 10  2  0  0  0  0
 18 19  1  0  0  0  0
 19 31  1  0  0  0  0
 19 20  2  0  0  0  0
 32 35  1  0  0  0  0
  8 11  1  0  0  0  0
 21 23  1  0  0  0  0
 41 42  1  0  0  0  0
 31 32  1  0  0  0  0
  7  8  1  0  0  0  0
 18 21  1  0  0  0  0
 17 18  1  0  0  0  0
 21 22  1  0  0  0  0
  3  4  1  0  0  0  0
  3  5  1  0  0  0  0
  3  6  1  0  0  0  0
 35 38  1  0  0  0  0
 35 39  1  0  0  0  0
 35 40  1  0  0  0  0
 11 14  1  0  0  0  0
 11 15  1  0  0  0  0
 11 16  1  0  0  0  0
 23 28  1  0  0  0  0
 23 29  1  0  0  0  0
 23 30  1  0  0  0  0
 42 44  1  0  0  0  0
 42 45  1  0  0  0  0
 42 46  1  0  0  0  0
 32 37  1  0  0  0  0
  8 13  1  0  0  0  0
 18 25  1  0  0  0  0
 21 26  1  0  0  0  0
 41 43  1  0  0  0  0
  7 12  1  0  0  0  0
 31 36  1  0  0  0  0
 17 24  1  0  0  0  0
 22 27  1  0  0  0  0
M  END
$$$$

  -OEChem-05262214473D

 46 45  0     1  0  0  0  0  0999 V2000
   -4.6700    2.7214    1.5150 C   0  0  0  0  0  0  0  0  0  0  0  0
   -5.4532    2.5715    0.5845 O   0  0  0  0  0  0  0  0  0  0  0  0
   -5.0996    3.4865    2.7226 C   0  0  0  0  0  0  0  0  0  0  0  0
   -4.8796    4.5629    2.6387 H   0  0  0  0  0  0  0  0  0  0  0  0
   -6.1861    3.4241    2.8954 H   0  0  0  0  0  0  0  0  0  0  0  0
   -4.6369    3.1693    3.6708 H   0  0  0  0  0  0  0  0  0  0  0  0
   -3.3731    2.2391    1.5790 N   0  0  0  0  0  0  0  0  0  0  0  0
   -2.7599    1.4751    0.5247 C   0  0  2  0  0  0  0  0  0  0  0  0
   -1.5143    0.8067    1.0915 C   0  0  0  0  0  0  0  0  0  0  0  0
   -0.9247    1.2213    2.0872 O   0  0  0  0  0  0  0  0  0  0  0  0
   -2.4106    2.3553   -0.6653 C   0  0  0  0  0  0  0  0  0  0  0  0
   -2.8254    2.4352    2.4150 H   0  0  0  0  0  0  0  0  0  0  0  0
   -3.4836    0.7082    0.2278 H   0  0  0  0  0  0  0  0  0  0  0  0
   -1.6866    3.1298   -0.3871 H   0  0  0  0  0  0  0  0  0  0  0  0
   -1.9704    1.7677   -1.4777 H   0  0  0  0  0  0  0  0  0  0  0  0
   -3.3030    2.8584   -1.0531 H   0  0  0  0  0  0  0  0  0  0  0  0
   -1.1107   -0.2839    0.3303 N   0  0  0  0  0  0  0  0  0  0  0  0
    0.0490   -1.0750    0.6539 C   0  0  2  0  0  0  0  0  0  0  0  0
   -0.4211   -2.5081    0.8859 C   0  0  0  0  0  0  0  0  0  0  0  0
   -1.6028   -2.8426    0.8337 O   0  0  0  0  0  0  0  0  0  0  0  0
    0.8212   -0.5310    1.8647 C   0  0  2  0  0  0  0  0  0  0  0  0
   -0.0021   -0.5310    3.0300 O   0  0  0  0  0  0  0  0  0  0  0  0
    1.3128    0.8942    1.6420 C   0  0  0  0  0  0  0  0  0  0  0  0
   -1.6733   -0.5660   -0.4691 H   0  0  0  0  0  0  0  0  0  0  0  0
    0.6910   -1.0625   -0.2353 H   0  0  0  0  0  0  0  0  0  0  0  0
    1.6882   -1.1665    2.0793 H   0  0  0  0  0  0  0  0  0  0  0  0
    0.5566   -0.2261    3.7610 H   0  0  0  0  0  0  0  0  0  0  0  0
    0.4826    1.5742    1.4226 H   0  0  0  0  0  0  0  0  0  0  0  0
    2.0353    0.9420    0.8217 H   0  0  0  0  0  0  0  0  0  0  0  0
    1.7931    1.2749    2.5501 H   0  0  0  0  0  0  0  0  0  0  0  0
    0.6284   -3.3576    1.2064 N   0  0  0  0  0  0  0  0  0  0  0  0
    0.4325   -4.7574    1.5024 C   0  0  2  0  0  0  0  0  0  0  0  0
    0.2547   -5.4967    0.1828 C   0  0  0  0  0  0  0  0  0  0  0  0
   -0.1124   -4.9436   -0.8518 O   0  0  0  0  0  0  0  0  0  0  0  0
   -0.7695   -4.9682    2.4098 C   0  0  0  0  0  0  0  0  0  0  0  0
    1.5710   -2.9801    1.2339 H   0  0  0  0  0  0  0  0  0  0  0  0
    1.3452   -5.1067    1.9973 H   0  0  0  0  0  0  0  0  0  0  0  0
   -1.6935   -4.6240    1.9308 H   0  0  0  0  0  0  0  0  0  0  0  0
   -0.8997   -6.0271    2.6563 H   0  0  0  0  0  0  0  0  0  0  0  0
   -0.6534   -4.4118    3.3461 H   0  0  0  0  0  0  0  0  0  0  0  0
    0.5127   -6.8548    0.3066 N   0  0  0  0  0  0  0  0  0  0  0  0
    0.4010   -7.7737   -0.8020 C   0  0  0  0  0  0  0  0  0  0  0  0
    0.8303   -7.2238    1.1980 H   0  0  0  0  0  0  0  0  0  0  0  0
   -0.6090   -8.2092   -0.8177 H   0  0  0  0  0  0  0  0  0  0  0  0
    0.5828   -7.2356   -1.7440 H   0  0  0  0  0  0  0  0  0  0  0  0
    1.1446   -8.5765   -0.6890 H   0  0  0  0  0  0  0  0  0  0  0  0
  1  3  1  0  0  0  0
  1  7  1  0  0  0  0
  1  2  2  0  0  0  0
 32 33  1  0  0  0  0
 33 41  1  0  0  0  0
 33 34  2  0  0  0  0
  8  9  1  0  0  0  0
  9 17  1  0  0  0  0
  9 10  2  0  0  0  0
 18 19  1  0  0  0  0
 19 31  1  0  0  0  0
 19 20  2  0  0  0  0
 32 35  1  0  0  0  0
  8 11  1  0  0  0  0
 21 23  1  0  0  0  0
 41 42  1  0  0  0  0
 31 32  1  0  0  0  0
  7  8  1  0  0  0  0
 18 21  1  0  0  0  0
 17 18  1  0  0  0  0
 21 22  1  0  0  0  0
  3  4  1  0  0  0  0
  3  5  1  0  0  0  0
  3  6  1  0  0  0  0
 35 38  1  0  0  0  0
 35 39  1  0  0  0  0
 35 40  1  0  0  0  0
 11 14  1  0  0  0  0
 11 15  1  0  0  0  0
 11 16  1  0  0  0  0
 23 28  1  0  0  0  0
 23 29  1  0  0  0  0
 23 30  1  0  0  0  0
 42 44  1  0  0  0  0
 42 45  1  0  0  0  0
 42 46  1  0  0  0  0
 32 37  1  0  0  0  0
  8 13  1  0  0  0  0
 18 25  1  0  0  0  0
 21 26  1  0  0  0  0
 41 43  1  0  0  0  0
  7 12  1  0  0  0  0
 31 36  1  0  0  0  0
 17 24  1  0  0  0  0
 22 27  1  0  0  0  0
M  END
$$$$

  -OEChem-05262214473D

 46 45  0     1  0  0  0  0  0999 V2000
   -4.6700    2.7214    1.5150 C   0  0  0  0  0  0  0  0  0  0  0  0
   -5.4532    2.5715    0.5845 O   0  0  0  0  0  0  0  0  0  0  0  0
   -5.0996    3.4865    2.7226 C   0  0  0  0  0  0  0  0  0  0  0  0
   -4.8796    4.5629    2.6387 H   0  0  0  0  0  0  0  0  0  0  0  0
   -6.1861    3.4241    2.8954 H   0  0  0  0  0  0  0  0  0  0  0  0
   -4.6369    3.1693    3.6708 H   0  0  0  0  0  0  0  0  0  0  0  0
   -3.3731    2.2391    1.5790 N   0  0  0  0  0  0  0  0  0  0  0  0
   -2.7599    1.4751    0.5247 C   0  0  2  0  0  0  0  0  0  0  0  0
   -1.5143    0.8067    1.0915 C   0  0  0  0  0  0  0  0  0  0  0  0
   -0.9247    1.2213    2.0872 O   0  0  0  0  0  0  0  0  0  0  0  0
   -2.4106    2.3553   -0.6653 C   0  0  0  0  0  0  0  0  0  0  0  0
   -2.8254    2.4352    2.4150 H   0  0  0  0  0  0  0  0  0  0  0  0
   -3.4836    0.7082    0.2278 H   0  0  0  0  0  0  0  0  0  0  0  0
   -1.6866    3.1298   -0.3871 H   0  0  0  0  0  0  0  0  0  0  0  0
   -1.9704    1.7677   -1.4777 H   0  0  0  0  0  0  0  0  0  0  0  0
   -3.3030    2.8584   -1.0531 H   0  0  0  0  0  0  0  0  0  0  0  0
   -1.1107   -0.2839    0.3303 N   0  0  0  0  0  0  0  0  0  0  0  0
    0.0490   -1.0750    0.6539 C   0  0  2  0  0  0  0  0  0  0  0  0
   -0.4211   -2.5081    0.8859 C   0  0  0  0  0  0  0  0  0  0  0  0
   -1.5437   -2.9034    0.5783 O   0  0  0  0  0  0  0  0  0  0  0  0
    0.8212   -0.5310    1.8647 C   0  0  2  0  0  0  0  0  0  0  0  0
   -0.0021   -0.5310    3.0300 O   0  0  0  0  0  0  0  0  0  0  0  0
    1.3128    0.8942    1.6420 C   0  0  0  0  0  0  0  0  0  0  0  0
   -1.6733   -0.5660   -0.4691 H   0  0  0  0  0  0  0  0  0  0  0  0
    0.6910   -1.0625   -0.2353 H   0  0  0  0  0  0  0  0  0  0  0  0
    1.6882   -1.1665    2.0793 H   0  0  0  0  0  0  0  0  0  0  0  0
    0.5566   -0.2261    3.7610 H   0  0  0  0  0  0  0  0  0  0  0  0
    0.4826    1.5742    1.4226 H   0  0  0  0  0  0  0  0  0  0  0  0
    2.0353    0.9420    0.8217 H   0  0  0  0  0  0  0  0  0  0  0  0
    1.7931    1.2749    2.5501 H   0  0  0  0  0  0  0  0  0  0  0  0
    0.5427   -3.2786    1.5210 N   0  0  0  0  0  0  0  0  0  0  0  0
    0.3217   -4.6602    1.8782 C   0  0  2  0  0  0  0  0  0  0  0  0
    0.4941   -5.5041    0.6222 C   0  0  0  0  0  0  0  0  0  0  0  0
    0.3751   -5.0487   -0.5134 O   0  0  0  0  0  0  0  0  0  0  0  0
   -1.0590   -4.8614    2.4830 C   0  0  0  0  0  0  0  0  0  0  0  0
    1.4384   -2.8542    1.7433 H   0  0  0  0  0  0  0  0  0  0  0  0
    1.0955   -4.9262    2.6066 H   0  0  0  0  0  0  0  0  0  0  0  0
   -1.8475   -4.5999    1.7678 H   0  0  0  0  0  0  0  0  0  0  0  0
   -1.2143   -5.9040    2.7795 H   0  0  0  0  0  0  0  0  0  0  0  0
   -1.1920   -4.2314    3.3691 H   0  0  0  0  0  0  0  0  0  0  0  0
    0.7538   -6.8347    0.9190 N   0  0  0  0  0  0  0  0  0  0  0  0
    0.9440   -7.8385   -0.1019 C   0  0  0  0  0  0  0  0  0  0  0  0
    0.8544   -7.1199    1.8887 H   0  0  0  0  0  0  0  0  0  0  0  0
   -0.0182   -8.3231   -0.3241 H   0  0  0  0  0  0  0  0  0  0  0  0
    1.3348   -7.3640   -1.0141 H   0  0  0  0  0  0  0  0  0  0  0  0
    1.6606   -8.5929    0.2548 H   0  0  0  0  0  0  0  0  0  0  0  0
  1  3  1  0  0  0  0
  1  7  1  0  0  0  0
  1  2  2  0  0  0  0
 32 33  1  0  0  0  0
 33 41  1  0  0  0  0
 33 34  2  0  0  0  0
  8  9  1  0  0  0  0
  9 17  1  0  0  0  0
  9 10  2  0  0  0  0
 18 19  1  0  0  0  0
 19 31  1  0  0  0  0
 19 20  2  0  0  0  0
 32 35  1  0  0  0  0
  8 11  1  0  0  0  0
 21 23  1  0  0  0  0
 41 42  1  0  0  0  0
 31 32  1  0  0  0  0
  7  8  1  0  0  0  0
 18 21  1  0  0  0  0
 17 18  1  0  0  0  0
 21 22  1  0  0  0  0
  3  4  1  0  0  0  0
  3  5  1  0  0  0  0
  3  6  1  0  0  0  0
 35 38  1  0  0  0  0
 35 39  1  0  0  0  0
 35 40  1  0  0  0  0
 11 14  1  0  0  0  0
 11 15  1  0  0  0  0
 11 16  1  0  0  0  0
 23 28  1  0  0  0  0
 23 29  1  0  0  0  0
 23 30  1  0  0  0  0
 42 44  1  0  0  0  0
 42 45  1  0  0  0  0
 42 46  1  0  0  0  0
 32 37  1  0  0  0  0
  8 13  1  0  0  0  0
 18 25  1  0  0  0  0
 21 26  1  0  0  0  0
 41 43  1  0  0  0  0
  7 12  1  0  0  0  0
 31 36  1  0  0  0  0
 17 24  1  0  0  0  0
 22 27  1  0  0  0  0
M  END
$$$$

  -OEChem-05262214473D

 46 45  0     1  0  0  0  0  0999 V2000
   -4.6700    2.7214    1.5150 C   0  0  0  0  0  0  0  0  0  0  0  0
   -5.4532    2.5715    0.5845 O   0  0  0  0  0  0  0  0  0  0  0  0
   -5.0996    3.4865    2.7226 C   0  0  0  0  0  0  0  0  0  0  0  0
   -4.8796    4.5629    2.6387 H   0  0  0  0  0  0  0  0  0  0  0  0
   -6.1861    3.4241    2.8954 H   0  0  0  0  0  0  0  0  0  0  0  0
   -4.6369    3.1693    3.6708 H   0  0  0  0  0  0  0  0  0  0  0  0
   -3.3731    2.2391    1.5790 N   0  0  0  0  0  0  0  0  0  0  0  0
   -2.7599    1.4751    0.5247 C   0  0  2  0  0  0  0  0  0  0  0  0
   -1.5143    0.8067    1.0915 C   0  0  0  0  0  0  0  0  0  0  0  0
   -0.9247    1.2213    2.0872 O   0  0  0  0  0  0  0  0  0  0  0  0
   -2.4106    2.3553   -0.6653 C   0  0  0  0  0  0  0  0  0  0  0  0
   -2.8254    2.4352    2.4150 H   0  0  0  0  0  0  0  0  0  0  0  0
   -3.4836    0.7082    0.2278 H   0  0  0  0  0  0  0  0  0  0  0  0
   -1.6866    3.1298   -0.3871 H   0  0  0  0  0  0  0  0  0  0  0  0
   -1.9704    1.7677   -1.4777 H   0  0  0  0  0  0  0  0  0  0  0  0
   -3.3030    2.8584   -1.0531 H   0  0  0  0  0  0  0  0  0  0  0  0
   -1.1107   -0.2839    0.3303 N   0  0  0  0  0  0  0  0  0  0  0  0
    0.0490   -1.0750    0.6539 C   0  0  2  0  0  0  0  0  0  0  0  0
   -0.4211   -2.5081    0.8859 C   0  0  0  0  0  0  0  0  0  0  0  0
   -1.4222   -2.9801    0.3509 O   0  0  0  0  0  0  0  0  0  0  0  0
    0.8212   -0.5310    1.8647 C   0  0  2  0  0  0  0  0  0  0  0  0
   -0.0021   -0.5310    3.0300 O   0  0  0  0  0  0  0  0  0  0  0  0
    1.3128    0.8942    1.6420 C   0  0  0  0  0  0  0  0  0  0  0  0
   -1.6733   -0.5660   -0.4691 H   0  0  0  0  0  0  0  0  0  0  0  0
    0.6910   -1.0625   -0.2353 H   0  0  0  0  0  0  0  0  0  0  0  0
    1.6882   -1.1665    2.0793 H   0  0  0  0  0  0  0  0  0  0  0  0
    0.5566   -0.2261    3.7610 H   0  0  0  0  0  0  0  0  0  0  0  0
    0.4826    1.5742    1.4226 H   0  0  0  0  0  0  0  0  0  0  0  0
    2.0353    0.9420    0.8217 H   0  0  0  0  0  0  0  0  0  0  0  0
    1.7931    1.2749    2.5501 H   0  0  0  0  0  0  0  0  0  0  0  0
    0.3803   -3.1805    1.7978 N   0  0  0  0  0  0  0  0  0  0  0  0
    0.1195   -4.5407    2.2066 C   0  0  2  0  0  0  0  0  0  0  0  0
    0.6188   -5.4667    1.1054 C   0  0  0  0  0  0  0  0  0  0  0  0
    0.7678   -5.1041   -0.0597 O   0  0  0  0  0  0  0  0  0  0  0  0
   -1.3607   -4.7637    2.4748 C   0  0  0  0  0  0  0  0  0  0  0  0
    1.1815   -2.6971    2.1930 H   0  0  0  0  0  0  0  0  0  0  0  0
    0.6991   -4.7130    3.1201 H   0  0  0  0  0  0  0  0  0  0  0  0
   -1.9575   -4.5957    1.5709 H   0  0  0  0  0  0  0  0  0  0  0  0
   -1.5529   -5.7876    2.8122 H   0  0  0  0  0  0  0  0  0  0  0  0
   -1.7249   -4.0765    3.2461 H   0  0  0  0  0  0  0  0  0  0  0  0
    0.8371   -6.7570    1.5676 N   0  0  0  0  0  0  0  0  0  0  0  0
    1.3008   -7.8238    0.7115 C   0  0  0  0  0  0  0  0  0  0  0  0
    0.7058   -6.9635    2.5534 H   0  0  0  0  0  0  0  0  0  0  0  0
    0.4370   -8.3705    0.3054 H   0  0  0  0  0  0  0  0  0  0  0  0
    1.8887   -7.4003   -0.1161 H   0  0  0  0  0  0  0  0  0  0  0  0
    1.9303   -8.5133    1.2933 H   0  0  0  0  0  0  0  0  0  0  0  0
  1  3  1  0  0  0  0
  1  7  1  0  0  0  0
  1  2  2  0  0  0  0
 32 33  1  0  0  0  0
 33 41  1  0  0  0  0
 33 34  2  0  0  0  0
  8  9  1  0  0  0  0
  9 17  1  0  0  0  0
  9 10  2  0  0  0  0
 18 19  1  0  0  0  0
 19 31  1  0  0  0  0
 19 20  2  0  0  0  0
 32 35  1  0  0  0  0
  8 11  1  0  0  0  0
 21 23  1  0  0  0  0
 41 42  1  0  0  0  0
 31 32  1  0  0  0  0
  7  8  1  0  0  0  0
 18 21  1  0  0  0  0
 17 18  1  0  0  0  0
 21 22  1  0  0  0  0
  3  4  1  0  0  0  0
  3  5  1  0  0  0  0
  3  6  1  0  0  0  0
 35 38  1  0  0  0  0
 35 39  1  0  0  0  0
 35 40  1  0  0  0  0
 11 14  1  0  0  0  0
 11 15  1  0  0  0  0
 11 16  1  0  0  0  0
 23 28  1  0  0  0  0
 23 29  1  0  0  0  0
 23 30  1  0  0  0  0
 42 44  1  0  0  0  0
 42 45  1  0  0  0  0
 42 46  1  0  0  0  0
 32 37  1  0  0  0  0
  8 13  1  0  0  0  0
 18 25  1  0  0  0  0
 21 26  1  0  0  0  0
 41 43  1  0  0  0  0
  7 12  1  0  0  0  0
 31 36  1  0  0  0  0
 17 24  1  0  0  0  0
 22 27  1  0  0  0  0
M  END
$$$$

  -OEChem-05262214473D

 46 45  0     1  0  0  0  0  0999 V2000
   -4.6700    2.7214    1.5150 C   0  0  0  0  0  0  0  0  0  0  0  0
   -5.4532    2.5715    0.5845 O   0  0  0  0  0  0  0  0  0  0  0  0
   -5.0996    3.4865    2.7226 C   0  0  0  0  0  0  0  0  0  0  0  0
   -4.8796    4.5629    2.6387 H   0  0  0  0  0  0  0  0  0  0  0  0
   -6.1861    3.4241    2.8954 H   0  0  0  0  0  0  0  0  0  0  0  0
   -4.6369    3.1693    3.6708 H   0  0  0  0  0  0  0  0  0  0  0  0
   -3.3731    2.2391    1.5790 N   0  0  0  0  0  0  0  0  0  0  0  0
   -2.7599    1.4751    0.5247 C   0  0  2  0  0  0  0  0  0  0  0  0
   -1.5143    0.8067    1.0915 C   0  0  0  0  0  0  0  0  0  0  0  0
   -0.9247    1.2213    2.0872 O   0  0  0  0  0  0  0  0  0  0  0  0
   -2.4106    2.3553   -0.6653 C   0  0  0  0  0  0  0  0  0  0  0  0
   -2.8254    2.4352    2.4150 H   0  0  0  0  0  0  0  0  0  0  0  0
   -3.4836    0.7082    0.2278 H   0  0  0  0  0  0  0  0  0  0  0  0
   -1.6866    3.1298   -0.3871 H   0  0  0  0  0  0  0  0  0  0  0  0
   -1.9704    1.7677   -1.4777 H   0  0  0  0  0  0  0  0  0  0  0  0
   -3.3030    2.8584   -1.0531 H   0  0  0  0  0  0  0  0  0  0  0  0
   -1.1107   -0.2839    0.3303 N   0  0  0  0  0  0  0  0  0  0  0  0
    0.0490   -1.0750    0.6539 C   0  0  2  0  0  0  0  0  0  0  0  0
   -0.4211   -2.5081    0.8859 C   0  0  0  0  0  0  0  0  0  0  0  0
   -1.2465   -3.0675    0.1669 O   0  0  0  0  0  0  0  0  0  0  0  0
    0.8212   -0.5310    1.8647 C   0  0  2  0  0  0  0  0  0  0  0  0
   -0.0021   -0.5310    3.0300 O   0  0  0  0  0  0  0  0  0  0  0  0
    1.3128    0.8942    1.6420 C   0  0  0  0  0  0  0  0  0  0  0  0
   -1.6733   -0.5660   -0.4691 H   0  0  0  0  0  0  0  0  0  0  0  0
    0.6910   -1.0625   -0.2353 H   0  0  0  0  0  0  0  0  0  0  0  0
    1.6882   -1.1665    2.0793 H   0  0  0  0  0  0  0  0  0  0  0  0
    0.5566   -0.2261    3.7610 H   0  0  0  0  0  0  0  0  0  0  0  0
    0.4826    1.5742    1.4226 H   0  0  0  0  0  0  0  0  0  0  0  0
    2.0353    0.9420    0.8217 H   0  0  0  0  0  0  0  0  0  0  0  0
    1.7931    1.2749    2.5501 H   0  0  0  0  0  0  0  0  0  0  0  0
    0.1523   -3.0701    2.0178 N   0  0  0  0  0  0  0  0  0  0  0  0
   -0.1603   -4.4071    2.4651 C   0  0  2  0  0  0  0  0  0  0  0  0
    0.6203   -5.3872    1.5995 C   0  0  0  0  0  0  0  0  0  0  0  0
    1.0391   -5.1059    0.4785 O   0  0  0  0  0  0  0  0  0  0  0  0
   -1.6539   -4.6820    2.3859 C   0  0  0  0  0  0  0  0  0  0  0  0
    0.8179   -2.5196    2.5524 H   0  0  0  0  0  0  0  0  0  0  0  0
    0.1829   -4.4817    3.5027 H   0  0  0  0  0  0  0  0  0  0  0  0
   -2.0162   -4.6116    1.3537 H   0  0  0  0  0  0  0  0  0  0  0  0
   -1.8926   -5.6859    2.7522 H   0  0  0  0  0  0  0  0  0  0  0  0
   -2.2159   -3.9577    2.9854 H   0  0  0  0  0  0  0  0  0  0  0  0
    0.7569   -6.6270    2.2082 N   0  0  0  0  0  0  0  0  0  0  0  0
    1.4472   -7.7308    1.5828 C   0  0  0  0  0  0  0  0  0  0  0  0
    0.3945   -6.7653    3.1469 H   0  0  0  0  0  0  0  0  0  0  0  0
    0.7255   -8.3481    1.0278 H   0  0  0  0  0  0  0  0  0  0  0  0
    2.2070   -7.3420    0.8888 H   0  0  0  0  0  0  0  0  0  0  0  0
    1.9353   -8.3429    2.3555 H   0  0  0  0  0  0  0  0  0  0  0  0
  1  3  1  0  0  0  0
  1  7  1  0  0  0  0
  1  2  2  0  0  0  0
 32 33  1  0  0  0  0
 33 41  1  0  0  0  0
 33 34  2  0  0  0  0
  8  9  1  0  0  0  0
  9 17  1  0  0  0  0
  9 10  2  0  0  0  0
 18 19  1  0  0  0  0
 19 31  1  0  0  0  0
 19 20  2  0  0  0  0
 32 35  1  0  0  0  0
  8 11  1  0  0  0  0
 21 23  1  0  0  0  0
 41 42  1  0  0  0  0
 31 32  1  0  0  0  0
  7  8  1  0  0  0  0
 18 21  1  0  0  0  0
 17 18  1  0  0  0  0
 21 22  1  0  0  0  0
  3  4  1  0  0  0  0
  3  5  1  0  0  0  0
  3  6  1  0  0  0  0
 35 38  1  0  0  0  0
 35 39  1  0  0  0  0
 35 40  1  0  0  0  0
 11 14  1  0  0  0  0
 11 15  1  0  0  0  0
 11 16  1  0  0  0  0
 23 28  1  0  0  0  0
 23 29  1  0  0  0  0
 23 30  1  0  0  0  0
 42 44  1  0  0  0  0
 42 45  1  0  0  0  0
 42 46  1  0  0  0  0
 32 37  1  0  0  0  0
  8 13  1  0  0  0  0
 18 25  1  0  0  0  0
 21 26  1  0  0  0  0
 41 43  1  0  0  0  0
  7 12  1  0  0  0  0
 31 36  1  0  0  0  0
 17 24  1  0  0  0  0
 22 27  1  0  0  0  0
M  END
$$$$

  -OEChem-05262214473D

 46 45  0     1  0  0  0  0  0999 V2000
   -4.6700    2.7214    1.5150 C   0  0  0  0  0  0  0  0  0  0  0  0
   -5.4532    2.5715    0.5845 O   0  0  0  0  0  0  0  0  0  0  0  0
   -5.0996    3.4865    2.7226 C   0  0  0  0  0  0  0  0  0  0  0  0
   -4.8796    4.5629    2.6387 H   0  0  0  0  0  0  0  0  0  0  0  0
   -6.1861    3.4241    2.8954 H   0  0  0  0  0  0  0  0  0  0  0  0
   -4.6369    3.1693    3.6708 H   0  0  0  0  0  0  0  0  0  0  0  0
   -3.3731    2.2391    1.5790 N   0  0  0  0  0  0  0  0  0  0  0  0
   -2.7599    1.4751    0.5247 C   0  0  2  0  0  0  0  0  0  0  0  0
   -1.5143    0.8067    1.0915 C   0  0  0  0  0  0  0  0  0  0  0  0
   -0.9247    1.2213    2.0872 O   0  0  0  0  0  0  0  0  0  0  0  0
   -2.4106    2.3553   -0.6653 C   0  0  0  0  0  0  0  0  0  0  0  0
   -2.8254    2.4352    2.4150 H   0  0  0  0  0  0  0  0  0  0  0  0
   -3.4836    0.7082    0.2278 H   0  0  0  0  0  0  0  0  0  0  0  0
   -1.6866    3.1298   -0.3871 H   0  0  0  0  0  0  0  0  0  0  0  0
   -1.9704    1.7677   -1.4777 H   0  0  0  0  0  0  0  0  0  0  0  0
   -3.3030    2.8584   -1.0531 H   0  0  0  0  0  0  0  0  0  0  0  0
   -1.1107   -0.2839    0.3303 N   0  0  0  0  0  0  0  0  0  0  0  0
    0.0490   -1.0750    0.6539 C   0  0  2  0  0  0  0  0  0  0  0  0
   -0.4211   -2.5081    0.8859 C   0  0  0  0  0  0  0  0  0  0  0  0
   -1.0286   -3.1597    0.0388 O   0  0  0  0  0  0  0  0  0  0  0  0
    0.8212   -0.5310    1.8647 C   0  0  2  0  0  0  0  0  0  0  0  0
   -0.0021   -0.5310    3.0300 O   0  0  0  0  0  0  0  0  0  0  0  0
    1.3128    0.8942    1.6420 C   0  0  0  0  0  0  0  0  0  0  0  0
   -1.6733   -0.5660   -0.4691 H   0  0  0  0  0  0  0  0  0  0  0  0
    0.6910   -1.0625   -0.2353 H   0  0  0  0  0  0  0  0  0  0  0  0
    1.6882   -1.1665    2.0793 H   0  0  0  0  0  0  0  0  0  0  0  0
    0.5566   -0.2261    3.7610 H   0  0  0  0  0  0  0  0  0  0  0  0
    0.4826    1.5742    1.4226 H   0  0  0  0  0  0  0  0  0  0  0  0
    2.0353    0.9420    0.8217 H   0  0  0  0  0  0  0  0  0  0  0  0
    1.7931    1.2749    2.5501 H   0  0  0  0  0  0  0  0  0  0  0  0
   -0.1257   -2.9549    2.1661 N   0  0  0  0  0  0  0  0  0  0  0  0
   -0.4987   -4.2684    2.6362 C   0  0  2  0  0  0  0  0  0  0  0  0
    0.4985   -5.2710    2.0707 C   0  0  0  0  0  0  0  0  0  0  0  0
    1.1704   -5.0541    1.0644 O   0  0  0  0  0  0  0  0  0  0  0  0
   -1.9188   -4.6216    2.2221 C   0  0  0  0  0  0  0  0  0  0  0  0
    0.3723   -2.3338    2.7971 H   0  0  0  0  0  0  0  0  0  0  0  0
   -0.4177   -4.2482    3.7284 H   0  0  0  0  0  0  0  0  0  0  0  0
   -2.0194   -4.6467    1.1309 H   0  0  0  0  0  0  0  0  0  0  0  0
   -2.2101   -5.6058    2.6036 H   0  0  0  0  0  0  0  0  0  0  0  0
   -2.6314   -3.8830    2.6047 H   0  0  0  0  0  0  0  0  0  0  0  0
    0.5185   -6.4534    2.7970 N   0  0  0  0  0  0  0  0  0  0  0  0
    1.3731   -7.5656    2.4525 C   0  0  0  0  0  0  0  0  0  0  0  0
   -0.0583   -6.5388    3.6287 H   0  0  0  0  0  0  0  0  0  0  0  0
    0.8277   -8.2576    1.7940 H   0  0  0  0  0  0  0  0  0  0  0  0
    2.2678   -7.1930    1.9323 H   0  0  0  0  0  0  0  0  0  0  0  0
    1.6752   -8.0935    3.3691 H   0  0  0  0  0  0  0  0  0  0  0  0
  1  3  1  0  0  0  0
  1  7  1  0  0  0  0
  1  2  2  0  0  0  0
 32 33  1  0  0  0  0
 33 41  1  0  0  0  0
 33 34  2  0  0  0  0
  8  9  1  0  0  0  0
  9 17  1  0  0  0  0
  9 10  2  0  0  0  0
 18 19  1  0  0  0  0
 19 31  1  0  0  0  0
 19 20  2  0  0  0  0
 32 35  1  0  0  0  0
  8 11  1  0  0  0  0
 21 23  1  0  0  0  0
 41 42  1  0  0  0  0
 31 32  1  0  0  0  0
  7  8  1  0  0  0  0
 18 21  1  0  0  0  0
 17 18  1  0  0  0  0
 21 22  1  0  0  0  0
  3  4  1  0  0  0  0
  3  5  1  0  0  0  0
  3  6  1  0  0  0  0
 35 38  1  0  0  0  0
 35 39  1  0  0  0  0
 35 40  1  0  0  0  0
 11 14  1  0  0  0  0
 11 15  1  0  0  0  0
 11 16  1  0  0  0  0
 23 28  1  0  0  0  0
 23 29  1  0  0  0  0
 23 30  1  0  0  0  0
 42 44  1  0  0  0  0
 42 45  1  0  0  0  0
 42 46  1  0  0  0  0
 32 37  1  0  0  0  0
  8 13  1  0  0  0  0
 18 25  1  0  0  0  0
 21 26  1  0  0  0  0
 41 43  1  0  0  0  0
  7 12  1  0  0  0  0
 31 36  1  0  0  0  0
 17 24  1  0  0  0  0
 22 27  1  0  0  0  0
M  END
$$$$

  -OEChem-05262214473D

 46 45  0     1  0  0  0  0  0999 V2000
   -4.6700    2.7214    1.5150 C   0  0  0  0  0  0  0  0  0  0  0  0
   -5.4532    2.5715    0.5845 O   0  0  0  0  0  0  0  0  0  0  0  0
   -5.0996    3.4865    2.7226 C   0  0  0  0  0  0  0  0  0  0  0  0
   -4.8796    4.5629    2.6387 H   0  0  0  0  0  0  0  0  0  0  0  0
   -6.1861    3.4241    2.8954 H   0  0  0  0  0  0  0  0  0  0  0  0
   -4.6369    3.1693    3.6708 H   0  0  0  0  0  0  0  0  0  0  0  0
   -3.3731    2.2391    1.5790 N   0  0  0  0  0  0  0  0  0  0  0  0
   -2.7599    1.4751    0.5247 C   0  0  2  0  0  0  0  0  0  0  0  0
   -1.5143    0.8067    1.0915 C   0  0  0  0  0  0  0  0  0  0  0  0
   -0.9247    1.2213    2.0872 O   0  0  0  0  0  0  0  0  0  0  0  0
   -2.4106    2.3553   -0.6653 C   0  0  0  0  0  0  0  0  0  0  0  0
   -2.8254    2.4352    2.4150 H   0  0  0  0  0  0  0  0  0  0  0  0
   -3.4836    0.7082    0.2278 H   0  0  0  0  0  0  0  0  0  0  0  0
   -1.6866    3.1298   -0.3871 H   0  0  0  0  0  0  0  0  0  0  0  0
   -1.9704    1.7677   -1.4777 H   0  0  0  0  0  0  0  0  0  0  0  0
   -3.3030    2.8584   -1.0531 H   0  0  0  0  0  0  0  0  0  0  0  0
   -1.1107   -0.2839    0.3303 N   0  0  0  0  0  0  0  0  0  0  0  0
    0.0490   -1.0750    0.6539 C   0  0  2  0  0  0  0  0  0  0  0  0
   -0.4211   -2.5081    0.8859 C   0  0  0  0  0  0  0  0  0  0  0  0
   -0.7834   -3.2504   -0.0246 O   0  0  0  0  0  0  0  0  0  0  0  0
    0.8212   -0.5310    1.8647 C   0  0  2  0  0  0  0  0  0  0  0  0
   -0.0021   -0.5310    3.0300 O   0  0  0  0  0  0  0  0  0  0  0  0
    1.3128    0.8942    1.6420 C   0  0  0  0  0  0  0  0  0  0  0  0
   -1.6733   -0.5660   -0.4691 H   0  0  0  0  0  0  0  0  0  0  0  0
    0.6910   -1.0625   -0.2353 H   0  0  0  0  0  0  0  0  0  0  0  0
    1.6882   -1.1665    2.0793 H   0  0  0  0  0  0  0  0  0  0  0  0
    0.5566   -0.2261    3.7610 H   0  0  0  0  0  0  0  0  0  0  0  0
    0.4826    1.5742    1.4226 H   0  0  0  0  0  0  0  0  0  0  0  0
    2.0353    0.9420    0.8217 H   0  0  0  0  0  0  0  0  0  0  0  0
    1.7931    1.2749    2.5501 H   0  0  0  0  0  0  0  0  0  0  0  0
   -0.4349   -2.8427    2.2326 N   0  0  0  0  0  0  0  0  0  0  0  0
   -0.8726   -4.1341    2.7081 C   0  0  2  0  0  0  0  0  0  0  0  0
    0.2618   -5.1259    2.4870 C   0  0  0  0  0  0  0  0  0  0  0  0
    1.1527   -4.9522    1.6581 O   0  0  0  0  0  0  0  0  0  0  0  0
   -2.1371   -4.5868    1.9948 C   0  0  0  0  0  0  0  0  0  0  0  0
   -0.1250   -2.1524    2.9103 H   0  0  0  0  0  0  0  0  0  0  0  0
   -1.0620   -4.0282    3.7818 H   0  0  0  0  0  0  0  0  0  0  0  0
   -1.9669   -4.6984    0.9177 H   0  0  0  0  0  0  0  0  0  0  0  0
   -2.4838   -5.5528    2.3765 H   0  0  0  0  0  0  0  0  0  0  0  0
   -2.9432   -3.8576    2.1301 H   0  0  0  0  0  0  0  0  0  0  0  0
    0.1384   -6.2483    3.2941 N   0  0  0  0  0  0  0  0  0  0  0  0
    1.0837   -7.3397    3.2615 C   0  0  0  0  0  0  0  0  0  0  0  0
   -0.6216   -6.2994    3.9660 H   0  0  0  0  0  0  0  0  0  0  0  0
    0.7366   -8.1050    2.5516 H   0  0  0  0  0  0  0  0  0  0  0  0
    2.0671   -6.9635    2.9430 H   0  0  0  0  0  0  0  0  0  0  0  0
    1.1677   -7.7819    4.2652 H   0  0  0  0  0  0  0  0  0  0  0  0
  1  3  1  0  0  0  0
  1  7  1  0  0  0  0
  1  2  2  0  0  0  0
 32 33  1  0  0  0  0
 33 41  1  0  0  0  0
 33 34  2  0  0  0  0
  8  9  1  0  0  0  0
  9 17  1  0  0  0  0
  9 10  2  0  0  0  0
 18 19  1  0  0  0  0
 19 31  1  0  0  0  0
 19 20  2  0  0  0  0
 32 35  1  0  0  0  0
  8 11  1  0  0  0  0
 21 23  1  0  0  0  0
 41 42  1  0  0  0  0
 31 32  1  0  0  0  0
  7  8  1  0  0  0  0
 18 21  1  0  0  0  0
 17 18  1  0  0  0  0
 21 22  1  0  0  0  0
  3  4  1  0  0  0  0
  3  5  1  0  0  0  0
  3  6  1  0  0  0  0
 35 38  1  0  0  0  0
 35 39  1  0  0  0  0
 35 40  1  0  0  0  0
 11 14  1  0  0  0  0
 11 15  1  0  0  0  0
 11 16  1  0  0  0  0
 23 28  1  0  0  0  0
 23 29  1  0  0  0  0
 23 30  1  0  0  0  0
 42 44  1  0  0  0  0
 42 45  1  0  0  0  0
 42 46  1  0  0  0  0
 32 37  1  0  0  0  0
  8 13  1  0  0  0  0
 18 25  1  0  0  0  0
 21 26  1  0  0  0  0
 41 43  1  0  0  0  0
  7 12  1  0  0  0  0
 31 36  1  0  0  0  0
 17 24  1  0  0  0  0
 22 27  1  0  0  0  0
M  END
$$$$

  -OEChem-05262214473D

 46 45  0     1  0  0  0  0  0999 V2000
   -4.6700    2.7214    1.5150 C   0  0  0  0  0  0  0  0  0  0  0  0
   -5.4532    2.5715    0.5845 O   0  0  0  0  0  0  0  0  0  0  0  0
   -5.0996    3.4865    2.7226 C   0  0  0  0  0  0  0  0  0  0  0  0
   -4.8796    4.5629    2.6387 H   0  0  0  0  0  0  0  0  0  0  0  0
   -6.1861    3.4241    2.8954 H   0  0  0  0  0  0  0  0  0  0  0  0
   -4.6369    3.1693    3.6708 H   0  0  0  0  0  0  0  0  0  0  0  0
   -3.3731    2.2391    1.5790 N   0  0  0  0  0  0  0  0  0  0  0  0
   -2.7599    1.4751    0.5247 C   0  0  2  0  0  0  0  0  0  0  0  0
   -1.5143    0.8067    1.0915 C   0  0  0  0  0  0  0  0  0  0  0  0
   -0.9247    1.2213    2.0872 O   0  0  0  0  0  0  0  0  0  0  0  0
   -2.4106    2.3553   -0.6653 C   0  0  0  0  0  0  0  0  0  0  0  0
   -2.8254    2.4352    2.4150 H   0  0  0  0  0  0  0  0  0  0  0  0
   -3.4836    0.7082    0.2278 H   0  0  0  0  0  0  0  0  0  0  0  0
   -1.6866    3.1298   -0.3871 H   0  0  0  0  0  0  0  0  0  0  0  0
   -1.9704    1.7677   -1.4777 H   0  0  0  0  0  0  0  0  0  0  0  0
   -3.3030    2.8584   -1.0531 H   0  0  0  0  0  0  0  0  0  0  0  0
   -1.1107   -0.2839    0.3303 N   0  0  0  0  0  0  0  0  0  0  0  0
    0.0490   -1.0750    0.6539 C   0  0  2  0  0  0  0  0  0  0  0  0
   -0.4211   -2.5081    0.8859 C   0  0  0  0  0  0  0  0  0  0  0  0
   -0.5276   -3.3334   -0.0190 O   0  0  0  0  0  0  0  0  0  0  0  0
    0.8212   -0.5310    1.8647 C   0  0  2  0  0  0  0  0  0  0  0  0
   -0.0021   -0.5310    3.0300 O   0  0  0  0  0  0  0  0  0  0  0  0
    1.3128    0.8942    1.6420 C   0  0  0  0  0  0  0  0  0  0  0  0
   -1.6733   -0.5660   -0.4691 H   0  0  0  0  0  0  0  0  0  0  0  0
    0.6910   -1.0625   -0.2353 H   0  0  0  0  0  0  0  0  0  0  0  0
    1.6882   -1.1665    2.0793 H   0  0  0  0  0  0  0  0  0  0  0  0
    0.5566   -0.2261    3.7610 H   0  0  0  0  0  0  0  0  0  0  0  0
    0.4826    1.5742    1.4226 H   0  0  0  0  0  0  0  0  0  0  0  0
    2.0353    0.9420    0.8217 H   0  0  0  0  0  0  0  0  0  0  0  0
    1.7931    1.2749    2.5501 H   0  0  0  0  0  0  0  0  0  0  0  0
   -0.7540   -2.7412    2.2128 N   0  0  0  0  0  0  0  0  0  0  0  0
   -1.2566   -4.0134    2.6759 C   0  0  2  0  0  0  0  0  0  0  0  0
   -0.0738   -4.9619    2.8201 C   0  0  0  0  0  0  0  0  0  0  0  0
    0.9874   -4.8071    2.2192 O   0  0  0  0  0  0  0  0  0  0  0  0
   -2.2942   -4.5799    1.7193 C   0  0  0  0  0  0  0  0  0  0  0  0
   -0.6399   -1.9877    2.8843 H   0  0  0  0  0  0  0  0  0  0  0  0
   -1.7059   -3.8369    3.6593 H   0  0  0  0  0  0  0  0  0  0  0  0
   -1.8624   -4.7633    0.7287 H   0  0  0  0  0  0  0  0  0  0  0  0
   -2.6950   -5.5305    2.0863 H   0  0  0  0  0  0  0  0  0  0  0  0
   -3.1300   -3.8831    1.5938 H   0  0  0  0  0  0  0  0  0  0  0  0
   -0.3577   -6.0254    3.6654 N   0  0  0  0  0  0  0  0  0  0  0  0
    0.5986   -7.0684    3.9545 C   0  0  0  0  0  0  0  0  0  0  0  0
   -1.2572   -6.0635    4.1358 H   0  0  0  0  0  0  0  0  0  0  0  0
    0.4585   -7.9009    3.2492 H   0  0  0  0  0  0  0  0  0  0  0  0
    1.6185   -6.6692    3.8523 H   0  0  0  0  0  0  0  0  0  0  0  0
    0.4475   -7.4296    4.9825 H   0  0  0  0  0  0  0  0  0  0  0  0
  1  3  1  0  0  0  0
  1  7  1  0  0  0  0
  1  2  2  0  0  0  0
 32 33  1  0  0  0  0
 33 41  1  0  0  0  0
 33 34  2  0  0  0  0
  8  9  1  0  0  0  0
  9 17  1  0  0  0  0
  9 10  2  0  0  0  0
 18 19  1  0  0  0  0
 19 31  1  0  0  0  0
 19 20  2  0  0  0  0
 32 35  1  0  0  0  0
  8 11  1  0  0  0  0
 21 23  1  0  0  0  0
 41 42  1  0  0  0  0
 31 32  1  0  0  0  0
  7  8  1  0  0  0  0
 18 21  1  0  0  0  0
 17 18  1  0  0  0  0
 21 22  1  0  0  0  0
  3  4  1  0  0  0  0
  3  5  1  0  0  0  0
  3  6  1  0  0  0  0
 35 38  1  0  0  0  0
 35 39  1  0  0  0  0
 35 40  1  0  0  0  0
 11 14  1  0  0  0  0
 11 15  1  0  0  0  0
 11 16  1  0  0  0  0
 23 28  1  0  0  0  0
 23 29  1  0  0  0  0
 23 30  1  0  0  0  0
 42 44  1  0  0  0  0
 42 45  1  0  0  0  0
 42 46  1  0  0  0  0
 32 37  1  0  0  0  0
  8 13  1  0  0  0  0
 18 25  1  0  0  0  0
 21 26  1  0  0  0  0
 41 43  1  0  0  0  0
  7 12  1  0  0  0  0
 31 36  1  0  0  0  0
 17 24  1  0  0  0  0
 22 27  1  0  0  0  0
M  END
$$$$

  -OEChem-05262214473D

 46 45  0     1  0  0  0  0  0999 V2000
   -4.6700    2.7214    1.5150 C   0  0  0  0  0  0  0  0  0  0  0  0
   -5.4532    2.5715    0.5845 O   0  0  0  0  0  0  0  0  0  0  0  0
   -5.0996    3.4865    2.7226 C   0  0  0  0  0  0  0  0  0  0  0  0
   -4.8796    4.5629    2.6387 H   0  0  0  0  0  0  0  0  0  0  0  0
   -6.1861    3.4241    2.8954 H   0  0  0  0  0  0  0  0  0  0  0  0
   -4.6369    3.1693    3.6708 H   0  0  0  0  0  0  0  0  0  0  0  0
   -3.3731    2.2391    1.5790 N   0  0  0  0  0  0  0  0  0  0  0  0
   -2.7599    1.4751    0.5247 C   0  0  2  0  0  0  0  0  0  0  0  0
   -1.5143    0.8067    1.0915 C   0  0  0  0  0  0  0  0  0  0  0  0
   -0.9247    1.2213    2.0872 O   0  0  0  0  0  0  0  0  0  0  0  0
   -2.4106    2.3553   -0.6653 C   0  0  0  0  0  0  0  0  0  0  0  0
   -2.8254    2.4352    2.4150 H   0  0  0  0  0  0  0  0  0  0  0  0
   -3.4836    0.7082    0.2278 H   0  0  0  0  0  0  0  0  0  0  0  0
   -1.6866    3.1298   -0.3871 H   0  0  0  0  0  0  0  0  0  0  0  0
   -1.9704    1.7677   -1.4777 H   0  0  0  0  0  0  0  0  0  0  0  0
   -3.3030    2.8584   -1.0531 H   0  0  0  0  0  0  0  0  0  0  0  0
   -1.1107   -0.2839    0.3303 N   0  0  0  0  0  0  0  0  0  0  0  0
    0.0490   -1.0750    0.6539 C   0  0  2  0  0  0  0  0  0  0  0  0
   -0.4211   -2.5081    0.8859 C   0  0  0  0  0  0  0  0  0  0  0  0
   -0.2785   -3.4031    0.0553 O   0  0  0  0  0  0  0  0  0  0  0  0
    0.8212   -0.5310    1.8647 C   0  0  2  0  0  0  0  0  0  0  0  0
   -0.0021   -0.5310    3.0300 O   0  0  0  0  0  0  0  0  0  0  0  0
    1.3128    0.8942    1.6420 C   0  0  0  0  0  0  0  0  0  0  0  0
   -1.6733   -0.5660   -0.4691 H   0  0  0  0  0  0  0  0  0  0  0  0
    0.6910   -1.0625   -0.2353 H   0  0  0  0  0  0  0  0  0  0  0  0
    1.6882   -1.1665    2.0793 H   0  0  0  0  0  0  0  0  0  0  0  0
    0.5566   -0.2261    3.7610 H   0  0  0  0  0  0  0  0  0  0  0  0
    0.4826    1.5742    1.4226 H   0  0  0  0  0  0  0  0  0  0  0  0
    2.0353    0.9420    0.8217 H   0  0  0  0  0  0  0  0  0  0  0  0
    1.7931    1.2749    2.5501 H   0  0  0  0  0  0  0  0  0  0  0  0
   -1.0615   -2.6574    2.1079 N   0  0  0  0  0  0  0  0  0  0  0  0
   -1.6243   -3.9144    2.5419 C   0  0  2  0  0  0  0  0  0  0  0  0
   -0.4853   -4.7902    3.0471 C   0  0  0  0  0  0  0  0  0  0  0  0
    0.6855   -4.6288    2.7094 O   0  0  0  0  0  0  0  0  0  0  0  0
   -2.3792   -4.6013    1.4145 C   0  0  0  0  0  0  0  0  0  0  0  0
   -1.1374   -1.8510    2.7210 H   0  0  0  0  0  0  0  0  0  0  0  0
   -2.3056   -3.6871    3.3691 H   0  0  0  0  0  0  0  0  0  0  0  0
   -1.7130   -4.8369    0.5766 H   0  0  0  0  0  0  0  0  0  0  0  0
   -2.8294   -5.5404    1.7529 H   0  0  0  0  0  0  0  0  0  0  0  0
   -3.1791   -3.9579    1.0324 H   0  0  0  0  0  0  0  0  0  0  0  0
   -0.9360   -5.8001    3.8857 N   0  0  0  0  0  0  0  0  0  0  0  0
   -0.0491   -6.7702    4.4843 C   0  0  0  0  0  0  0  0  0  0  0  0
   -1.9217   -5.8470    4.1265 H   0  0  0  0  0  0  0  0  0  0  0  0
    0.0122   -7.6590    3.8391 H   0  0  0  0  0  0  0  0  0  0  0  0
    0.9526   -6.3300    4.5980 H   0  0  0  0  0  0  0  0  0  0  0  0
   -0.4364   -7.0604    5.4722 H   0  0  0  0  0  0  0  0  0  0  0  0
  1  3  1  0  0  0  0
  1  7  1  0  0  0  0
  1  2  2  0  0  0  0
 32 33  1  0  0  0  0
 33 41  1  0  0  0  0
 33 34  2  0  0  0  0
  8  9  1  0  0  0  0
  9 17  1  0  0  0  0
  9 10  2  0  0  0  0
 18 19  1  0  0  0  0
 19 31  1  0  0  0  0
 19 20  2  0  0  0  0
 32 35  1  0  0  0  0
  8 11  1  0  0  0  0
 21 23  1  0  0  0  0
 41 42  1  0  0  0  0
 31 32  1  0  0  0  0
  7  8  1  0  0  0  0
 18 21  1  0  0  0  0
 17 18  1  0  0  0  0
 21 22  1  0  0  0  0
  3  4  1  0  0  0  0
  3  5  1  0  0  0  0
  3  6  1  0  0  0  0
 35 38  1  0  0  0  0
 35 39  1  0  0  0  0
 35 40  1  0  0  0  0
 11 14  1  0  0  0  0
 11 15  1  0  0  0  0
 11 16  1  0  0  0  0
 23 28  1  0  0  0  0
 23 29  1  0  0  0  0
 23 30  1  0  0  0  0
 42 44  1  0  0  0  0
 42 45  1  0  0  0  0
 42 46  1  0  0  0  0
 32 37  1  0  0  0  0
  8 13  1  0  0  0  0
 18 25  1  0  0  0  0
 21 26  1  0  0  0  0
 41 43  1  0  0  0  0
  7 12  1  0  0  0  0
 31 36  1  0  0  0  0
 17 24  1  0  0  0  0
 22 27  1  0  0  0  0
M  END
$$$$

  -OEChem-05262214473D

 46 45  0     1  0  0  0  0  0999 V2000
   -4.6700    2.7214    1.5150 C   0  0  0  0  0  0  0  0  0  0  0  0
   -5.4532    2.5715    0.5845 O   0  0  0  0  0  0  0  0  0  0  0  0
   -5.0996    3.4865    2.7226 C   0  0  0  0  0  0  0  0  0  0  0  0
   -4.8796    4.5629    2.6387 H   0  0  0  0  0  0  0  0  0  0  0  0
   -6.1861    3.4241    2.8954 H   0  0  0  0  0  0  0  0  0  0  0  0
   -4.6369    3.1693    3.6708 H   0  0  0  0  0  0  0  0  0  0  0  0
   -3.3731    2.2391    1.5790 N   0  0  0  0  0  0  0  0  0  0  0  0
   -2.7599    1.4751    0.5247 C   0  0  2  0  0  0  0  0  0  0  0  0
   -1.5143    0.8067    1.0915 C   0  0  0  0  0  0  0  0  0  0  0  0
   -0.9247    1.2213    2.0872 O   0  0  0  0  0  0  0  0  0  0  0  0
   -2.4106    2.3553   -0.6653 C   0  0  0  0  0  0  0  0  0  0  0  0
   -2.8254    2.4352    2.4150 H   0  0  0  0  0  0  0  0  0  0  0  0
   -3.4836    0.7082    0.2278 H   0  0  0  0  0  0  0  0  0  0  0  0
   -1.6866    3.1298   -0.3871 H   0  0  0  0  0  0  0  0  0  0  0  0
   -1.9704    1.7677   -1.4777 H   0  0  0  0  0  0  0  0  0  0  0  0
   -3.3030    2.8584   -1.0531 H   0  0  0  0  0  0  0  0  0  0  0  0
   -1.1107   -0.2839    0.3303 N   0  0  0  0  0  0  0  0  0  0  0  0
    0.0490   -1.0750    0.6539 C   0  0  2  0  0  0  0  0  0  0  0  0
   -0.4211   -2.5081    0.8859 C   0  0  0  0  0  0  0  0  0  0  0  0
   -0.0533   -3.4546    0.1930 O   0  0  0  0  0  0  0  0  0  0  0  0
    0.8212   -0.5310    1.8647 C   0  0  2  0  0  0  0  0  0  0  0  0
   -0.0021   -0.5310    3.0300 O   0  0  0  0  0  0  0  0  0  0  0  0
    1.3128    0.8942    1.6420 C   0  0  0  0  0  0  0  0  0  0  0  0
   -1.6733   -0.5660   -0.4691 H   0  0  0  0  0  0  0  0  0  0  0  0
    0.6910   -1.0625   -0.2353 H   0  0  0  0  0  0  0  0  0  0  0  0
    1.6882   -1.1665    2.0793 H   0  0  0  0  0  0  0  0  0  0  0  0
    0.5566   -0.2261    3.7610 H   0  0  0  0  0  0  0  0  0  0  0  0
    0.4826    1.5742    1.4226 H   0  0  0  0  0  0  0  0  0  0  0  0
    2.0353    0.9420    0.8217 H   0  0  0  0  0  0  0  0  0  0  0  0
    1.7931    1.2749    2.5501 H   0  0  0  0  0  0  0  0  0  0  0  0
   -1.3363   -2.5968    1.9252 N   0  0  0  0  0  0  0  0  0  0  0  0
   -1.9509   -3.8440    2.3152 C   0  0  2  0  0  0  0  0  0  0  0  0
   -0.9448   -4.6224    3.1527 C   0  0  0  0  0  0  0  0  0  0  0  0
    0.2678   -4.4293    3.0953 O   0  0  0  0  0  0  0  0  0  0  0  0
   -2.3864   -4.6497    1.1012 C   0  0  0  0  0  0  0  0  0  0  0  0
   -1.5837   -1.7515    2.4313 H   0  0  0  0  0  0  0  0  0  0  0  0
   -2.8202   -3.5892    2.9311 H   0  0  0  0  0  0  0  0  0  0  0  0
   -1.5288   -4.9143    0.4720 H   0  0  0  0  0  0  0  0  0  0  0  0
   -2.8778   -5.5818    1.3990 H   0  0  0  0  0  0  0  0  0  0  0  0
   -3.0871   -4.0769    0.4842 H   0  0  0  0  0  0  0  0  0  0  0  0
   -1.5569   -5.5876    3.9400 N   0  0  0  0  0  0  0  0  0  0  0  0
   -0.8152   -6.4654    4.8149 C   0  0  0  0  0  0  0  0  0  0  0  0
   -2.5697   -5.6649    3.9387 H   0  0  0  0  0  0  0  0  0  0  0  0
   -0.5718   -7.3959    4.2812 H   0  0  0  0  0  0  0  0  0  0  0  0
    0.1147   -5.9691    5.1294 H   0  0  0  0  0  0  0  0  0  0  0  0
   -1.4237   -6.6995    5.7009 H   0  0  0  0  0  0  0  0  0  0  0  0
  1  3  1  0  0  0  0
  1  7  1  0  0  0  0
  1  2  2  0  0  0  0
 32 33  1  0  0  0  0
 33 41  1  0  0  0  0
 33 34  2  0  0  0  0
  8  9  1  0  0  0  0
  9 17  1  0  0  0  0
  9 10  2  0  0  0  0
 18 19  1  0  0  0  0
 19 31  1  0  0  0  0
 19 20  2  0  0  0  0
 32 35  1  0  0  0  0
  8 11  1  0  0  0  0
 21 23  1  0  0  0  0
 41 42  1  0  0  0  0
 31 32  1  0  0  0  0
  7  8  1  0  0  0  0
 18 21  1  0  0  0  0
 17 18  1  0  0  0  0
 21 22  1  0  0  0  0
  3  4  1  0  0  0  0
  3  5  1  0  0  0  0
  3  6  1  0  0  0  0
 35 38  1  0  0  0  0
 35 39  1  0  0  0  0
 35 40  1  0  0  0  0
 11 14  1  0  0  0  0
 11 15  1  0  0  0  0
 11 16  1  0  0  0  0
 23 28  1  0  0  0  0
 23 29  1  0  0  0  0
 23 30  1  0  0  0  0
 42 44  1  0  0  0  0
 42 45  1  0  0  0  0
 42 46  1  0  0  0  0
 32 37  1  0  0  0  0
  8 13  1  0  0  0  0
 18 25  1  0  0  0  0
 21 26  1  0  0  0  0
 41 43  1  0  0  0  0
  7 12  1  0  0  0  0
 31 36  1  0  0  0  0
 17 24  1  0  0  0  0
 22 27  1  0  0  0  0
M  END
$$$$

  -OEChem-05262214473D

 46 45  0     1  0  0  0  0  0999 V2000
   -4.6700    2.7214    1.5150 C   0  0  0  0  0  0  0  0  0  0  0  0
   -5.4532    2.5715    0.5845 O   0  0  0  0  0  0  0  0  0  0  0  0
   -5.0996    3.4865    2.7226 C   0  0  0  0  0  0  0  0  0  0  0  0
   -4.8796    4.5629    2.6387 H   0  0  0  0  0  0  0  0  0  0  0  0
   -6.1861    3.4241    2.8954 H   0  0  0  0  0  0  0  0  0  0  0  0
   -4.6369    3.1693    3.6708 H   0  0  0  0  0  0  0  0  0  0  0  0
   -3.3731    2.2391    1.5790 N   0  0  0  0  0  0  0  0  0  0  0  0
   -2.7599    1.4751    0.5247 C   0  0  2  0  0  0  0  0  0  0  0  0
   -1.5143    0.8067    1.0915 C   0  0  0  0  0  0  0  0  0  0  0  0
   -0.9247    1.2213    2.0872 O   0  0  0  0  0  0  0  0  0  0  0  0
   -2.4106    2.3553   -0.6653 C   0  0  0  0  0  0  0  0  0  0  0  0
   -2.8254    2.4352    2.4150 H   0  0  0  0  0  0  0  0  0  0  0  0
   -3.4836    0.7082    0.2278 H   0  0  0  0  0  0  0  0  0  0  0  0
   -1.6866    3.1298   -0.3871 H   0  0  0  0  0  0  0  0  0  0  0  0
   -1.9704    1.7677   -1.4777 H   0  0  0  0  0  0  0  0  0  0  0  0
   -3.3030    2.8584   -1.0531 H   0  0  0  0  0  0  0  0  0  0  0  0
   -1.1107   -0.2839    0.3303 N   0  0  0  0  0  0  0  0  0  0  0  0
    0.0490   -1.0750    0.6539 C   0  0  2  0  0  0  0  0  0  0  0  0
   -0.4211   -2.5081    0.8859 C   0  0  0  0  0  0  0  0  0  0  0  0
    0.1328   -3.4846    0.3850 O   0  0  0  0  0  0  0  0  0  0  0  0
    0.8212   -0.5310    1.8647 C   0  0  2  0  0  0  0  0  0  0  0  0
   -0.0021   -0.5310    3.0300 O   0  0  0  0  0  0  0  0  0  0  0  0
    1.3128    0.8942    1.6420 C   0  0  0  0  0  0  0  0  0  0  0  0
   -1.6733   -0.5660   -0.4691 H   0  0  0  0  0  0  0  0  0  0  0  0
    0.6910   -1.0625   -0.2353 H   0  0  0  0  0  0  0  0  0  0  0  0
    1.6882   -1.1665    2.0793 H   0  0  0  0  0  0  0  0  0  0  0  0
    0.5566   -0.2261    3.7610 H   0  0  0  0  0  0  0  0  0  0  0  0
    0.4826    1.5742    1.4226 H   0  0  0  0  0  0  0  0  0  0  0  0
    2.0353    0.9420    0.8217 H   0  0  0  0  0  0  0  0  0  0  0  0
    1.7931    1.2749    2.5501 H   0  0  0  0  0  0  0  0  0  0  0  0
   -1.5598   -2.5637    1.6771 N   0  0  0  0  0  0  0  0  0  0  0  0
   -2.2140   -3.8069    2.0112 C   0  0  2  0  0  0  0  0  0  0  0  0
   -1.4209   -4.4700    3.1297 C   0  0  0  0  0  0  0  0  0  0  0  0
   -0.2373   -4.2222    3.3506 O   0  0  0  0  0  0  0  0  0  0  0  0
   -2.3153   -4.7217    0.8006 C   0  0  0  0  0  0  0  0  0  0  0  0
   -1.9482   -1.6961    2.0351 H   0  0  0  0  0  0  0  0  0  0  0  0
   -3.2147   -3.5498    2.3752 H   0  0  0  0  0  0  0  0  0  0  0  0
   -1.3223   -4.9901    0.4218 H   0  0  0  0  0  0  0  0  0  0  0  0
   -2.8369   -5.6520    1.0487 H   0  0  0  0  0  0  0  0  0  0  0  0
   -2.8603   -4.2318   -0.0135 H   0  0  0  0  0  0  0  0  0  0  0  0
   -2.1783   -5.4025    3.8246 N   0  0  0  0  0  0  0  0  0  0  0  0
   -1.6476   -6.1747    4.9237 C   0  0  0  0  0  0  0  0  0  0  0  0
   -3.1572   -5.5294    3.5853 H   0  0  0  0  0  0  0  0  0  0  0  0
   -1.2536   -7.1294    4.5452 H   0  0  0  0  0  0  0  0  0  0  0  0
   -0.8379   -5.6112    5.4104 H   0  0  0  0  0  0  0  0  0  0  0  0
   -2.4472   -6.3715    5.6531 H   0  0  0  0  0  0  0  0  0  0  0  0
  1  3  1  0  0  0  0
  1  7  1  0  0  0  0
  1  2  2  0  0  0  0
 32 33  1  0  0  0  0
 33 41  1  0  0  0  0
 33 34  2  0  0  0  0
  8  9  1  0  0  0  0
  9 17  1  0  0  0  0
  9 10  2  0  0  0  0
 18 19  1  0  0  0  0
 19 31  1  0  0  0  0
 19 20  2  0  0  0  0
 32 35  1  0  0  0  0
  8 11  1  0  0  0  0
 21 23  1  0  0  0  0
 41 42  1  0  0  0  0
 31 32  1  0  0  0  0
  7  8  1  0  0  0  0
 18 21  1  0  0  0  0
 17 18  1  0  0  0  0
 21 22  1  0  0  0  0
  3  4  1  0  0  0  0
  3  5  1  0  0  0  0
  3  6  1  0  0  0  0
 35 38  1  0  0  0  0
 35 39  1  0  0  0  0
 35 40  1  0  0  0  0
 11 14  1  0  0  0  0
 11 15  1  0  0  0  0
 11 16  1  0  0  0  0
 23 28  1  0  0  0  0
 23 29  1  0  0  0  0
 23 30  1  0  0  0  0
 42 44  1  0  0  0  0
 42 45  1  0  0  0  0
 42 46  1  0  0  0  0
 32 37  1  0  0  0  0
  8 13  1  0  0  0  0
 18 25  1  0  0  0  0
 21 26  1  0  0  0  0
 41 43  1  0  0  0  0
  7 12  1  0  0  0  0
 31 36  1  0  0  0  0
 17 24  1  0  0  0  0
 22 27  1  0  0  0  0
M  END
$$$$

  -OEChem-05262214473D

 46 45  0     1  0  0  0  0  0999 V2000
   -4.6700    2.7214    1.5150 C   0  0  0  0  0  0  0  0  0  0  0  0
   -5.4532    2.5715    0.5845 O   0  0  0  0  0  0  0  0  0  0  0  0
   -5.0996    3.4865    2.7226 C   0  0  0  0  0  0  0  0  0  0  0  0
   -4.8796    4.5629    2.6387 H   0  0  0  0  0  0  0  0  0  0  0  0
   -6.1861    3.4241    2.8954 H   0  0  0  0  0  0  0  0  0  0  0  0
   -4.6369    3.1693    3.6708 H   0  0  0  0  0  0  0  0  0  0  0  0
   -3.3731    2.2391    1.5790 N   0  0  0  0  0  0  0  0  0  0  0  0
   -2.7599    1.4751    0.5247 C   0  0  2  0  0  0  0  0  0  0  0  0
   -1.5143    0.8067    1.0915 C   0  0  0  0  0  0  0  0  0  0  0  0
   -0.9247    1.2213    2.0872 O   0  0  0  0  0  0  0  0  0  0  0  0
   -2.4106    2.3553   -0.6653 C   0  0  0  0  0  0  0  0  0  0  0  0
   -2.8254    2.4352    2.4150 H   0  0  0  0  0  0  0  0  0  0  0  0
   -3.4836    0.7082    0.2278 H   0  0  0  0  0  0  0  0  0  0  0  0
   -1.6866    3.1298   -0.3871 H   0  0  0  0  0  0  0  0  0  0  0  0
   -1.9704    1.7677   -1.4777 H   0  0  0  0  0  0  0  0  0  0  0  0
   -3.3030    2.8584   -1.0531 H   0  0  0  0  0  0  0  0  0  0  0  0
   -1.1107   -0.2839    0.3303 N   0  0  0  0  0  0  0  0  0  0  0  0
    0.0490   -1.0750    0.6539 C   0  0  2  0  0  0  0  0  0  0  0  0
   -0.4211   -2.5081    0.8859 C   0  0  0  0  0  0  0  0  0  0  0  0
    0.2671   -3.4909    0.6180 O   0  0  0  0  0  0  0  0  0  0  0  0
    0.8212   -0.5310    1.8647 C   0  0  2  0  0  0  0  0  0  0  0  0
   -0.0021   -0.5310    3.0300 O   0  0  0  0  0  0  0  0  0  0  0  0
    1.3128    0.8942    1.6420 C   0  0  0  0  0  0  0  0  0  0  0  0
   -1.6733   -0.5660   -0.4691 H   0  0  0  0  0  0  0  0  0  0  0  0
    0.6910   -1.0625   -0.2353 H   0  0  0  0  0  0  0  0  0  0  0  0
    1.6882   -1.1665    2.0793 H   0  0  0  0  0  0  0  0  0  0  0  0
    0.5566   -0.2261    3.7610 H   0  0  0  0  0  0  0  0  0  0  0  0
    0.4826    1.5742    1.4226 H   0  0  0  0  0  0  0  0  0  0  0  0
    2.0353    0.9420    0.8217 H   0  0  0  0  0  0  0  0  0  0  0  0
    1.7931    1.2749    2.5501 H   0  0  0  0  0  0  0  0  0  0  0  0
   -1.7166   -2.5603    1.3805 N   0  0  0  0  0  0  0  0  0  0  0  0
   -2.3957   -3.8057    1.6507 C   0  0  2  0  0  0  0  0  0  0  0  0
   -1.8811   -4.3433    2.9795 C   0  0  0  0  0  0  0  0  0  0  0  0
   -0.7954   -4.0218    3.4580 O   0  0  0  0  0  0  0  0  0  0  0  0
   -2.1707   -4.8124    0.5333 C   0  0  0  0  0  0  0  0  0  0  0  0
   -2.2062   -1.6885    1.5594 H   0  0  0  0  0  0  0  0  0  0  0  0
   -3.4622   -3.5717    1.7391 H   0  0  0  0  0  0  0  0  0  0  0  0
   -1.1078   -5.0592    0.4296 H   0  0  0  0  0  0  0  0  0  0  0  0
   -2.7095   -5.7460    0.7259 H   0  0  0  0  0  0  0  0  0  0  0  0
   -2.5142   -4.4123   -0.4268 H   0  0  0  0  0  0  0  0  0  0  0  0
   -2.7577   -5.2574    3.5473 N   0  0  0  0  0  0  0  0  0  0  0  0
   -2.4895   -5.9181    4.8033 C   0  0  0  0  0  0  0  0  0  0  0  0
   -3.6442   -5.4498    3.0903 H   0  0  0  0  0  0  0  0  0  0  0  0
   -1.9869   -6.8779    4.6133 H   0  0  0  0  0  0  0  0  0  0  0  0
   -1.8405   -5.2805    5.4216 H   0  0  0  0  0  0  0  0  0  0  0  0
   -3.4371   -6.0988    5.3320 H   0  0  0  0  0  0  0  0  0  0  0  0
  1  3  1  0  0  0  0
  1  7  1  0  0  0  0
  1  2  2  0  0  0  0
 32 33  1  0  0  0  0
 33 41  1  0  0  0  0
 33 34  2  0  0  0  0
  8  9  1  0  0  0  0
  9 17  1  0  0  0  0
  9 10  2  0  0  0  0
 18 19  1  0  0  0  0
 19 31  1  0  0  0  0
 19 20  2  0  0  0  0
 32 35  1  0  0  0  0
  8 11  1  0  0  0  0
 21 23  1  0  0  0  0
 41 42  1  0  0  0  0
 31 32  1  0  0  0  0
  7  8  1  0  0  0  0
 18 21  1  0  0  0  0
 17 18  1  0  0  0  0
 21 22  1  0  0  0  0
  3  4  1  0  0  0  0
  3  5  1  0  0  0  0
  3  6  1  0  0  0  0
 35 38  1  0  0  0  0
 35 39  1  0  0  0  0
 35 40  1  0  0  0  0
 11 14  1  0  0  0  0
 11 15  1  0  0  0  0
 11 16  1  0  0  0  0
 23 28  1  0  0  0  0
 23 29  1  0  0  0  0
 23 30  1  0  0  0  0
 42 44  1  0  0  0  0
 42 45  1  0  0  0  0
 42 46  1  0  0  0  0
 32 37  1  0  0  0  0
  8 13  1  0  0  0  0
 18 25  1  0  0  0  0
 21 26  1  0  0  0  0
 41 43  1  0  0  0  0
  7 12  1  0  0  0  0
 31 36  1  0  0  0  0
 17 24  1  0  0  0  0
 22 27  1  0  0  0  0
M  END
$$$$

  -OEChem-05262214473D

 46 45  0     1  0  0  0  0  0999 V2000
   -4.6700    2.7214    1.5150 C   0  0  0  0  0  0  0  0  0  0  0  0
   -5.4532    2.5715    0.5845 O   0  0  0  0  0  0  0  0  0  0  0  0
   -5.0996    3.4865    2.7226 C   0  0  0  0  0  0  0  0  0  0  0  0
   -4.8796    4.5629    2.6387 H   0  0  0  0  0  0  0  0  0  0  0  0
   -6.1861    3.4241    2.8954 H   0  0  0  0  0  0  0  0  0  0  0  0
   -4.6369    3.1693    3.6708 H   0  0  0  0  0  0  0  0  0  0  0  0
   -3.3731    2.2391    1.5790 N   0  0  0  0  0  0  0  0  0  0  0  0
   -2.7599    1.4751    0.5247 C   0  0  2  0  0  0  0  0  0  0  0  0
   -1.5143    0.8067    1.0915 C   0  0  0  0  0  0  0  0  0  0  0  0
   -0.9247    1.2213    2.0872 O   0  0  0  0  0  0  0  0  0  0  0  0
   -2.4106    2.3553   -0.6653 C   0  0  0  0  0  0  0  0  0  0  0  0
   -2.8254    2.4352    2.4150 H   0  0  0  0  0  0  0  0  0  0  0  0
   -3.4836    0.7082    0.2278 H   0  0  0  0  0  0  0  0  0  0  0  0
   -1.6866    3.1298   -0.3871 H   0  0  0  0  0  0  0  0  0  0  0  0
   -1.9704    1.7677   -1.4777 H   0  0  0  0  0  0  0  0  0  0  0  0
   -3.3030    2.8584   -1.0531 H   0  0  0  0  0  0  0  0  0  0  0  0
   -1.1107   -0.2839    0.3303 N   0  0  0  0  0  0  0  0  0  0  0  0
    0.0490   -1.0750    0.6539 C   0  0  2  0  0  0  0  0  0  0  0  0
   -0.4211   -2.5081    0.8859 C   0  0  0  0  0  0  0  0  0  0  0  0
    0.3404   -3.4732    0.8762 O   0  0  0  0  0  0  0  0  0  0  0  0
    0.8212   -0.5310    1.8647 C   0  0  2  0  0  0  0  0  0  0  0  0
   -0.0021   -0.5310    3.0300 O   0  0  0  0  0  0  0  0  0  0  0  0
    1.3128    0.8942    1.6420 C   0  0  0  0  0  0  0  0  0  0  0  0
   -1.6733   -0.5660   -0.4691 H   0  0  0  0  0  0  0  0  0  0  0  0
    0.6910   -1.0625   -0.2353 H   0  0  0  0  0  0  0  0  0  0  0  0
    1.6882   -1.1665    2.0793 H   0  0  0  0  0  0  0  0  0  0  0  0
    0.5566   -0.2261    3.7610 H   0  0  0  0  0  0  0  0  0  0  0  0
    0.4826    1.5742    1.4226 H   0  0  0  0  0  0  0  0  0  0  0  0
    2.0353    0.9420    0.8217 H   0  0  0  0  0  0  0  0  0  0  0  0
    1.7931    1.2749    2.5501 H   0  0  0  0  0  0  0  0  0  0  0  0
   -1.7961   -2.5868    1.0556 N   0  0  0  0  0  0  0  0  0  0  0  0
   -2.4836   -3.8404    1.2582 C   0  0  2  0  0  0  0  0  0  0  0  0
   -2.2942   -4.2510    2.7125 C   0  0  0  0  0  0  0  0  0  0  0  0
   -1.3685   -3.8416    3.4100 O   0  0  0  0  0  0  0  0  0  0  0  0
   -1.9625   -4.9156    0.3175 C   0  0  0  0  0  0  0  0  0  0  0  0
   -2.3401   -1.7292    1.0366 H   0  0  0  0  0  0  0  0  0  0  0  0
   -3.5458   -3.6532    1.0664 H   0  0  0  0  0  0  0  0  0  0  0  0
   -0.8997   -5.1169    0.4948 H   0  0  0  0  0  0  0  0  0  0  0  0
   -2.5043   -5.8576    0.4526 H   0  0  0  0  0  0  0  0  0  0  0  0
   -2.0723   -4.6059   -0.7274 H   0  0  0  0  0  0  0  0  0  0  0  0
   -3.2556   -5.1621    3.1270 N   0  0  0  0  0  0  0  0  0  0  0  0
   -3.2836   -5.7129    4.4619 C   0  0  0  0  0  0  0  0  0  0  0  0
   -3.9973   -5.4316    2.4875 H   0  0  0  0  0  0  0  0  0  0  0  0
   -2.7217   -6.6583    4.4808 H   0  0  0  0  0  0  0  0  0  0  0  0
   -2.8247   -4.9997    5.1624 H   0  0  0  0  0  0  0  0  0  0  0  0
   -4.3259   -5.9000    4.7594 H   0  0  0  0  0  0  0  0  0  0  0  0
  1  3  1  0  0  0  0
  1  7  1  0  0  0  0
  1  2  2  0  0  0  0
 32 33  1  0  0  0  0
 33 41  1  0  0  0  0
 33 34  2  0  0  0  0
  8  9  1  0  0  0  0
  9 17  1  0  0  0  0
  9 10  2  0  0  0  0
 18 19  1  0  0  0  0
 19 31  1  0  0  0  0
 19 20  2  0  0  0  0
 32 35  1  0  0  0  0
  8 11  1  0  0  0  0
 21 23  1  0  0  0  0
 41 42  1  0  0  0  0
 31 32  1  0  0  0  0
  7  8  1  0  0  0  0
 18 21  1  0  0  0  0
 17 18  1  0  0  0  0
 21 22  1  0  0  0  0
  3  4  1  0  0  0  0
  3  5  1  0  0  0  0
  3  6  1  0  0  0  0
 35 38  1  0  0  0  0
 35 39  1  0  0  0  0
 35 40  1  0  0  0  0
 11 14  1  0  0  0  0
 11 15  1  0  0  0  0
 11 16  1  0  0  0  0
 23 28  1  0  0  0  0
 23 29  1  0  0  0  0
 23 30  1  0  0  0  0
 42 44  1  0  0  0  0
 42 45  1  0  0  0  0
 42 46  1  0  0  0  0
 32 37  1  0  0  0  0
  8 13  1  0  0  0  0
 18 25  1  0  0  0  0
 21 26  1  0  0  0  0
 41 43  1  0  0  0  0
  7 12  1  0  0  0  0
 31 36  1  0  0  0  0
 17 24  1  0  0  0  0
 22 27  1  0  0  0  0
M  END
$$$$

  -OEChem-05262214473D

 46 45  0     1  0  0  0  0  0999 V2000
   -4.6700    2.7214    1.5150 C   0  0  0  0  0  0  0  0  0  0  0  0
   -5.4532    2.5715    0.5845 O   0  0  0  0  0  0  0  0  0  0  0  0
   -5.0996    3.4865    2.7226 C   0  0  0  0  0  0  0  0  0  0  0  0
   -4.8796    4.5629    2.6387 H   0  0  0  0  0  0  0  0  0  0  0  0
   -6.1861    3.4241    2.8954 H   0  0  0  0  0  0  0  0  0  0  0  0
   -4.6369    3.1693    3.6708 H   0  0  0  0  0  0  0  0  0  0  0  0
   -3.3731    2.2391    1.5790 N   0  0  0  0  0  0  0  0  0  0  0  0
   -2.7599    1.4751    0.5247 C   0  0  2  0  0  0  0  0  0  0  0  0
   -1.5143    0.8067    1.0915 C   0  0  0  0  0  0  0  0  0  0  0  0
   -0.9247    1.2213    2.0872 O   0  0  0  0  0  0  0  0  0  0  0  0
   -2.4106    2.3553   -0.6653 C   0  0  0  0  0  0  0  0  0  0  0  0
   -2.8254    2.4352    2.4150 H   0  0  0  0  0  0  0  0  0  0  0  0
   -3.4836    0.7082    0.2278 H   0  0  0  0  0  0  0  0  0  0  0  0
   -1.6866    3.1298   -0.3871 H   0  0  0  0  0  0  0  0  0  0  0  0
   -1.9704    1.7677   -1.4777 H   0  0  0  0  0  0  0  0  0  0  0  0
   -3.3030    2.8584   -1.0531 H   0  0  0  0  0  0  0  0  0  0  0  0
   -1.1107   -0.2839    0.3303 N   0  0  0  0  0  0  0  0  0  0  0  0
    0.0490   -1.0750    0.6539 C   0  0  2  0  0  0  0  0  0  0  0  0
   -0.4211   -2.5081    0.8859 C   0  0  0  0  0  0  0  0  0  0  0  0
    0.3478   -3.4325    1.1421 O   0  0  0  0  0  0  0  0  0  0  0  0
    0.8212   -0.5310    1.8647 C   0  0  2  0  0  0  0  0  0  0  0  0
   -0.0021   -0.5310    3.0300 O   0  0  0  0  0  0  0  0  0  0  0  0
    1.3128    0.8942    1.6420 C   0  0  0  0  0  0  0  0  0  0  0  0
   -1.6733   -0.5660   -0.4691 H   0  0  0  0  0  0  0  0  0  0  0  0
    0.6910   -1.0625   -0.2353 H   0  0  0  0  0  0  0  0  0  0  0  0
    1.6882   -1.1665    2.0793 H   0  0  0  0  0  0  0  0  0  0  0  0
    0.5566   -0.2261    3.7610 H   0  0  0  0  0  0  0  0  0  0  0  0
    0.4826    1.5742    1.4226 H   0  0  0  0  0  0  0  0  0  0  0  0
    2.0353    0.9420    0.8217 H   0  0  0  0  0  0  0  0  0  0  0  0
    1.7931    1.2749    2.5501 H   0  0  0  0  0  0  0  0  0  0  0  0
   -1.7929   -2.6414    0.7246 N   0  0  0  0  0  0  0  0  0  0  0  0
   -2.4718   -3.9087    0.8604 C   0  0  2  0  0  0  0  0  0  0  0  0
   -2.6319   -4.1995    2.3468 C   0  0  0  0  0  0  0  0  0  0  0  0
   -1.9175   -3.6939    3.2100 O   0  0  0  0  0  0  0  0  0  0  0  0
   -1.7048   -5.0244    0.1678 C   0  0  0  0  0  0  0  0  0  0  0  0
   -2.3408   -1.8155    0.5023 H   0  0  0  0  0  0  0  0  0  0  0  0
   -3.4598   -3.7888    0.4027 H   0  0  0  0  0  0  0  0  0  0  0  0
   -0.7123   -5.1593    0.6129 H   0  0  0  0  0  0  0  0  0  0  0  0
   -2.2352   -5.9791    0.2473 H   0  0  0  0  0  0  0  0  0  0  0  0
   -1.5647   -4.7995   -0.8950 H   0  0  0  0  0  0  0  0  0  0  0  0
   -3.6382   -5.1231    2.5925 N   0  0  0  0  0  0  0  0  0  0  0  0
   -3.9757   -5.5732    3.9227 C   0  0  0  0  0  0  0  0  0  0  0  0
   -4.1926   -5.4759    1.8179 H   0  0  0  0  0  0  0  0  0  0  0  0
   -3.4078   -6.4858    4.1567 H   0  0  0  0  0  0  0  0  0  0  0  0
   -3.7233   -4.7878    4.6504 H   0  0  0  0  0  0  0  0  0  0  0  0
   -5.0532   -5.7885    3.9745 H   0  0  0  0  0  0  0  0  0  0  0  0
  1  3  1  0  0  0  0
  1  7  1  0  0  0  0
  1  2  2  0  0  0  0
 32 33  1  0  0  0  0
 33 41  1  0  0  0  0
 33 34  2  0  0  0  0
  8  9  1  0  0  0  0
  9 17  1  0  0  0  0
  9 10  2  0  0  0  0
 18 19  1  0  0  0  0
 19 31  1  0  0  0  0
 19 20  2  0  0  0  0
 32 35  1  0  0  0  0
  8 11  1  0  0  0  0
 21 23  1  0  0  0  0
 41 42  1  0  0  0  0
 31 32  1  0  0  0  0
  7  8  1  0  0  0  0
 18 21  1  0  0  0  0
 17 18  1  0  0  0  0
 21 22  1  0  0  0  0
  3  4  1  0  0  0  0
  3  5  1  0  0  0  0
  3  6  1  0  0  0  0
 35 38  1  0  0  0  0
 35 39  1  0  0  0  0
 35 40  1  0  0  0  0
 11 14  1  0  0  0  0
 11 15  1  0  0  0  0
 11 16  1  0  0  0  0
 23 28  1  0  0  0  0
 23 29  1  0  0  0  0
 23 30  1  0  0  0  0
 42 44  1  0  0  0  0
 42 45  1  0  0  0  0
 42 46  1  0  0  0  0
 32 37  1  0  0  0  0
  8 13  1  0  0  0  0
 18 25  1  0  0  0  0
 21 26  1  0  0  0  0
 41 43  1  0  0  0  0
  7 12  1  0  0  0  0
 31 36  1  0  0  0  0
 17 24  1  0  0  0  0
 22 27  1  0  0  0  0
M  END
$$$$

  -OEChem-05262214473D

 46 45  0     1  0  0  0  0  0999 V2000
   -4.6700    2.7214    1.5150 C   0  0  0  0  0  0  0  0  0  0  0  0
   -5.4532    2.5715    0.5845 O   0  0  0  0  0  0  0  0  0  0  0  0
   -5.0996    3.4865    2.7226 C   0  0  0  0  0  0  0  0  0  0  0  0
   -4.8796    4.5629    2.6387 H   0  0  0  0  0  0  0  0  0  0  0  0
   -6.1861    3.4241    2.8954 H   0  0  0  0  0  0  0  0  0  0  0  0
   -4.6369    3.1693    3.6708 H   0  0  0  0  0  0  0  0  0  0  0  0
   -3.3731    2.2391    1.5790 N   0  0  0  0  0  0  0  0  0  0  0  0
   -2.7599    1.4751    0.5247 C   0  0  2  0  0  0  0  0  0  0  0  0
   -1.5143    0.8067    1.0915 C   0  0  0  0  0  0  0  0  0  0  0  0
   -0.9247    1.2213    2.0872 O   0  0  0  0  0  0  0  0  0  0  0  0
   -2.4106    2.3553   -0.6653 C   0  0  0  0  0  0  0  0  0  0  0  0
   -2.8254    2.4352    2.4150 H   0  0  0  0  0  0  0  0  0  0  0  0
   -3.4836    0.7082    0.2278 H   0  0  0  0  0  0  0  0  0  0  0  0
   -1.6866    3.1298   -0.3871 H   0  0  0  0  0  0  0  0  0  0  0  0
   -1.9704    1.7677   -1.4777 H   0  0  0  0  0  0  0  0  0  0  0  0
   -3.3030    2.8584   -1.0531 H   0  0  0  0  0  0  0  0  0  0  0  0
   -1.1107   -0.2839    0.3303 N   0  0  0  0  0  0  0  0  0  0  0  0
    0.0490   -1.0750    0.6539 C   0  0  2  0  0  0  0  0  0  0  0  0
   -0.4211   -2.5081    0.8859 C   0  0  0  0  0  0  0  0  0  0  0  0
    0.2887   -3.3718    1.3974 O   0  0  0  0  0  0  0  0  0  0  0  0
    0.8212   -0.5310    1.8647 C   0  0  2  0  0  0  0  0  0  0  0  0
   -0.0021   -0.5310    3.0300 O   0  0  0  0  0  0  0  0  0  0  0  0
    1.3128    0.8942    1.6420 C   0  0  0  0  0  0  0  0  0  0  0  0
   -1.6733   -0.5660   -0.4691 H   0  0  0  0  0  0  0  0  0  0  0  0
    0.6910   -1.0625   -0.2353 H   0  0  0  0  0  0  0  0  0  0  0  0
    1.6882   -1.1665    2.0793 H   0  0  0  0  0  0  0  0  0  0  0  0
    0.5566   -0.2261    3.7610 H   0  0  0  0  0  0  0  0  0  0  0  0
    0.4826    1.5742    1.4226 H   0  0  0  0  0  0  0  0  0  0  0  0
    2.0353    0.9420    0.8217 H   0  0  0  0  0  0  0  0  0  0  0  0
    1.7931    1.2749    2.5501 H   0  0  0  0  0  0  0  0  0  0  0  0
   -1.7072   -2.7205    0.4100 N   0  0  0  0  0  0  0  0  0  0  0  0
   -2.3610   -4.0059    0.4846 C   0  0  2  0  0  0  0  0  0  0  0  0
   -2.8713   -4.1921    1.9074 C   0  0  0  0  0  0  0  0  0  0  0  0
   -2.4050   -3.5888    2.8716 O   0  0  0  0  0  0  0  0  0  0  0  0
   -1.4153   -5.1312    0.0946 C   0  0  0  0  0  0  0  0  0  0  0  0
   -2.2081   -1.9415   -0.0071 H   0  0  0  0  0  0  0  0  0  0  0  0
   -3.2101   -3.9694   -0.2067 H   0  0  0  0  0  0  0  0  0  0  0  0
   -0.5583   -5.1834    0.7759 H   0  0  0  0  0  0  0  0  0  0  0  0
   -1.9206   -6.1022    0.1241 H   0  0  0  0  0  0  0  0  0  0  0  0
   -1.0262   -4.9799   -0.9180 H   0  0  0  0  0  0  0  0  0  0  0  0
   -3.8794   -5.1432    1.9800 N   0  0  0  0  0  0  0  0  0  0  0  0
   -4.5186   -5.5084    3.2226 C   0  0  0  0  0  0  0  0  0  0  0  0
   -4.2168   -5.5798    1.1272 H   0  0  0  0  0  0  0  0  0  0  0  0
   -3.9986   -6.3719    3.6631 H   0  0  0  0  0  0  0  0  0  0  0  0
   -4.4753   -4.6593    3.9205 H   0  0  0  0  0  0  0  0  0  0  0  0
   -5.5692   -5.7721    3.0307 H   0  0  0  0  0  0  0  0  0  0  0  0
  1  3  1  0  0  0  0
  1  7  1  0  0  0  0
  1  2  2  0  0  0  0
 32 33  1  0  0  0  0
 33 41  1  0  0  0  0
 33 34  2  0  0  0  0
  8  9  1  0  0  0  0
  9 17  1  0  0  0  0
  9 10  2  0  0  0  0
 18 19  1  0  0  0  0
 19 31  1  0  0  0  0
 19 20  2  0  0  0  0
 32 35  1  0  0  0  0
  8 11  1  0  0  0  0
 21 23  1  0  0  0  0
 41 42  1  0  0  0  0
 31 32  1  0  0  0  0
  7  8  1  0  0  0  0
 18 21  1  0  0  0  0
 17 18  1  0  0  0  0
 21 22  1  0  0  0  0
  3  4  1  0  0  0  0
  3  5  1  0  0  0  0
  3  6  1  0  0  0  0
 35 38  1  0  0  0  0
 35 39  1  0  0  0  0
 35 40  1  0  0  0  0
 11 14  1  0  0  0  0
 11 15  1  0  0  0  0
 11 16  1  0  0  0  0
 23 28  1  0  0  0  0
 23 29  1  0  0  0  0
 23 30  1  0  0  0  0
 42 44  1  0  0  0  0
 42 45  1  0  0  0  0
 42 46  1  0  0  0  0
 32 37  1  0  0  0  0
  8 13  1  0  0  0  0
 18 25  1  0  0  0  0
 21 26  1  0  0  0  0
 41 43  1  0  0  0  0
  7 12  1  0  0  0  0
 31 36  1  0  0  0  0
 17 24  1  0  0  0  0
 22 27  1  0  0  0  0
M  END
$$$$

  -OEChem-05262214473D

 46 45  0     1  0  0  0  0  0999 V2000
   -4.6700    2.7214    1.5150 C   0  0  0  0  0  0  0  0  0  0  0  0
   -5.4532    2.5715    0.5845 O   0  0  0  0  0  0  0  0  0  0  0  0
   -5.0996    3.4865    2.7226 C   0  0  0  0  0  0  0  0  0  0  0  0
   -4.8796    4.5629    2.6387 H   0  0  0  0  0  0  0  0  0  0  0  0
   -6.1861    3.4241    2.8954 H   0  0  0  0  0  0  0  0  0  0  0  0
   -4.6369    3.1693    3.6708 H   0  0  0  0  0  0  0  0  0  0  0  0
   -3.3731    2.2391    1.5790 N   0  0  0  0  0  0  0  0  0  0  0  0
   -2.7599    1.4751    0.5247 C   0  0  2  0  0  0  0  0  0  0  0  0
   -1.5143    0.8067    1.0915 C   0  0  0  0  0  0  0  0  0  0  0  0
   -0.9247    1.2213    2.0872 O   0  0  0  0  0  0  0  0  0  0  0  0
   -2.4106    2.3553   -0.6653 C   0  0  0  0  0  0  0  0  0  0  0  0
   -2.8254    2.4352    2.4150 H   0  0  0  0  0  0  0  0  0  0  0  0
   -3.4836    0.7082    0.2278 H   0  0  0  0  0  0  0  0  0  0  0  0
   -1.6866    3.1298   -0.3871 H   0  0  0  0  0  0  0  0  0  0  0  0
   -1.9704    1.7677   -1.4777 H   0  0  0  0  0  0  0  0  0  0  0  0
   -3.3030    2.8584   -1.0531 H   0  0  0  0  0  0  0  0  0  0  0  0
   -1.1107   -0.2839    0.3303 N   0  0  0  0  0  0  0  0  0  0  0  0
    0.0490   -1.0750    0.6539 C   0  0  2  0  0  0  0  0  0  0  0  0
   -0.4211   -2.5081    0.8859 C   0  0  0  0  0  0  0  0  0  0  0  0
    0.1671   -3.2951    1.6248 O   0  0  0  0  0  0  0  0  0  0  0  0
    0.8212   -0.5310    1.8647 C   0  0  2  0  0  0  0  0  0  0  0  0
   -0.0021   -0.5310    3.0300 O   0  0  0  0  0  0  0  0  0  0  0  0
    1.3128    0.8942    1.6420 C   0  0  0  0  0  0  0  0  0  0  0  0
   -1.6733   -0.5660   -0.4691 H   0  0  0  0  0  0  0  0  0  0  0  0
    0.6910   -1.0625   -0.2353 H   0  0  0  0  0  0  0  0  0  0  0  0
    1.6882   -1.1665    2.0793 H   0  0  0  0  0  0  0  0  0  0  0  0
    0.5566   -0.2261    3.7610 H   0  0  0  0  0  0  0  0  0  0  0  0
    0.4826    1.5742    1.4226 H   0  0  0  0  0  0  0  0  0  0  0  0
    2.0353    0.9420    0.8217 H   0  0  0  0  0  0  0  0  0  0  0  0
    1.7931    1.2749    2.5501 H   0  0  0  0  0  0  0  0  0  0  0  0
   -1.5448   -2.8186    0.1332 N   0  0  0  0  0  0  0  0  0  0  0  0
   -2.1588   -4.1254    0.1562 C   0  0  2  0  0  0  0  0  0  0  0  0
   -2.9959   -4.2295    1.4242 C   0  0  0  0  0  0  0  0  0  0  0  0
   -2.7977   -3.5334    2.4179 O   0  0  0  0  0  0  0  0  0  0  0  0
   -1.1137   -5.2288    0.1028 C   0  0  0  0  0  0  0  0  0  0  0  0
   -1.9513   -2.0985   -0.4568 H   0  0  0  0  0  0  0  0  0  0  0  0
   -2.8136   -4.1826   -0.7201 H   0  0  0  0  0  0  0  0  0  0  0  0
   -0.4482   -5.1876    0.9728 H   0  0  0  0  0  0  0  0  0  0  0  0
   -1.5819   -6.2186    0.0914 H   0  0  0  0  0  0  0  0  0  0  0  0
   -0.4932   -5.1348   -0.7950 H   0  0  0  0  0  0  0  0  0  0  0  0
   -3.9627   -5.2209    1.3314 N   0  0  0  0  0  0  0  0  0  0  0  0
   -4.8755   -5.5231    2.4092 C   0  0  0  0  0  0  0  0  0  0  0  0
   -4.0681   -5.7362    0.4625 H   0  0  0  0  0  0  0  0  0  0  0  0
   -4.4538   -6.3245    3.0336 H   0  0  0  0  0  0  0  0  0  0  0  0
   -5.0292   -4.6230    3.0225 H   0  0  0  0  0  0  0  0  0  0  0  0
   -5.8389   -5.8517    1.9923 H   0  0  0  0  0  0  0  0  0  0  0  0
  1  3  1  0  0  0  0
  1  7  1  0  0  0  0
  1  2  2  0  0  0  0
 32 33  1  0  0  0  0
 33 41  1  0  0  0  0
 33 34  2  0  0  0  0
  8  9  1  0  0  0  0
  9 17  1  0  0  0  0
  9 10  2  0  0  0  0
 18 19  1  0  0  0  0
 19 31  1  0  0  0  0
 19 20  2  0  0  0  0
 32 35  1  0  0  0  0
  8 11  1  0  0  0  0
 21 23  1  0  0  0  0
 41 42  1  0  0  0  0
 31 32  1  0  0  0  0
  7  8  1  0  0  0  0
 18 21  1  0  0  0  0
 17 18  1  0  0  0  0
 21 22  1  0  0  0  0
  3  4  1  0  0  0  0
  3  5  1  0  0  0  0
  3  6  1  0  0  0  0
 35 38  1  0  0  0  0
 35 39  1  0  0  0  0
 35 40  1  0  0  0  0
 11 14  1  0  0  0  0
 11 15  1  0  0  0  0
 11 16  1  0  0  0  0
 23 28  1  0  0  0  0
 23 29  1  0  0  0  0
 23 30  1  0  0  0  0
 42 44  1  0  0  0  0
 42 45  1  0  0  0  0
 42 46  1  0  0  0  0
 32 37  1  0  0  0  0
  8 13  1  0  0  0  0
 18 25  1  0  0  0  0
 21 26  1  0  0  0  0
 41 43  1  0  0  0  0
  7 12  1  0  0  0  0
 31 36  1  0  0  0  0
 17 24  1  0  0  0  0
 22 27  1  0  0  0  0
M  END
$$$$

  -OEChem-05262214473D

 46 45  0     1  0  0  0  0  0999 V2000
   -4.6700    2.7214    1.5150 C   0  0  0  0  0  0  0  0  0  0  0  0
   -5.4532    2.5715    0.5845 O   0  0  0  0  0  0  0  0  0  0  0  0
   -5.0996    3.4865    2.7226 C   0  0  0  0  0  0  0  0  0  0  0  0
   -4.8796    4.5629    2.6387 H   0  0  0  0  0  0  0  0  0  0  0  0
   -6.1861    3.4241    2.8954 H   0  0  0  0  0  0  0  0  0  0  0  0
   -4.6369    3.1693    3.6708 H   0  0  0  0  0  0  0  0  0  0  0  0
   -3.3731    2.2391    1.5790 N   0  0  0  0  0  0  0  0  0  0  0  0
   -2.7599    1.4751    0.5247 C   0  0  2  0  0  0  0  0  0  0  0  0
   -1.5143    0.8067    1.0915 C   0  0  0  0  0  0  0  0  0  0  0  0
   -0.9247    1.2213    2.0872 O   0  0  0  0  0  0  0  0  0  0  0  0
   -2.4106    2.3553   -0.6653 C   0  0  0  0  0  0  0  0  0  0  0  0
   -2.8254    2.4352    2.4150 H   0  0  0  0  0  0  0  0  0  0  0  0
   -3.4836    0.7082    0.2278 H   0  0  0  0  0  0  0  0  0  0  0  0
   -1.6866    3.1298   -0.3871 H   0  0  0  0  0  0  0  0  0  0  0  0
   -1.9704    1.7677   -1.4777 H   0  0  0  0  0  0  0  0  0  0  0  0
   -3.3030    2.8584   -1.0531 H   0  0  0  0  0  0  0  0  0  0  0  0
   -1.1107   -0.2839    0.3303 N   0  0  0  0  0  0  0  0  0  0  0  0
    0.0490   -1.0750    0.6539 C   0  0  2  0  0  0  0  0  0  0  0  0
   -0.4211   -2.5081    0.8859 C   0  0  0  0  0  0  0  0  0  0  0  0
   -0.0086   -3.2077    1.8088 O   0  0  0  0  0  0  0  0  0  0  0  0
    0.8212   -0.5310    1.8647 C   0  0  2  0  0  0  0  0  0  0  0  0
   -0.0021   -0.5310    3.0300 O   0  0  0  0  0  0  0  0  0  0  0  0
    1.3128    0.8942    1.6420 C   0  0  0  0  0  0  0  0  0  0  0  0
   -1.6733   -0.5660   -0.4691 H   0  0  0  0  0  0  0  0  0  0  0  0
    0.6910   -1.0625   -0.2353 H   0  0  0  0  0  0  0  0  0  0  0  0
    1.6882   -1.1665    2.0793 H   0  0  0  0  0  0  0  0  0  0  0  0
    0.5566   -0.2261    3.7610 H   0  0  0  0  0  0  0  0  0  0  0  0
    0.4826    1.5742    1.4226 H   0  0  0  0  0  0  0  0  0  0  0  0
    2.0353    0.9420    0.8217 H   0  0  0  0  0  0  0  0  0  0  0  0
    1.7931    1.2749    2.5501 H   0  0  0  0  0  0  0  0  0  0  0  0
   -1.3168   -2.9290   -0.0868 N   0  0  0  0  0  0  0  0  0  0  0  0
   -1.8790   -4.2590   -0.1023 C   0  0  2  0  0  0  0  0  0  0  0  0
   -2.9974   -4.3090    0.9302 C   0  0  0  0  0  0  0  0  0  0  0  0
   -3.0690   -3.5316    1.8797 O   0  0  0  0  0  0  0  0  0  0  0  0
   -0.8205   -5.3106    0.1917 C   0  0  0  0  0  0  0  0  0  0  0  0
   -1.5876   -2.2760   -0.8163 H   0  0  0  0  0  0  0  0  0  0  0  0
   -2.2975   -4.4138   -1.1028 H   0  0  0  0  0  0  0  0  0  0  0  0
   -0.3896   -5.1717    1.1900 H   0  0  0  0  0  0  0  0  0  0  0  0
   -1.2423   -6.3203    0.1514 H   0  0  0  0  0  0  0  0  0  0  0  0
   -0.0022   -5.2536   -0.5343 H   0  0  0  0  0  0  0  0  0  0  0  0
   -3.8825   -5.3509    0.6909 N   0  0  0  0  0  0  0  0  0  0  0  0
   -5.0218   -5.6162    1.5379 C   0  0  0  0  0  0  0  0  0  0  0  0
   -3.7568   -5.9344   -0.1310 H   0  0  0  0  0  0  0  0  0  0  0  0
   -4.7423   -6.3469    2.3112 H   0  0  0  0  0  0  0  0  0  0  0  0
   -5.3475   -4.6813    2.0176 H   0  0  0  0  0  0  0  0  0  0  0  0
   -5.8438   -6.0221    0.9301 H   0  0  0  0  0  0  0  0  0  0  0  0
  1  3  1  0  0  0  0
  1  7  1  0  0  0  0
  1  2  2  0  0  0  0
 32 33  1  0  0  0  0
 33 41  1  0  0  0  0
 33 34  2  0  0  0  0
  8  9  1  0  0  0  0
  9 17  1  0  0  0  0
  9 10  2  0  0  0  0
 18 19  1  0  0  0  0
 19 31  1  0  0  0  0
 19 20  2  0  0  0  0
 32 35  1  0  0  0  0
  8 11  1  0  0  0  0
 21 23  1  0  0  0  0
 41 42  1  0  0  0  0
 31 32  1  0  0  0  0
  7  8  1  0  0  0  0
 18 21  1  0  0  0  0
 17 18  1  0  0  0  0
 21 22  1  0  0  0  0
  3  4  1  0  0  0  0
  3  5  1  0  0  0  0
  3  6  1  0  0  0  0
 35 38  1  0  0  0  0
 35 39  1  0  0  0  0
 35 40  1  0  0  0  0
 11 14  1  0  0  0  0
 11 15  1  0  0  0  0
 11 16  1  0  0  0  0
 23 28  1  0  0  0  0
 23 29  1  0  0  0  0
 23 30  1  0  0  0  0
 42 44  1  0  0  0  0
 42 45  1  0  0  0  0
 42 46  1  0  0  0  0
 32 37  1  0  0  0  0
  8 13  1  0  0  0  0
 18 25  1  0  0  0  0
 21 26  1  0  0  0  0
 41 43  1  0  0  0  0
  7 12  1  0  0  0  0
 31 36  1  0  0  0  0
 17 24  1  0  0  0  0
 22 27  1  0  0  0  0
M  END
$$$$

  -OEChem-05262214473D

 46 45  0     1  0  0  0  0  0999 V2000
   -4.6700    2.7214    1.5150 C   0  0  0  0  0  0  0  0  0  0  0  0
   -5.4532    2.5715    0.5845 O   0  0  0  0  0  0  0  0  0  0  0  0
   -5.0996    3.4865    2.7226 C   0  0  0  0  0  0  0  0  0  0  0  0
   -4.8796    4.5629    2.6387 H   0  0  0  0  0  0  0  0  0  0  0  0
   -6.1861    3.4241    2.8954 H   0  0  0  0  0  0  0  0  0  0  0  0
   -4.6369    3.1693    3.6708 H   0  0  0  0  0  0  0  0  0  0  0  0
   -3.3731    2.2391    1.5790 N   0  0  0  0  0  0  0  0  0  0  0  0
   -2.7599    1.4751    0.5247 C   0  0  2  0  0  0  0  0  0  0  0  0
   -1.5143    0.8067    1.0915 C   0  0  0  0  0  0  0  0  0  0  0  0
   -0.9247    1.2213    2.0872 O   0  0  0  0  0  0  0  0  0  0  0  0
   -2.4106    2.3553   -0.6653 C   0  0  0  0  0  0  0  0  0  0  0  0
   -2.8254    2.4352    2.4150 H   0  0  0  0  0  0  0  0  0  0  0  0
   -3.4836    0.7082    0.2278 H   0  0  0  0  0  0  0  0  0  0  0  0
   -1.6866    3.1298   -0.3871 H   0  0  0  0  0  0  0  0  0  0  0  0
   -1.9704    1.7677   -1.4777 H   0  0  0  0  0  0  0  0  0  0  0  0
   -3.3030    2.8584   -1.0531 H   0  0  0  0  0  0  0  0  0  0  0  0
   -1.1107   -0.2839    0.3303 N   0  0  0  0  0  0  0  0  0  0  0  0
    0.0490   -1.0750    0.6539 C   0  0  2  0  0  0  0  0  0  0  0  0
   -0.4211   -2.5081    0.8859 C   0  0  0  0  0  0  0  0  0  0  0  0
   -0.2264   -3.1155    1.9369 O   0  0  0  0  0  0  0  0  0  0  0  0
    0.8212   -0.5310    1.8647 C   0  0  2  0  0  0  0  0  0  0  0  0
   -0.0021   -0.5310    3.0300 O   0  0  0  0  0  0  0  0  0  0  0  0
    1.3128    0.8942    1.6420 C   0  0  0  0  0  0  0  0  0  0  0  0
   -1.6733   -0.5660   -0.4691 H   0  0  0  0  0  0  0  0  0  0  0  0
    0.6910   -1.0625   -0.2353 H   0  0  0  0  0  0  0  0  0  0  0  0
    1.6882   -1.1665    2.0793 H   0  0  0  0  0  0  0  0  0  0  0  0
    0.5566   -0.2261    3.7610 H   0  0  0  0  0  0  0  0  0  0  0  0
    0.4826    1.5742    1.4226 H   0  0  0  0  0  0  0  0  0  0  0  0
    2.0353    0.9420    0.8217 H   0  0  0  0  0  0  0  0  0  0  0  0
    1.7931    1.2749    2.5501 H   0  0  0  0  0  0  0  0  0  0  0  0
   -1.0388   -3.0442   -0.2351 N   0  0  0  0  0  0  0  0  0  0  0  0
   -1.5406   -4.3977   -0.2734 C   0  0  2  0  0  0  0  0  0  0  0  0
   -2.8757   -4.4252    0.4589 C   0  0  0  0  0  0  0  0  0  0  0  0
   -3.2003   -3.5834    1.2938 O   0  0  0  0  0  0  0  0  0  0  0  0
   -0.5556   -5.3710    0.3555 C   0  0  0  0  0  0  0  0  0  0  0  0
   -1.1420   -2.4618   -1.0610 H   0  0  0  0  0  0  0  0  0  0  0  0
   -1.6968   -4.6474   -1.3285 H   0  0  0  0  0  0  0  0  0  0  0  0
   -0.3864   -5.1367    1.4128 H   0  0  0  0  0  0  0  0  0  0  0  0
   -0.9248   -6.4004    0.3000 H   0  0  0  0  0  0  0  0  0  0  0  0
    0.4133   -5.3283   -0.1536 H   0  0  0  0  0  0  0  0  0  0  0  0
   -3.6441   -5.5244    0.1020 N   0  0  0  0  0  0  0  0  0  0  0  0
   -4.9478   -5.7813    0.6682 C   0  0  0  0  0  0  0  0  0  0  0  0
   -3.3041   -6.1609   -0.6128 H   0  0  0  0  0  0  0  0  0  0  0  0
   -4.8445   -6.4374    1.5450 H   0  0  0  0  0  0  0  0  0  0  0  0
   -5.4083   -4.8303    0.9741 H   0  0  0  0  0  0  0  0  0  0  0  0
   -5.5837   -6.2715   -0.0836 H   0  0  0  0  0  0  0  0  0  0  0  0
  1  3  1  0  0  0  0
  1  7  1  0  0  0  0
  1  2  2  0  0  0  0
 32 33  1  0  0  0  0
 33 41  1  0  0  0  0
 33 34  2  0  0  0  0
  8  9  1  0  0  0  0
  9 17  1  0  0  0  0
  9 10  2  0  0  0  0
 18 19  1  0  0  0  0
 19 31  1  0  0  0  0
 19 20  2  0  0  0  0
 32 35  1  0  0  0  0
  8 11  1  0  0  0  0
 21 23  1  0  0  0  0
 41 42  1  0  0  0  0
 31 32  1  0  0  0  0
  7  8  1  0  0  0  0
 18 21  1  0  0  0  0
 17 18  1  0  0  0  0
 21 22  1  0  0  0  0
  3  4  1  0  0  0  0
  3  5  1  0  0  0  0
  3  6  1  0  0  0  0
 35 38  1  0  0  0  0
 35 39  1  0  0  0  0
 35 40  1  0  0  0  0
 11 14  1  0  0  0  0
 11 15  1  0  0  0  0
 11 16  1  0  0  0  0
 23 28  1  0  0  0  0
 23 29  1  0  0  0  0
 23 30  1  0  0  0  0
 42 44  1  0  0  0  0
 42 45  1  0  0  0  0
 42 46  1  0  0  0  0
 32 37  1  0  0  0  0
  8 13  1  0  0  0  0
 18 25  1  0  0  0  0
 21 26  1  0  0  0  0
 41 43  1  0  0  0  0
  7 12  1  0  0  0  0
 31 36  1  0  0  0  0
 17 24  1  0  0  0  0
 22 27  1  0  0  0  0
M  END
$$$$

  -OEChem-05262214473D

 46 45  0     1  0  0  0  0  0999 V2000
   -4.6700    2.7214    1.5150 C   0  0  0  0  0  0  0  0  0  0  0  0
   -5.4532    2.5715    0.5845 O   0  0  0  0  0  0  0  0  0  0  0  0
   -5.0996    3.4865    2.7226 C   0  0  0  0  0  0  0  0  0  0  0  0
   -4.8796    4.5629    2.6387 H   0  0  0  0  0  0  0  0  0  0  0  0
   -6.1861    3.4241    2.8954 H   0  0  0  0  0  0  0  0  0  0  0  0
   -4.6369    3.1693    3.6708 H   0  0  0  0  0  0  0  0  0  0  0  0
   -3.3731    2.2391    1.5790 N   0  0  0  0  0  0  0  0  0  0  0  0
   -2.7599    1.4751    0.5247 C   0  0  2  0  0  0  0  0  0  0  0  0
   -1.5143    0.8067    1.0915 C   0  0  0  0  0  0  0  0  0  0  0  0
   -0.9247    1.2213    2.0872 O   0  0  0  0  0  0  0  0  0  0  0  0
   -2.4106    2.3553   -0.6653 C   0  0  0  0  0  0  0  0  0  0  0  0
   -2.8254    2.4352    2.4150 H   0  0  0  0  0  0  0  0  0  0  0  0
   -3.4836    0.7082    0.2278 H   0  0  0  0  0  0  0  0  0  0  0  0
   -1.6866    3.1298   -0.3871 H   0  0  0  0  0  0  0  0  0  0  0  0
   -1.9704    1.7677   -1.4777 H   0  0  0  0  0  0  0  0  0  0  0  0
   -3.3030    2.8584   -1.0531 H   0  0  0  0  0  0  0  0  0  0  0  0
   -1.1107   -0.2839    0.3303 N   0  0  0  0  0  0  0  0  0  0  0  0
    0.0490   -1.0750    0.6539 C   0  0  2  0  0  0  0  0  0  0  0  0
   -0.4211   -2.5081    0.8859 C   0  0  0  0  0  0  0  0  0  0  0  0
   -0.4717   -3.0248    2.0003 O   0  0  0  0  0  0  0  0  0  0  0  0
    0.8212   -0.5310    1.8647 C   0  0  2  0  0  0  0  0  0  0  0  0
   -0.0021   -0.5310    3.0300 O   0  0  0  0  0  0  0  0  0  0  0  0
    1.3128    0.8942    1.6420 C   0  0  0  0  0  0  0  0  0  0  0  0
   -1.6733   -0.5660   -0.4691 H   0  0  0  0  0  0  0  0  0  0  0  0
    0.6910   -1.0625   -0.2353 H   0  0  0  0  0  0  0  0  0  0  0  0
    1.6882   -1.1665    2.0793 H   0  0  0  0  0  0  0  0  0  0  0  0
    0.5566   -0.2261    3.7610 H   0  0  0  0  0  0  0  0  0  0  0  0
    0.4826    1.5742    1.4226 H   0  0  0  0  0  0  0  0  0  0  0  0
    2.0353    0.9420    0.8217 H   0  0  0  0  0  0  0  0  0  0  0  0
    1.7931    1.2749    2.5501 H   0  0  0  0  0  0  0  0  0  0  0  0
   -0.7296   -3.1563   -0.3016 N   0  0  0  0  0  0  0  0  0  0  0  0
   -1.1667   -4.5320   -0.3452 C   0  0  2  0  0  0  0  0  0  0  0  0
   -2.6390   -4.5703    0.0426 C   0  0  0  0  0  0  0  0  0  0  0  0
   -3.1826   -3.6853    0.7001 O   0  0  0  0  0  0  0  0  0  0  0  0
   -0.3372   -5.4058    0.5828 C   0  0  0  0  0  0  0  0  0  0  0  0
   -0.6448   -2.6432   -1.1742 H   0  0  0  0  0  0  0  0  0  0  0  0
   -1.0526   -4.8673   -1.3819 H   0  0  0  0  0  0  0  0  0  0  0  0
   -0.4388   -5.0849    1.6260 H   0  0  0  0  0  0  0  0  0  0  0  0
   -0.6511   -6.4534    0.5272 H   0  0  0  0  0  0  0  0  0  0  0  0
    0.7251   -5.3537    0.3210 H   0  0  0  0  0  0  0  0  0  0  0  0
   -3.2639   -5.7296   -0.3950 N   0  0  0  0  0  0  0  0  0  0  0  0
   -4.6583   -6.0072   -0.1408 C   0  0  0  0  0  0  0  0  0  0  0  0
   -2.7407   -6.4003   -0.9501 H   0  0  0  0  0  0  0  0  0  0  0  0
   -4.7534   -6.5899    0.7873 H   0  0  0  0  0  0  0  0  0  0  0  0
   -5.2076   -5.0598   -0.0366 H   0  0  0  0  0  0  0  0  0  0  0  0
   -5.0763   -6.5830   -0.9796 H   0  0  0  0  0  0  0  0  0  0  0  0
  1  3  1  0  0  0  0
  1  7  1  0  0  0  0
  1  2  2  0  0  0  0
 32 33  1  0  0  0  0
 33 41  1  0  0  0  0
 33 34  2  0  0  0  0
  8  9  1  0  0  0  0
  9 17  1  0  0  0  0
  9 10  2  0  0  0  0
 18 19  1  0  0  0  0
 19 31  1  0  0  0  0
 19 20  2  0  0  0  0
 32 35  1  0  0  0  0
  8 11  1  0  0  0  0
 21 23  1  0  0  0  0
 41 42  1  0  0  0  0
 31 32  1  0  0  0  0
  7  8  1  0  0  0  0
 18 21  1  0  0  0  0
 17 18  1  0  0  0  0
 21 22  1  0  0  0  0
  3  4  1  0  0  0  0
  3  5  1  0  0  0  0
  3  6  1  0  0  0  0
 35 38  1  0  0  0  0
 35 39  1  0  0  0  0
 35 40  1  0  0  0  0
 11 14  1  0  0  0  0
 11 15  1  0  0  0  0
 11 16  1  0  0  0  0
 23 28  1  0  0  0  0
 23 29  1  0  0  0  0
 23 30  1  0  0  0  0
 42 44  1  0  0  0  0
 42 45  1  0  0  0  0
 42 46  1  0  0  0  0
 32 37  1  0  0  0  0
  8 13  1  0  0  0  0
 18 25  1  0  0  0  0
 21 26  1  0  0  0  0
 41 43  1  0  0  0  0
  7 12  1  0  0  0  0
 31 36  1  0  0  0  0
 17 24  1  0  0  0  0
 22 27  1  0  0  0  0
M  END
$$$$

  -OEChem-05262214473D

 46 45  0     1  0  0  0  0  0999 V2000
   -4.6700    2.7214    1.5150 C   0  0  0  0  0  0  0  0  0  0  0  0
   -5.4532    2.5715    0.5845 O   0  0  0  0  0  0  0  0  0  0  0  0
   -5.0996    3.4865    2.7226 C   0  0  0  0  0  0  0  0  0  0  0  0
   -4.8796    4.5629    2.6387 H   0  0  0  0  0  0  0  0  0  0  0  0
   -6.1861    3.4241    2.8954 H   0  0  0  0  0  0  0  0  0  0  0  0
   -4.6369    3.1693    3.6708 H   0  0  0  0  0  0  0  0  0  0  0  0
   -3.3731    2.2391    1.5790 N   0  0  0  0  0  0  0  0  0  0  0  0
   -2.7599    1.4751    0.5247 C   0  0  2  0  0  0  0  0  0  0  0  0
   -1.5143    0.8067    1.0915 C   0  0  0  0  0  0  0  0  0  0  0  0
   -0.9247    1.2213    2.0872 O   0  0  0  0  0  0  0  0  0  0  0  0
   -2.4106    2.3553   -0.6653 C   0  0  0  0  0  0  0  0  0  0  0  0
   -2.8254    2.4352    2.4150 H   0  0  0  0  0  0  0  0  0  0  0  0
   -3.4836    0.7082    0.2278 H   0  0  0  0  0  0  0  0  0  0  0  0
   -1.6866    3.1298   -0.3871 H   0  0  0  0  0  0  0  0  0  0  0  0
   -1.9704    1.7677   -1.4777 H   0  0  0  0  0  0  0  0  0  0  0  0
   -3.3030    2.8584   -1.0531 H   0  0  0  0  0  0  0  0  0  0  0  0
   -1.1107   -0.2839    0.3303 N   0  0  0  0  0  0  0  0  0  0  0  0
    0.0490   -1.0750    0.6539 C   0  0  2  0  0  0  0  0  0  0  0  0
   -0.4211   -2.5081    0.8859 C   0  0  0  0  0  0  0  0  0  0  0  0
   -0.7275   -2.9418    1.9947 O   0  0  0  0  0  0  0  0  0  0  0  0
    0.8212   -0.5310    1.8647 C   0  0  2  0  0  0  0  0  0  0  0  0
   -0.0021   -0.5310    3.0300 O   0  0  0  0  0  0  0  0  0  0  0  0
    1.3128    0.8942    1.6420 C   0  0  0  0  0  0  0  0  0  0  0  0
   -1.6733   -0.5660   -0.4691 H   0  0  0  0  0  0  0  0  0  0  0  0
    0.6910   -1.0625   -0.2353 H   0  0  0  0  0  0  0  0  0  0  0  0
    1.6882   -1.1665    2.0793 H   0  0  0  0  0  0  0  0  0  0  0  0
    0.5566   -0.2261    3.7610 H   0  0  0  0  0  0  0  0  0  0  0  0
    0.4826    1.5742    1.4226 H   0  0  0  0  0  0  0  0  0  0  0  0
    2.0353    0.9420    0.8217 H   0  0  0  0  0  0  0  0  0  0  0  0
    1.7931    1.2749    2.5501 H   0  0  0  0  0  0  0  0  0  0  0  0
   -0.4104   -3.2578   -0.2818 N   0  0  0  0  0  0  0  0  0  0  0  0
   -0.7827   -4.6527   -0.3131 C   0  0  2  0  0  0  0  0  0  0  0  0
   -2.3034   -4.7343   -0.2905 C   0  0  0  0  0  0  0  0  0  0  0  0
   -3.0173   -3.8304    0.1390 O   0  0  0  0  0  0  0  0  0  0  0  0
   -0.1802   -5.4127    0.8583 C   0  0  0  0  0  0  0  0  0  0  0  0
   -0.1299   -2.8079   -1.1482 H   0  0  0  0  0  0  0  0  0  0  0  0
   -0.4087   -5.0587   -1.2593 H   0  0  0  0  0  0  0  0  0  0  0  0
   -0.5433   -5.0201    1.8150 H   0  0  0  0  0  0  0  0  0  0  0  0
   -0.4399   -6.4757    0.8173 H   0  0  0  0  0  0  0  0  0  0  0  0
    0.9119   -5.3281    0.8573 H   0  0  0  0  0  0  0  0  0  0  0  0
   -2.7678   -5.9524   -0.7663 N   0  0  0  0  0  0  0  0  0  0  0  0
   -4.1732   -6.2785   -0.8338 C   0  0  0  0  0  0  0  0  0  0  0  0
   -2.1052   -6.6363   -1.1198 H   0  0  0  0  0  0  0  0  0  0  0  0
   -4.4753   -6.7941    0.0898 H   0  0  0  0  0  0  0  0  0  0  0  0
   -4.7590   -5.3542   -0.9459 H   0  0  0  0  0  0  0  0  0  0  0  0
   -4.3561   -6.9354   -1.6969 H   0  0  0  0  0  0  0  0  0  0  0  0
  1  3  1  0  0  0  0
  1  7  1  0  0  0  0
  1  2  2  0  0  0  0
 32 33  1  0  0  0  0
 33 41  1  0  0  0  0
 33 34  2  0  0  0  0
  8  9  1  0  0  0  0
  9 17  1  0  0  0  0
  9 10  2  0  0  0  0
 18 19  1  0  0  0  0
 19 31  1  0  0  0  0
 19 20  2  0  0  0  0
 32 35  1  0  0  0  0
  8 11  1  0  0  0  0
 21 23  1  0  0  0  0
 41 42  1  0  0  0  0
 31 32  1  0  0  0  0
  7  8  1  0  0  0  0
 18 21  1  0  0  0  0
 17 18  1  0  0  0  0
 21 22  1  0  0  0  0
  3  4  1  0  0  0  0
  3  5  1  0  0  0  0
  3  6  1  0  0  0  0
 35 38  1  0  0  0  0
 35 39  1  0  0  0  0
 35 40  1  0  0  0  0
 11 14  1  0  0  0  0
 11 15  1  0  0  0  0
 11 16  1  0  0  0  0
 23 28  1  0  0  0  0
 23 29  1  0  0  0  0
 23 30  1  0  0  0  0
 42 44  1  0  0  0  0
 42 45  1  0  0  0  0
 42 46  1  0  0  0  0
 32 37  1  0  0  0  0
  8 13  1  0  0  0  0
 18 25  1  0  0  0  0
 21 26  1  0  0  0  0
 41 43  1  0  0  0  0
  7 12  1  0  0  0  0
 31 36  1  0  0  0  0
 17 24  1  0  0  0  0
 22 27  1  0  0  0  0
M  END
$$$$

  -OEChem-05262214473D

 46 45  0     1  0  0  0  0  0999 V2000
   -4.6700    2.7214    1.5150 C   0  0  0  0  0  0  0  0  0  0  0  0
   -5.4532    2.5715    0.5845 O   0  0  0  0  0  0  0  0  0  0  0  0
   -5.0996    3.4865    2.7226 C   0  0  0  0  0  0  0  0  0  0  0  0
   -4.8796    4.5629    2.6387 H   0  0  0  0  0  0  0  0  0  0  0  0
   -6.1861    3.4241    2.8954 H   0  0  0  0  0  0  0  0  0  0  0  0
   -4.6369    3.1693    3.6708 H   0  0  0  0  0  0  0  0  0  0  0  0
   -3.3731    2.2391    1.5790 N   0  0  0  0  0  0  0  0  0  0  0  0
   -2.7599    1.4751    0.5247 C   0  0  2  0  0  0  0  0  0  0  0  0
   -1.5143    0.8067    1.0915 C   0  0  0  0  0  0  0  0  0  0  0  0
   -0.9247    1.2213    2.0872 O   0  0  0  0  0  0  0  0  0  0  0  0
   -2.4106    2.3553   -0.6653 C   0  0  0  0  0  0  0  0  0  0  0  0
   -2.8254    2.4352    2.4150 H   0  0  0  0  0  0  0  0  0  0  0  0
   -3.4836    0.7082    0.2278 H   0  0  0  0  0  0  0  0  0  0  0  0
   -1.6866    3.1298   -0.3871 H   0  0  0  0  0  0  0  0  0  0  0  0
   -1.9704    1.7677   -1.4777 H   0  0  0  0  0  0  0  0  0  0  0  0
   -3.3030    2.8584   -1.0531 H   0  0  0  0  0  0  0  0  0  0  0  0
   -1.1107   -0.2839    0.3303 N   0  0  0  0  0  0  0  0  0  0  0  0
    0.0490   -1.0750    0.6539 C   0  0  2  0  0  0  0  0  0  0  0  0
   -0.4211   -2.5081    0.8859 C   0  0  0  0  0  0  0  0  0  0  0  0
   -0.9765   -2.8721    1.9204 O   0  0  0  0  0  0  0  0  0  0  0  0
    0.8212   -0.5310    1.8647 C   0  0  2  0  0  0  0  0  0  0  0  0
   -0.0021   -0.5310    3.0300 O   0  0  0  0  0  0  0  0  0  0  0  0
    1.3128    0.8942    1.6420 C   0  0  0  0  0  0  0  0  0  0  0  0
   -1.6733   -0.5660   -0.4691 H   0  0  0  0  0  0  0  0  0  0  0  0
    0.6910   -1.0625   -0.2353 H   0  0  0  0  0  0  0  0  0  0  0  0
    1.6882   -1.1665    2.0793 H   0  0  0  0  0  0  0  0  0  0  0  0
    0.5566   -0.2261    3.7610 H   0  0  0  0  0  0  0  0  0  0  0  0
    0.4826    1.5742    1.4226 H   0  0  0  0  0  0  0  0  0  0  0  0
    2.0353    0.9420    0.8217 H   0  0  0  0  0  0  0  0  0  0  0  0
    1.7931    1.2749    2.5501 H   0  0  0  0  0  0  0  0  0  0  0  0
   -0.1030   -3.3417   -0.1769 N   0  0  0  0  0  0  0  0  0  0  0  0
   -0.4150   -4.7517   -0.1791 C   0  0  2  0  0  0  0  0  0  0  0  0
   -1.8918   -4.9060   -0.5175 C   0  0  0  0  0  0  0  0  0  0  0  0
   -2.7155   -4.0087   -0.3512 O   0  0  0  0  0  0  0  0  0  0  0  0
   -0.0952   -5.3912    1.1631 C   0  0  0  0  0  0  0  0  0  0  0  0
    0.3677   -2.9446   -0.9848 H   0  0  0  0  0  0  0  0  0  0  0  0
    0.1910   -5.2084   -0.9691 H   0  0  0  0  0  0  0  0  0  0  0  0
   -0.6928   -4.9464    1.9671 H   0  0  0  0  0  0  0  0  0  0  0  0
   -0.3055   -6.4658    1.1507 H   0  0  0  0  0  0  0  0  0  0  0  0
    0.9610   -5.2534    1.4187 H   0  0  0  0  0  0  0  0  0  0  0  0
   -2.1896   -6.1778   -0.9867 N   0  0  0  0  0  0  0  0  0  0  0  0
   -3.5255   -6.5767   -1.3636 C   0  0  0  0  0  0  0  0  0  0  0  0
   -1.4407   -6.8527   -1.1105 H   0  0  0  0  0  0  0  0  0  0  0  0
   -4.0290   -7.0360   -0.5001 H   0  0  0  0  0  0  0  0  0  0  0  0
   -4.0931   -5.6934   -1.6916 H   0  0  0  0  0  0  0  0  0  0  0  0
   -3.4722   -7.3046   -2.1866 H   0  0  0  0  0  0  0  0  0  0  0  0
  1  3  1  0  0  0  0
  1  7  1  0  0  0  0
  1  2  2  0  0  0  0
 32 33  1  0  0  0  0
 33 41  1  0  0  0  0
 33 34  2  0  0  0  0
  8  9  1  0  0  0  0
  9 17  1  0  0  0  0
  9 10  2  0  0  0  0
 18 19  1  0  0  0  0
 19 31  1  0  0  0  0
 19 20  2  0  0  0  0
 32 35  1  0  0  0  0
  8 11  1  0  0  0  0
 21 23  1  0  0  0  0
 41 42  1  0  0  0  0
 31 32  1  0  0  0  0
  7  8  1  0  0  0  0
 18 21  1  0  0  0  0
 17 18  1  0  0  0  0
 21 22  1  0  0  0  0
  3  4  1  0  0  0  0
  3  5  1  0  0  0  0
  3  6  1  0  0  0  0
 35 38  1  0  0  0  0
 35 39  1  0  0  0  0
 35 40  1  0  0  0  0
 11 14  1  0  0  0  0
 11 15  1  0  0  0  0
 11 16  1  0  0  0  0
 23 28  1  0  0  0  0
 23 29  1  0  0  0  0
 23 30  1  0  0  0  0
 42 44  1  0  0  0  0
 42 45  1  0  0  0  0
 42 46  1  0  0  0  0
 32 37  1  0  0  0  0
  8 13  1  0  0  0  0
 18 25  1  0  0  0  0
 21 26  1  0  0  0  0
 41 43  1  0  0  0  0
  7 12  1  0  0  0  0
 31 36  1  0  0  0  0
 17 24  1  0  0  0  0
 22 27  1  0  0  0  0
M  END
$$$$

  -OEChem-05262214473D

 46 45  0     1  0  0  0  0  0999 V2000
   -4.6700    2.7214    1.5150 C   0  0  0  0  0  0  0  0  0  0  0  0
   -5.4532    2.5715    0.5845 O   0  0  0  0  0  0  0  0  0  0  0  0
   -5.0996    3.4865    2.7226 C   0  0  0  0  0  0  0  0  0  0  0  0
   -4.8796    4.5629    2.6387 H   0  0  0  0  0  0  0  0  0  0  0  0
   -6.1861    3.4241    2.8954 H   0  0  0  0  0  0  0  0  0  0  0  0
   -4.6369    3.1693    3.6708 H   0  0  0  0  0  0  0  0  0  0  0  0
   -3.3731    2.2391    1.5790 N   0  0  0  0  0  0  0  0  0  0  0  0
   -2.7599    1.4751    0.5247 C   0  0  2  0  0  0  0  0  0  0  0  0
   -1.5143    0.8067    1.0915 C   0  0  0  0  0  0  0  0  0  0  0  0
   -0.9247    1.2213    2.0872 O   0  0  0  0  0  0  0  0  0  0  0  0
   -2.4106    2.3553   -0.6653 C   0  0  0  0  0  0  0  0  0  0  0  0
   -2.8254    2.4352    2.4150 H   0  0  0  0  0  0  0  0  0  0  0  0
   -3.4836    0.7082    0.2278 H   0  0  0  0  0  0  0  0  0  0  0  0
   -1.6866    3.1298   -0.3871 H   0  0  0  0  0  0  0  0  0  0  0  0
   -1.9704    1.7677   -1.4777 H   0  0  0  0  0  0  0  0  0  0  0  0
   -3.3030    2.8584   -1.0531 H   0  0  0  0  0  0  0  0  0  0  0  0
   -1.1107   -0.2839    0.3303 N   0  0  0  0  0  0  0  0  0  0  0  0
    0.0490   -1.0750    0.6539 C   0  0  2  0  0  0  0  0  0  0  0  0
   -0.4211   -2.5081    0.8859 C   0  0  0  0  0  0  0  0  0  0  0  0
   -1.2018   -2.8206    1.7827 O   0  0  0  0  0  0  0  0  0  0  0  0
    0.8212   -0.5310    1.8647 C   0  0  2  0  0  0  0  0  0  0  0  0
   -0.0021   -0.5310    3.0300 O   0  0  0  0  0  0  0  0  0  0  0  0
    1.3128    0.8942    1.6420 C   0  0  0  0  0  0  0  0  0  0  0  0
   -1.6733   -0.5660   -0.4691 H   0  0  0  0  0  0  0  0  0  0  0  0
    0.6910   -1.0625   -0.2353 H   0  0  0  0  0  0  0  0  0  0  0  0
    1.6882   -1.1665    2.0793 H   0  0  0  0  0  0  0  0  0  0  0  0
    0.5566   -0.2261    3.7610 H   0  0  0  0  0  0  0  0  0  0  0  0
    0.4826    1.5742    1.4226 H   0  0  0  0  0  0  0  0  0  0  0  0
    2.0353    0.9420    0.8217 H   0  0  0  0  0  0  0  0  0  0  0  0
    1.7931    1.2749    2.5501 H   0  0  0  0  0  0  0  0  0  0  0  0
    0.1718   -3.4023    0.0058 N   0  0  0  0  0  0  0  0  0  0  0  0
   -0.0884   -4.8221    0.0476 C   0  0  2  0  0  0  0  0  0  0  0  0
   -1.4324   -5.0738   -0.6231 C   0  0  0  0  0  0  0  0  0  0  0  0
   -2.2977   -4.2082   -0.7371 O   0  0  0  0  0  0  0  0  0  0  0  0
   -0.0880   -5.3429    1.4764 C   0  0  0  0  0  0  0  0  0  0  0  0
    0.8139   -3.0441   -0.6952 H   0  0  0  0  0  0  0  0  0  0  0  0
    0.7057   -5.3063   -0.5312 H   0  0  0  0  0  0  0  0  0  0  0  0
   -0.8770   -4.8690    2.0717 H   0  0  0  0  0  0  0  0  0  0  0  0
   -0.2571   -6.4244    1.5046 H   0  0  0  0  0  0  0  0  0  0  0  0
    0.8690   -5.1344    1.9669 H   0  0  0  0  0  0  0  0  0  0  0  0
   -1.5687   -6.3902   -1.0409 N   0  0  0  0  0  0  0  0  0  0  0  0
   -2.7594   -6.8816   -1.6942 C   0  0  0  0  0  0  0  0  0  0  0  0
   -0.7926   -7.0349   -0.9228 H   0  0  0  0  0  0  0  0  0  0  0  0
   -3.4451   -7.2991   -0.9422 H   0  0  0  0  0  0  0  0  0  0  0  0
   -3.2552   -6.0542   -2.2230 H   0  0  0  0  0  0  0  0  0  0  0  0
   -2.4849   -7.6655   -2.4154 H   0  0  0  0  0  0  0  0  0  0  0  0
  1  3  1  0  0  0  0
  1  7  1  0  0  0  0
  1  2  2  0  0  0  0
 32 33  1  0  0  0  0
 33 41  1  0  0  0  0
 33 34  2  0  0  0  0
  8  9  1  0  0  0  0
  9 17  1  0  0  0  0
  9 10  2  0  0  0  0
 18 19  1  0  0  0  0
 19 31  1  0  0  0  0
 19 20  2  0  0  0  0
 32 35  1  0  0  0  0
  8 11  1  0  0  0  0
 21 23  1  0  0  0  0
 41 42  1  0  0  0  0
 31 32  1  0  0  0  0
  7  8  1  0  0  0  0
 18 21  1  0  0  0  0
 17 18  1  0  0  0  0
 21 22  1  0  0  0  0
  3  4  1  0  0  0  0
  3  5  1  0  0  0  0
  3  6  1  0  0  0  0
 35 38  1  0  0  0  0
 35 39  1  0  0  0  0
 35 40  1  0  0  0  0
 11 14  1  0  0  0  0
 11 15  1  0  0  0  0
 11 16  1  0  0  0  0
 23 28  1  0  0  0  0
 23 29  1  0  0  0  0
 23 30  1  0  0  0  0
 42 44  1  0  0  0  0
 42 45  1  0  0  0  0
 42 46  1  0  0  0  0
 32 37  1  0  0  0  0
  8 13  1  0  0  0  0
 18 25  1  0  0  0  0
 21 26  1  0  0  0  0
 41 43  1  0  0  0  0
  7 12  1  0  0  0  0
 31 36  1  0  0  0  0
 17 24  1  0  0  0  0
 22 27  1  0  0  0  0
M  END
$$$$

  -OEChem-05262214473D

 46 45  0     1  0  0  0  0  0999 V2000
   -4.6700    2.7214    1.5150 C   0  0  0  0  0  0  0  0  0  0  0  0
   -5.4532    2.5715    0.5845 O   0  0  0  0  0  0  0  0  0  0  0  0
   -5.0996    3.4865    2.7226 C   0  0  0  0  0  0  0  0  0  0  0  0
   -4.8796    4.5629    2.6387 H   0  0  0  0  0  0  0  0  0  0  0  0
   -6.1861    3.4241    2.8954 H   0  0  0  0  0  0  0  0  0  0  0  0
   -4.6369    3.1693    3.6708 H   0  0  0  0  0  0  0  0  0  0  0  0
   -3.3731    2.2391    1.5790 N   0  0  0  0  0  0  0  0  0  0  0  0
   -2.7599    1.4751    0.5247 C   0  0  2  0  0  0  0  0  0  0  0  0
   -1.5143    0.8067    1.0915 C   0  0  0  0  0  0  0  0  0  0  0  0
   -0.9247    1.2213    2.0872 O   0  0  0  0  0  0  0  0  0  0  0  0
   -2.4106    2.3553   -0.6653 C   0  0  0  0  0  0  0  0  0  0  0  0
   -2.8254    2.4352    2.4150 H   0  0  0  0  0  0  0  0  0  0  0  0
   -3.4836    0.7082    0.2278 H   0  0  0  0  0  0  0  0  0  0  0  0
   -1.6866    3.1298   -0.3871 H   0  0  0  0  0  0  0  0  0  0  0  0
   -1.9704    1.7677   -1.4777 H   0  0  0  0  0  0  0  0  0  0  0  0
   -3.3030    2.8584   -1.0531 H   0  0  0  0  0  0  0  0  0  0  0  0
   -1.1107   -0.2839    0.3303 N   0  0  0  0  0  0  0  0  0  0  0  0
    0.0490   -1.0750    0.6539 C   0  0  2  0  0  0  0  0  0  0  0  0
   -0.4211   -2.5081    0.8859 C   0  0  0  0  0  0  0  0  0  0  0  0
   -1.3879   -2.7906    1.5907 O   0  0  0  0  0  0  0  0  0  0  0  0
    0.8212   -0.5310    1.8647 C   0  0  2  0  0  0  0  0  0  0  0  0
   -0.0021   -0.5310    3.0300 O   0  0  0  0  0  0  0  0  0  0  0  0
    1.3128    0.8942    1.6420 C   0  0  0  0  0  0  0  0  0  0  0  0
   -1.6733   -0.5660   -0.4691 H   0  0  0  0  0  0  0  0  0  0  0  0
    0.6910   -1.0625   -0.2353 H   0  0  0  0  0  0  0  0  0  0  0  0
    1.6882   -1.1665    2.0793 H   0  0  0  0  0  0  0  0  0  0  0  0
    0.5566   -0.2261    3.7610 H   0  0  0  0  0  0  0  0  0  0  0  0
    0.4826    1.5742    1.4226 H   0  0  0  0  0  0  0  0  0  0  0  0
    2.0353    0.9420    0.8217 H   0  0  0  0  0  0  0  0  0  0  0  0
    1.7931    1.2749    2.5501 H   0  0  0  0  0  0  0  0  0  0  0  0
    0.3953   -3.4354    0.2539 N   0  0  0  0  0  0  0  0  0  0  0  0
    0.1747   -4.8592    0.3516 C   0  0  2  0  0  0  0  0  0  0  0  0
   -0.9563   -5.2262   -0.6000 C   0  0  0  0  0  0  0  0  0  0  0  0
   -1.7926   -4.4153   -0.9924 O   0  0  0  0  0  0  0  0  0  0  0  0
   -0.1591   -5.2709    1.7770 C   0  0  0  0  0  0  0  0  0  0  0  0
    1.1785   -3.0996   -0.2990 H   0  0  0  0  0  0  0  0  0  0  0  0
    1.1002   -5.3457    0.0248 H   0  0  0  0  0  0  0  0  0  0  0  0
   -1.0834   -4.7932    2.1219 H   0  0  0  0  0  0  0  0  0  0  0  0
   -0.2979   -6.3542    1.8549 H   0  0  0  0  0  0  0  0  0  0  0  0
    0.6422   -4.9794    2.4646 H   0  0  0  0  0  0  0  0  0  0  0  0
   -0.9473   -6.5754   -0.9255 N   0  0  0  0  0  0  0  0  0  0  0  0
   -1.9270   -7.1722   -1.8030 C   0  0  0  0  0  0  0  0  0  0  0  0
   -0.2051   -7.1704   -0.5693 H   0  0  0  0  0  0  0  0  0  0  0  0
   -2.7632   -7.5655   -1.2063 H   0  0  0  0  0  0  0  0  0  0  0  0
   -2.3026   -6.4122   -2.5040 H   0  0  0  0  0  0  0  0  0  0  0  0
   -1.4614   -7.9935   -2.3675 H   0  0  0  0  0  0  0  0  0  0  0  0
  1  3  1  0  0  0  0
  1  7  1  0  0  0  0
  1  2  2  0  0  0  0
 32 33  1  0  0  0  0
 33 41  1  0  0  0  0
 33 34  2  0  0  0  0
  8  9  1  0  0  0  0
  9 17  1  0  0  0  0
  9 10  2  0  0  0  0
 18 19  1  0  0  0  0
 19 31  1  0  0  0  0
 19 20  2  0  0  0  0
 32 35  1  0  0  0  0
  8 11  1  0  0  0  0
 21 23  1  0  0  0  0
 41 42  1  0  0  0  0
 31 32  1  0  0  0  0
  7  8  1  0  0  0  0
 18 21  1  0  0  0  0
 17 18  1  0  0  0  0
 21 22  1  0  0  0  0
  3  4  1  0  0  0  0
  3  5  1  0  0  0  0
  3  6  1  0  0  0  0
 35 38  1  0  0  0  0
 35 39  1  0  0  0  0
 35 40  1  0  0  0  0
 11 14  1  0  0  0  0
 11 15  1  0  0  0  0
 11 16  1  0  0  0  0
 23 28  1  0  0  0  0
 23 29  1  0  0  0  0
 23 30  1  0  0  0  0
 42 44  1  0  0  0  0
 42 45  1  0  0  0  0
 42 46  1  0  0  0  0
 32 37  1  0  0  0  0
  8 13  1  0  0  0  0
 18 25  1  0  0  0  0
 21 26  1  0  0  0  0
 41 43  1  0  0  0  0
  7 12  1  0  0  0  0
 31 36  1  0  0  0  0
 17 24  1  0  0  0  0
 22 27  1  0  0  0  0
M  END
$$$$

  -OEChem-05262214473D

 46 45  0     1  0  0  0  0  0999 V2000
   -4.6700    2.7214    1.5150 C   0  0  0  0  0  0  0  0  0  0  0  0
   -5.4532    2.5715    0.5845 O   0  0  0  0  0  0  0  0  0  0  0  0
   -5.0996    3.4865    2.7226 C   0  0  0  0  0  0  0  0  0  0  0  0
   -4.8796    4.5629    2.6387 H   0  0  0  0  0  0  0  0  0  0  0  0
   -6.1861    3.4241    2.8954 H   0  0  0  0  0  0  0  0  0  0  0  0
   -4.6369    3.1693    3.6708 H   0  0  0  0  0  0  0  0  0  0  0  0
   -3.3731    2.2391    1.5790 N   0  0  0  0  0  0  0  0  0  0  0  0
   -2.7599    1.4751    0.5247 C   0  0  2  0  0  0  0  0  0  0  0  0
   -1.5143    0.8067    1.0915 C   0  0  0  0  0  0  0  0  0  0  0  0
   -0.9247    1.2213    2.0872 O   0  0  0  0  0  0  0  0  0  0  0  0
   -2.4106    2.3553   -0.6653 C   0  0  0  0  0  0  0  0  0  0  0  0
   -2.8254    2.4352    2.4150 H   0  0  0  0  0  0  0  0  0  0  0  0
   -3.4836    0.7082    0.2278 H   0  0  0  0  0  0  0  0  0  0  0  0
   -1.6866    3.1298   -0.3871 H   0  0  0  0  0  0  0  0  0  0  0  0
   -1.9704    1.7677   -1.4777 H   0  0  0  0  0  0  0  0  0  0  0  0
   -3.3030    2.8584   -1.0531 H   0  0  0  0  0  0  0  0  0  0  0  0
   -1.1107   -0.2839    0.3303 N   0  0  0  0  0  0  0  0  0  0  0  0
    0.0490   -1.0750    0.6539 C   0  0  2  0  0  0  0  0  0  0  0  0
   -0.4211   -2.5081    0.8859 C   0  0  0  0  0  0  0  0  0  0  0  0
   -1.5222   -2.7843    1.3577 O   0  0  0  0  0  0  0  0  0  0  0  0
    0.8212   -0.5310    1.8647 C   0  0  2  0  0  0  0  0  0  0  0  0
   -0.0021   -0.5310    3.0300 O   0  0  0  0  0  0  0  0  0  0  0  0
    1.3128    0.8942    1.6420 C   0  0  0  0  0  0  0  0  0  0  0  0
   -1.6733   -0.5660   -0.4691 H   0  0  0  0  0  0  0  0  0  0  0  0
    0.6910   -1.0625   -0.2353 H   0  0  0  0  0  0  0  0  0  0  0  0
    1.6882   -1.1665    2.0793 H   0  0  0  0  0  0  0  0  0  0  0  0
    0.5566   -0.2261    3.7610 H   0  0  0  0  0  0  0  0  0  0  0  0
    0.4826    1.5742    1.4226 H   0  0  0  0  0  0  0  0  0  0  0  0
    2.0353    0.9420    0.8217 H   0  0  0  0  0  0  0  0  0  0  0  0
    1.7931    1.2749    2.5501 H   0  0  0  0  0  0  0  0  0  0  0  0
    0.5521   -3.4388    0.5505 N   0  0  0  0  0  0  0  0  0  0  0  0
    0.3564   -4.8604    0.7121 C   0  0  2  0  0  0  0  0  0  0  0  0
   -0.4960   -5.3529   -0.4499 C   0  0  0  0  0  0  0  0  0  0  0  0
   -1.2345   -4.6157   -1.0998 O   0  0  0  0  0  0  0  0  0  0  0  0
   -0.3037   -5.1802    2.0443 C   0  0  0  0  0  0  0  0  0  0  0  0
    1.4365   -3.1072    0.1767 H   0  0  0  0  0  0  0  0  0  0  0  0
    1.3476   -5.3239    0.6608 H   0  0  0  0  0  0  0  0  0  0  0  0
   -1.2980   -4.7241    2.1141 H   0  0  0  0  0  0  0  0  0  0  0  0
   -0.4254   -6.2602    2.1777 H   0  0  0  0  0  0  0  0  0  0  0  0
    0.2961   -4.7990    2.8779 H   0  0  0  0  0  0  0  0  0  0  0  0
   -0.3679   -6.7205   -0.6482 N   0  0  0  0  0  0  0  0  0  0  0  0
   -1.0851   -7.4289   -1.6826 C   0  0  0  0  0  0  0  0  0  0  0  0
    0.2818   -7.2500   -0.0744 H   0  0  0  0  0  0  0  0  0  0  0  0
   -2.0299   -7.8171   -1.2744 H   0  0  0  0  0  0  0  0  0  0  0  0
   -1.3000   -6.7429   -2.5152 H   0  0  0  0  0  0  0  0  0  0  0  0
   -0.4715   -8.2662   -2.0464 H   0  0  0  0  0  0  0  0  0  0  0  0
  1  3  1  0  0  0  0
  1  7  1  0  0  0  0
  1  2  2  0  0  0  0
 32 33  1  0  0  0  0
 33 41  1  0  0  0  0
 33 34  2  0  0  0  0
  8  9  1  0  0  0  0
  9 17  1  0  0  0  0
  9 10  2  0  0  0  0
 18 19  1  0  0  0  0
 19 31  1  0  0  0  0
 19 20  2  0  0  0  0
 32 35  1  0  0  0  0
  8 11  1  0  0  0  0
 21 23  1  0  0  0  0
 41 42  1  0  0  0  0
 31 32  1  0  0  0  0
  7  8  1  0  0  0  0
 18 21  1  0  0  0  0
 17 18  1  0  0  0  0
 21 22  1  0  0  0  0
  3  4  1  0  0  0  0
  3  5  1  0  0  0  0
  3  6  1  0  0  0  0
 35 38  1  0  0  0  0
 35 39  1  0  0  0  0
 35 40  1  0  0  0  0
 11 14  1  0  0  0  0
 11 15  1  0  0  0  0
 11 16  1  0  0  0  0
 23 28  1  0  0  0  0
 23 29  1  0  0  0  0
 23 30  1  0  0  0  0
 42 44  1  0  0  0  0
 42 45  1  0  0  0  0
 42 46  1  0  0  0  0
 32 37  1  0  0  0  0
  8 13  1  0  0  0  0
 18 25  1  0  0  0  0
 21 26  1  0  0  0  0
 41 43  1  0  0  0  0
  7 12  1  0  0  0  0
 31 36  1  0  0  0  0
 17 24  1  0  0  0  0
 22 27  1  0  0  0  0
M  END
$$$$

  -OEChem-05262214473D

 46 45  0     1  0  0  0  0  0999 V2000
   -4.6700    2.7214    1.5150 C   0  0  0  0  0  0  0  0  0  0  0  0
   -5.4532    2.5715    0.5845 O   0  0  0  0  0  0  0  0  0  0  0  0
   -5.0996    3.4865    2.7226 C   0  0  0  0  0  0  0  0  0  0  0  0
   -4.8796    4.5629    2.6387 H   0  0  0  0  0  0  0  0  0  0  0  0
   -6.1861    3.4241    2.8954 H   0  0  0  0  0  0  0  0  0  0  0  0
   -4.6369    3.1693    3.6708 H   0  0  0  0  0  0  0  0  0  0  0  0
   -3.3731    2.2391    1.5790 N   0  0  0  0  0  0  0  0  0  0  0  0
   -2.7599    1.4751    0.5247 C   0  0  2  0  0  0  0  0  0  0  0  0
   -1.5143    0.8067    1.0915 C   0  0  0  0  0  0  0  0  0  0  0  0
   -0.9247    1.2213    2.0872 O   0  0  0  0  0  0  0  0  0  0  0  0
   -2.4106    2.3553   -0.6653 C   0  0  0  0  0  0  0  0  0  0  0  0
   -2.8254    2.4352    2.4150 H   0  0  0  0  0  0  0  0  0  0  0  0
   -3.4836    0.7082    0.2278 H   0  0  0  0  0  0  0  0  0  0  0  0
   -1.6866    3.1298   -0.3871 H   0  0  0  0  0  0  0  0  0  0  0  0
   -1.9704    1.7677   -1.4777 H   0  0  0  0  0  0  0  0  0  0  0  0
   -3.3030    2.8584   -1.0531 H   0  0  0  0  0  0  0  0  0  0  0  0
   -1.1107   -0.2839    0.3303 N   0  0  0  0  0  0  0  0  0  0  0  0
    0.0490   -1.0750    0.6539 C   0  0  2  0  0  0  0  0  0  0  0  0
   -0.4211   -2.5081    0.8859 C   0  0  0  0  0  0  0  0  0  0  0  0
   -1.5955   -2.8020    1.0995 O   0  0  0  0  0  0  0  0  0  0  0  0
    0.8212   -0.5310    1.8647 C   0  0  2  0  0  0  0  0  0  0  0  0
   -0.0021   -0.5310    3.0300 O   0  0  0  0  0  0  0  0  0  0  0  0
    1.3128    0.8942    1.6420 C   0  0  0  0  0  0  0  0  0  0  0  0
   -1.6733   -0.5660   -0.4691 H   0  0  0  0  0  0  0  0  0  0  0  0
    0.6910   -1.0625   -0.2353 H   0  0  0  0  0  0  0  0  0  0  0  0
    1.6882   -1.1665    2.0793 H   0  0  0  0  0  0  0  0  0  0  0  0
    0.5566   -0.2261    3.7610 H   0  0  0  0  0  0  0  0  0  0  0  0
    0.4826    1.5742    1.4226 H   0  0  0  0  0  0  0  0  0  0  0  0
    2.0353    0.9420    0.8217 H   0  0  0  0  0  0  0  0  0  0  0  0
    1.7931    1.2749    2.5501 H   0  0  0  0  0  0  0  0  0  0  0  0
    0.6316   -3.4123    0.8754 N   0  0  0  0  0  0  0  0  0  0  0  0
    0.4444   -4.8257    1.1046 C   0  0  2  0  0  0  0  0  0  0  0  0
   -0.0830   -5.4451   -0.1829 C   0  0  0  0  0  0  0  0  0  0  0  0
   -0.6614   -4.7959   -1.0518 O   0  0  0  0  0  0  0  0  0  0  0  0
   -0.5119   -5.0769    2.2601 C   0  0  0  0  0  0  0  0  0  0  0  0
    1.5704   -3.0664    0.6996 H   0  0  0  0  0  0  0  0  0  0  0  0
    1.4312   -5.2424    1.3336 H   0  0  0  0  0  0  0  0  0  0  0  0
   -1.5061   -4.6664    2.0490 H   0  0  0  0  0  0  0  0  0  0  0  0
   -0.6306   -6.1486    2.4511 H   0  0  0  0  0  0  0  0  0  0  0  0
   -0.1458   -4.6054    3.1785 H   0  0  0  0  0  0  0  0  0  0  0  0
    0.1301   -6.8158   -0.2280 N   0  0  0  0  0  0  0  0  0  0  0  0
   -0.2910   -7.6340   -1.3412 C   0  0  0  0  0  0  0  0  0  0  0  0
    0.6349   -7.2682    0.5284 H   0  0  0  0  0  0  0  0  0  0  0  0
   -1.2951   -8.0366   -1.1418 H   0  0  0  0  0  0  0  0  0  0  0  0
   -0.3158   -7.0237   -2.2560 H   0  0  0  0  0  0  0  0  0  0  0  0
    0.4174   -8.4650   -1.4739 H   0  0  0  0  0  0  0  0  0  0  0  0
  1  3  1  0  0  0  0
  1  7  1  0  0  0  0
  1  2  2  0  0  0  0
 32 33  1  0  0  0  0
 33 41  1  0  0  0  0
 33 34  2  0  0  0  0
  8  9  1  0  0  0  0
  9 17  1  0  0  0  0
  9 10  2  0  0  0  0
 18 19  1  0  0  0  0
 19 31  1  0  0  0  0
 19 20  2  0  0  0  0
 32 35  1  0  0  0  0
  8 11  1  0  0  0  0
 21 23  1  0  0  0  0
 41 42  1  0  0  0  0
 31 32  1  0  0  0  0
  7  8  1  0  0  0  0
 18 21  1  0  0  0  0
 17 18  1  0  0  0  0
 21 22  1  0  0  0  0
  3  4  1  0  0  0  0
  3  5  1  0  0  0  0
  3  6  1  0  0  0  0
 35 38  1  0  0  0  0
 35 39  1  0  0  0  0
 35 40  1  0  0  0  0
 11 14  1  0  0  0  0
 11 15  1  0  0  0  0
 11 16  1  0  0  0  0
 23 28  1  0  0  0  0
 23 29  1  0  0  0  0
 23 30  1  0  0  0  0
 42 44  1  0  0  0  0
 42 45  1  0  0  0  0
 42 46  1  0  0  0  0
 32 37  1  0  0  0  0
  8 13  1  0  0  0  0
 18 25  1  0  0  0  0
 21 26  1  0  0  0  0
 41 43  1  0  0  0  0
  7 12  1  0  0  0  0
 31 36  1  0  0  0  0
 17 24  1  0  0  0  0
 22 27  1  0  0  0  0
M  END
$$$$

  -OEChem-05262214473D

 46 45  0     1  0  0  0  0  0999 V2000
   -4.6700    2.7214    1.5150 C   0  0  0  0  0  0  0  0  0  0  0  0
   -5.4532    2.5715    0.5845 O   0  0  0  0  0  0  0  0  0  0  0  0
   -5.0996    3.4865    2.7226 C   0  0  0  0  0  0  0  0  0  0  0  0
   -4.8796    4.5629    2.6387 H   0  0  0  0  0  0  0  0  0  0  0  0
   -6.1861    3.4241    2.8954 H   0  0  0  0  0  0  0  0  0  0  0  0
   -4.6369    3.1693    3.6708 H   0  0  0  0  0  0  0  0  0  0  0  0
   -3.3731    2.2391    1.5790 N   0  0  0  0  0  0  0  0  0  0  0  0
   -2.7599    1.4751    0.5247 C   0  0  2  0  0  0  0  0  0  0  0  0
   -1.5143    0.8067    1.0915 C   0  0  0  0  0  0  0  0  0  0  0  0
   -0.9247    1.2213    2.0872 O   0  0  0  0  0  0  0  0  0  0  0  0
   -2.4106    2.3553   -0.6653 C   0  0  0  0  0  0  0  0  0  0  0  0
   -2.8254    2.4352    2.4150 H   0  0  0  0  0  0  0  0  0  0  0  0
   -3.4836    0.7082    0.2278 H   0  0  0  0  0  0  0  0  0  0  0  0
   -1.6866    3.1298   -0.3871 H   0  0  0  0  0  0  0  0  0  0  0  0
   -1.9704    1.7677   -1.4777 H   0  0  0  0  0  0  0  0  0  0  0  0
   -3.3030    2.8584   -1.0531 H   0  0  0  0  0  0  0  0  0  0  0  0
   -1.1107   -0.2839    0.3303 N   0  0  0  0  0  0  0  0  0  0  0  0
    0.0490   -1.0750    0.6539 C   0  0  2  0  0  0  0  0  0  0  0  0
   -0.3421   -2.5436    0.5162 C   0  0  0  0  0  0  0  0  0  0  0  0
   -1.4781   -2.9099    0.2220 O   0  0  0  0  0  0  0  0  0  0  0  0
    0.6075   -0.7680    2.0511 C   0  0  2  0  0  0  0  0  0  0  0  0
   -0.3644   -1.0512    3.0566 O   0  0  0  0  0  0  0  0  0  0  0  0
    1.0192    0.6917    2.1994 C   0  0  0  0  0  0  0  0  0  0  0  0
   -1.6733   -0.5660   -0.4691 H   0  0  0  0  0  0  0  0  0  0  0  0
    0.8033   -0.8462   -0.1088 H   0  0  0  0  0  0  0  0  0  0  0  0
    1.4814   -1.3967    2.2576 H   0  0  0  0  0  0  0  0  0  0  0  0
    0.0659   -0.8848    3.9090 H   0  0  0  0  0  0  0  0  0  0  0  0
    0.1790    1.3664    2.0029 H   0  0  0  0  0  0  0  0  0  0  0  0
    1.8411    0.9439    1.5226 H   0  0  0  0  0  0  0  0  0  0  0  0
    1.3423    0.8910    3.2271 H   0  0  0  0  0  0  0  0  0  0  0  0
    0.7134   -3.3958    0.8085 N   0  0  0  0  0  0  0  0  0  0  0  0
    0.5821   -4.8336    0.7800 C   0  0  2  0  0  0  0  0  0  0  0  0
    0.6400   -5.2825   -0.6741 C   0  0  0  0  0  0  0  0  0  0  0  0
    0.3774   -4.5385   -1.6168 O   0  0  0  0  0  0  0  0  0  0  0  0
   -0.7135   -5.2840    1.4368 C   0  0  0  0  0  0  0  0  0  0  0  0
    1.6134   -2.9925    1.0519 H   0  0  0  0  0  0  0  0  0  0  0  0
    1.4421   -5.2405    1.3230 H   0  0  0  0  0  0  0  0  0  0  0  0
   -1.5864   -4.8860    0.9066 H   0  0  0  0  0  0  0  0  0  0  0  0
   -0.7981   -6.3757    1.4399 H   0  0  0  0  0  0  0  0  0  0  0  0
   -0.7668   -4.9348    2.4736 H   0  0  0  0  0  0  0  0  0  0  0  0
    0.9774   -6.6234   -0.7933 N   0  0  0  0  0  0  0  0  0  0  0  0
    1.0851   -7.2897   -2.0702 C   0  0  0  0  0  0  0  0  0  0  0  0
    1.1969   -7.1595    0.0410 H   0  0  0  0  0  0  0  0  0  0  0  0
    0.1212   -7.7550   -2.3241 H   0  0  0  0  0  0  0  0  0  0  0  0
    1.3534   -6.5563   -2.8449 H   0  0  0  0  0  0  0  0  0  0  0  0
    1.8631   -8.0653   -2.0145 H   0  0  0  0  0  0  0  0  0  0  0  0
  1  3  1  0  0  0  0
  1  7  1  0  0  0  0
  1  2  2  0  0  0  0
 32 33  1  0  0  0  0
 33 41  1  0  0  0  0
 33 34  2  0  0  0  0
  8  9  1  0  0  0  0
  9 17  1  0  0  0  0
  9 10  2  0  0  0  0
 18 19  1  0  0  0  0
 19 31  1  0  0  0  0
 19 20  2  0  0  0  0
 32 35  1  0  0  0  0
  8 11  1  0  0  0  0
 21 23  1  0  0  0  0
 41 42  1  0  0  0  0
 31 32  1  0  0  0  0
  7  8  1  0  0  0  0
 18 21  1  0  0  0  0
 17 18  1  0  0  0  0
 21 22  1  0  0  0  0
  3  4  1  0  0  0  0
  3  5  1  0  0  0  0
  3  6  1  0  0  0  0
 35 38  1  0  0  0  0
 35 39  1  0  0  0  0
 35 40  1  0  0  0  0
 11 14  1  0  0  0  0
 11 15  1  0  0  0  0
 11 16  1  0  0  0  0
 23 28  1  0  0  0  0
 23 29  1  0  0  0  0
 23 30  1  0  0  0  0
 42 44  1  0  0  0  0
 42 45  1  0  0  0  0
 42 46  1  0  0  0  0
 32 37  1  0  0  0  0
  8 13  1  0  0  0  0
 18 25  1  0  0  0  0
 21 26  1  0  0  0  0
 41 43  1  0  0  0  0
  7 12  1  0  0  0  0
 31 36  1  0  0  0  0
 17 24  1  0  0  0  0
 22 27  1  0  0  0  0
M  END
$$$$

  -OEChem-05262214473D

 46 45  0     1  0  0  0  0  0999 V2000
   -4.6700    2.7214    1.5150 C   0  0  0  0  0  0  0  0  0  0  0  0
   -5.4532    2.5715    0.5845 O   0  0  0  0  0  0  0  0  0  0  0  0
   -5.0996    3.4865    2.7226 C   0  0  0  0  0  0  0  0  0  0  0  0
   -4.8796    4.5629    2.6387 H   0  0  0  0  0  0  0  0  0  0  0  0
   -6.1861    3.4241    2.8954 H   0  0  0  0  0  0  0  0  0  0  0  0
   -4.6369    3.1693    3.6708 H   0  0  0  0  0  0  0  0  0  0  0  0
   -3.3731    2.2391    1.5790 N   0  0  0  0  0  0  0  0  0  0  0  0
   -2.7599    1.4751    0.5247 C   0  0  2  0  0  0  0  0  0  0  0  0
   -1.5143    0.8067    1.0915 C   0  0  0  0  0  0  0  0  0  0  0  0
   -0.9247    1.2213    2.0872 O   0  0  0  0  0  0  0  0  0  0  0  0
   -2.4106    2.3553   -0.6653 C   0  0  0  0  0  0  0  0  0  0  0  0
   -2.8254    2.4352    2.4150 H   0  0  0  0  0  0  0  0  0  0  0  0
   -3.4836    0.7082    0.2278 H   0  0  0  0  0  0  0  0  0  0  0  0
   -1.6866    3.1298   -0.3871 H   0  0  0  0  0  0  0  0  0  0  0  0
   -1.9704    1.7677   -1.4777 H   0  0  0  0  0  0  0  0  0  0  0  0
   -3.3030    2.8584   -1.0531 H   0  0  0  0  0  0  0  0  0  0  0  0
   -1.1107   -0.2839    0.3303 N   0  0  0  0  0  0  0  0  0  0  0  0
    0.0490   -1.0750    0.6539 C   0  0  2  0  0  0  0  0  0  0  0  0
   -0.3421   -2.5436    0.5162 C   0  0  0  0  0  0  0  0  0  0  0  0
   -1.3805   -2.9124   -0.0287 O   0  0  0  0  0  0  0  0  0  0  0  0
    0.6075   -0.7680    2.0511 C   0  0  2  0  0  0  0  0  0  0  0  0
   -0.3644   -1.0512    3.0566 O   0  0  0  0  0  0  0  0  0  0  0  0
    1.0192    0.6917    2.1994 C   0  0  0  0  0  0  0  0  0  0  0  0
   -1.6733   -0.5660   -0.4691 H   0  0  0  0  0  0  0  0  0  0  0  0
    0.8033   -0.8462   -0.1088 H   0  0  0  0  0  0  0  0  0  0  0  0
    1.4814   -1.3967    2.2576 H   0  0  0  0  0  0  0  0  0  0  0  0
    0.0659   -0.8848    3.9090 H   0  0  0  0  0  0  0  0  0  0  0  0
    0.1790    1.3664    2.0029 H   0  0  0  0  0  0  0  0  0  0  0  0
    1.8411    0.9439    1.5226 H   0  0  0  0  0  0  0  0  0  0  0  0
    1.3423    0.8910    3.2271 H   0  0  0  0  0  0  0  0  0  0  0  0
    0.5801   -3.3892    1.1163 N   0  0  0  0  0  0  0  0  0  0  0  0
    0.4144   -4.8234    1.1472 C   0  0  2  0  0  0  0  0  0  0  0  0
    0.8172   -5.3727   -0.2150 C   0  0  0  0  0  0  0  0  0  0  0  0
    0.8207   -4.6920   -1.2385 O   0  0  0  0  0  0  0  0  0  0  0  0
   -1.0173   -5.2077    1.4865 C   0  0  0  0  0  0  0  0  0  0  0  0
    1.4038   -2.9835    1.5508 H   0  0  0  0  0  0  0  0  0  0  0  0
    1.0993   -5.2045    1.9124 H   0  0  0  0  0  0  0  0  0  0  0  0
   -1.7182   -4.8345    0.7309 H   0  0  0  0  0  0  0  0  0  0  0  0
   -1.1347   -6.2952    1.5376 H   0  0  0  0  0  0  0  0  0  0  0  0
   -1.3152   -4.7868    2.4529 H   0  0  0  0  0  0  0  0  0  0  0  0
    1.1309   -6.7236   -0.1609 N   0  0  0  0  0  0  0  0  0  0  0  0
    1.5311   -7.4783   -1.3255 C   0  0  0  0  0  0  0  0  0  0  0  0
    1.1193   -7.2038    0.7341 H   0  0  0  0  0  0  0  0  0  0  0  0
    0.6461   -7.9456   -1.7821 H   0  0  0  0  0  0  0  0  0  0  0  0
    2.0064   -6.8044   -2.0534 H   0  0  0  0  0  0  0  0  0  0  0  0
    2.2458   -8.2598   -1.0280 H   0  0  0  0  0  0  0  0  0  0  0  0
  1  3  1  0  0  0  0
  1  7  1  0  0  0  0
  1  2  2  0  0  0  0
 32 33  1  0  0  0  0
 33 41  1  0  0  0  0
 33 34  2  0  0  0  0
  8  9  1  0  0  0  0
  9 17  1  0  0  0  0
  9 10  2  0  0  0  0
 18 19  1  0  0  0  0
 19 31  1  0  0  0  0
 19 20  2  0  0  0  0
 32 35  1  0  0  0  0
  8 11  1  0  0  0  0
 21 23  1  0  0  0  0
 41 42  1  0  0  0  0
 31 32  1  0  0  0  0
  7  8  1  0  0  0  0
 18 21  1  0  0  0  0
 17 18  1  0  0  0  0
 21 22  1  0  0  0  0
  3  4  1  0  0  0  0
  3  5  1  0  0  0  0
  3  6  1  0  0  0  0
 35 38  1  0  0  0  0
 35 39  1  0  0  0  0
 35 40  1  0  0  0  0
 11 14  1  0  0  0  0
 11 15  1  0  0  0  0
 11 16  1  0  0  0  0
 23 28  1  0  0  0  0
 23 29  1  0  0  0  0
 23 30  1  0  0  0  0
 42 44  1  0  0  0  0
 42 45  1  0  0  0  0
 42 46  1  0  0  0  0
 32 37  1  0  0  0  0
  8 13  1  0  0  0  0
 18 25  1  0  0  0  0
 21 26  1  0  0  0  0
 41 43  1  0  0  0  0
  7 12  1  0  0  0  0
 31 36  1  0  0  0  0
 17 24  1  0  0  0  0
 22 27  1  0  0  0  0
M  END
$$$$

  -OEChem-05262214473D

 46 45  0     1  0  0  0  0  0999 V2000
   -4.6700    2.7214    1.5150 C   0  0  0  0  0  0  0  0  0  0  0  0
   -5.4532    2.5715    0.5845 O   0  0  0  0  0  0  0  0  0  0  0  0
   -5.0996    3.4865    2.7226 C   0  0  0  0  0  0  0  0  0  0  0  0
   -4.8796    4.5629    2.6387 H   0  0  0  0  0  0  0  0  0  0  0  0
   -6.1861    3.4241    2.8954 H   0  0  0  0  0  0  0  0  0  0  0  0
   -4.6369    3.1693    3.6708 H   0  0  0  0  0  0  0  0  0  0  0  0
   -3.3731    2.2391    1.5790 N   0  0  0  0  0  0  0  0  0  0  0  0
   -2.7599    1.4751    0.5247 C   0  0  2  0  0  0  0  0  0  0  0  0
   -1.5143    0.8067    1.0915 C   0  0  0  0  0  0  0  0  0  0  0  0
   -0.9247    1.2213    2.0872 O   0  0  0  0  0  0  0  0  0  0  0  0
   -2.4106    2.3553   -0.6653 C   0  0  0  0  0  0  0  0  0  0  0  0
   -2.8254    2.4352    2.4150 H   0  0  0  0  0  0  0  0  0  0  0  0
   -3.4836    0.7082    0.2278 H   0  0  0  0  0  0  0  0  0  0  0  0
   -1.6866    3.1298   -0.3871 H   0  0  0  0  0  0  0  0  0  0  0  0
   -1.9704    1.7677   -1.4777 H   0  0  0  0  0  0  0  0  0  0  0  0
   -3.3030    2.8584   -1.0531 H   0  0  0  0  0  0  0  0  0  0  0  0
   -1.1107   -0.2839    0.3303 N   0  0  0  0  0  0  0  0  0  0  0  0
    0.0490   -1.0750    0.6539 C   0  0  2  0  0  0  0  0  0  0  0  0
   -0.3421   -2.5436    0.5162 C   0  0  0  0  0  0  0  0  0  0  0  0
   -1.2239   -2.9337   -0.2463 O   0  0  0  0  0  0  0  0  0  0  0  0
    0.6075   -0.7680    2.0511 C   0  0  2  0  0  0  0  0  0  0  0  0
   -0.3644   -1.0512    3.0566 O   0  0  0  0  0  0  0  0  0  0  0  0
    1.0192    0.6917    2.1994 C   0  0  0  0  0  0  0  0  0  0  0  0
   -1.6733   -0.5660   -0.4691 H   0  0  0  0  0  0  0  0  0  0  0  0
    0.8033   -0.8462   -0.1088 H   0  0  0  0  0  0  0  0  0  0  0  0
    1.4814   -1.3967    2.2576 H   0  0  0  0  0  0  0  0  0  0  0  0
    0.0659   -0.8848    3.9090 H   0  0  0  0  0  0  0  0  0  0  0  0
    0.1790    1.3664    2.0029 H   0  0  0  0  0  0  0  0  0  0  0  0
    1.8411    0.9439    1.5226 H   0  0  0  0  0  0  0  0  0  0  0  0
    1.3423    0.8910    3.2271 H   0  0  0  0  0  0  0  0  0  0  0  0
    0.3749   -3.3592    1.3800 N   0  0  0  0  0  0  0  0  0  0  0  0
    0.1612   -4.7852    1.4593 C   0  0  2  0  0  0  0  0  0  0  0  0
    0.8720   -5.4336    0.2787 C   0  0  0  0  0  0  0  0  0  0  0  0
    1.1511   -4.8256   -0.7525 O   0  0  0  0  0  0  0  0  0  0  0  0
   -1.3214   -5.1237    1.4539 C   0  0  0  0  0  0  0  0  0  0  0  0
    1.0774   -2.9368    1.9800 H   0  0  0  0  0  0  0  0  0  0  0  0
    0.6222   -5.1226    2.3940 H   0  0  0  0  0  0  0  0  0  0  0  0
   -1.8005   -4.7932    0.5250 H   0  0  0  0  0  0  0  0  0  0  0  0
   -1.4822   -6.2032    1.5428 H   0  0  0  0  0  0  0  0  0  0  0  0
   -1.8364   -4.6324    2.2864 H   0  0  0  0  0  0  0  0  0  0  0  0
    1.1193   -6.7820    0.4950 N   0  0  0  0  0  0  0  0  0  0  0  0
    1.7719   -7.6215   -0.4824 C   0  0  0  0  0  0  0  0  0  0  0  0
    0.8706   -7.1989    1.3873 H   0  0  0  0  0  0  0  0  0  0  0  0
    1.0137   -8.1060   -1.1152 H   0  0  0  0  0  0  0  0  0  0  0  0
    2.4343   -7.0069   -1.1097 H   0  0  0  0  0  0  0  0  0  0  0  0
    2.3652   -8.3911    0.0331 H   0  0  0  0  0  0  0  0  0  0  0  0
  1  3  1  0  0  0  0
  1  7  1  0  0  0  0
  1  2  2  0  0  0  0
 32 33  1  0  0  0  0
 33 41  1  0  0  0  0
 33 34  2  0  0  0  0
  8  9  1  0  0  0  0
  9 17  1  0  0  0  0
  9 10  2  0  0  0  0
 18 19  1  0  0  0  0
 19 31  1  0  0  0  0
 19 20  2  0  0  0  0
 32 35  1  0  0  0  0
  8 11  1  0  0  0  0
 21 23  1  0  0  0  0
 41 42  1  0  0  0  0
 31 32  1  0  0  0  0
  7  8  1  0  0  0  0
 18 21  1  0  0  0  0
 17 18  1  0  0  0  0
 21 22  1  0  0  0  0
  3  4  1  0  0  0  0
  3  5  1  0  0  0  0
  3  6  1  0  0  0  0
 35 38  1  0  0  0  0
 35 39  1  0  0  0  0
 35 40  1  0  0  0  0
 11 14  1  0  0  0  0
 11 15  1  0  0  0  0
 11 16  1  0  0  0  0
 23 28  1  0  0  0  0
 23 29  1  0  0  0  0
 23 30  1  0  0  0  0
 42 44  1  0  0  0  0
 42 45  1  0  0  0  0
 42 46  1  0  0  0  0
 32 37  1  0  0  0  0
  8 13  1  0  0  0  0
 18 25  1  0  0  0  0
 21 26  1  0  0  0  0
 41 43  1  0  0  0  0
  7 12  1  0  0  0  0
 31 36  1  0  0  0  0
 17 24  1  0  0  0  0
 22 27  1  0  0  0  0
M  END
$$$$

  -OEChem-05262214473D

 46 45  0     1  0  0  0  0  0999 V2000
   -4.6700    2.7214    1.5150 C   0  0  0  0  0  0  0  0  0  0  0  0
   -5.4532    2.5715    0.5845 O   0  0  0  0  0  0  0  0  0  0  0  0
   -5.0996    3.4865    2.7226 C   0  0  0  0  0  0  0  0  0  0  0  0
   -4.8796    4.5629    2.6387 H   0  0  0  0  0  0  0  0  0  0  0  0
   -6.1861    3.4241    2.8954 H   0  0  0  0  0  0  0  0  0  0  0  0
   -4.6369    3.1693    3.6708 H   0  0  0  0  0  0  0  0  0  0  0  0
   -3.3731    2.2391    1.5790 N   0  0  0  0  0  0  0  0  0  0  0  0
   -2.7599    1.4751    0.5247 C   0  0  2  0  0  0  0  0  0  0  0  0
   -1.5143    0.8067    1.0915 C   0  0  0  0  0  0  0  0  0  0  0  0
   -0.9247    1.2213    2.0872 O   0  0  0  0  0  0  0  0  0  0  0  0
   -2.4106    2.3553   -0.6653 C   0  0  0  0  0  0  0  0  0  0  0  0
   -2.8254    2.4352    2.4150 H   0  0  0  0  0  0  0  0  0  0  0  0
   -3.4836    0.7082    0.2278 H   0  0  0  0  0  0  0  0  0  0  0  0
   -1.6866    3.1298   -0.3871 H   0  0  0  0  0  0  0  0  0  0  0  0
   -1.9704    1.7677   -1.4777 H   0  0  0  0  0  0  0  0  0  0  0  0
   -3.3030    2.8584   -1.0531 H   0  0  0  0  0  0  0  0  0  0  0  0
   -1.1107   -0.2839    0.3303 N   0  0  0  0  0  0  0  0  0  0  0  0
    0.0490   -1.0750    0.6539 C   0  0  2  0  0  0  0  0  0  0  0  0
   -0.3421   -2.5436    0.5162 C   0  0  0  0  0  0  0  0  0  0  0  0
   -1.0189   -2.9724   -0.4162 O   0  0  0  0  0  0  0  0  0  0  0  0
    0.6075   -0.7680    2.0511 C   0  0  2  0  0  0  0  0  0  0  0  0
   -0.3644   -1.0512    3.0566 O   0  0  0  0  0  0  0  0  0  0  0  0
    1.0192    0.6917    2.1994 C   0  0  0  0  0  0  0  0  0  0  0  0
   -1.6733   -0.5660   -0.4691 H   0  0  0  0  0  0  0  0  0  0  0  0
    0.8033   -0.8462   -0.1088 H   0  0  0  0  0  0  0  0  0  0  0  0
    1.4814   -1.3967    2.2576 H   0  0  0  0  0  0  0  0  0  0  0  0
    0.0659   -0.8848    3.9090 H   0  0  0  0  0  0  0  0  0  0  0  0
    0.1790    1.3664    2.0029 H   0  0  0  0  0  0  0  0  0  0  0  0
    1.8411    0.9439    1.5226 H   0  0  0  0  0  0  0  0  0  0  0  0
    1.3423    0.8910    3.2271 H   0  0  0  0  0  0  0  0  0  0  0  0
    0.1117   -3.3081    1.5817 N   0  0  0  0  0  0  0  0  0  0  0  0
   -0.1602   -4.7217    1.6953 C   0  0  2  0  0  0  0  0  0  0  0  0
    0.8005   -5.4610    0.7733 C   0  0  0  0  0  0  0  0  0  0  0  0
    1.3461   -4.9301   -0.1919 O   0  0  0  0  0  0  0  0  0  0  0  0
   -1.6050   -5.0376    1.3410 C   0  0  0  0  0  0  0  0  0  0  0  0
    0.6562   -2.8556    2.3101 H   0  0  0  0  0  0  0  0  0  0  0  0
    0.0433   -5.0004    2.7350 H   0  0  0  0  0  0  0  0  0  0  0  0
   -1.8277   -4.7652    0.3029 H   0  0  0  0  0  0  0  0  0  0  0  0
   -1.8171   -6.1058    1.4551 H   0  0  0  0  0  0  0  0  0  0  0  0
   -2.2947   -4.4822    1.9856 H   0  0  0  0  0  0  0  0  0  0  0  0
    0.9434   -6.7947    1.1295 N   0  0  0  0  0  0  0  0  0  0  0  0
    1.7913   -7.7096    0.4013 C   0  0  0  0  0  0  0  0  0  0  0  0
    0.4678   -7.1449    1.9558 H   0  0  0  0  0  0  0  0  0  0  0  0
    1.1989   -8.2254   -0.3688 H   0  0  0  0  0  0  0  0  0  0  0  0
    2.6078   -7.1499   -0.0782 H   0  0  0  0  0  0  0  0  0  0  0  0
    2.2133   -8.4504    1.0964 H   0  0  0  0  0  0  0  0  0  0  0  0
  1  3  1  0  0  0  0
  1  7  1  0  0  0  0
  1  2  2  0  0  0  0
 32 33  1  0  0  0  0
 33 41  1  0  0  0  0
 33 34  2  0  0  0  0
  8  9  1  0  0  0  0
  9 17  1  0  0  0  0
  9 10  2  0  0  0  0
 18 19  1  0  0  0  0
 19 31  1  0  0  0  0
 19 20  2  0  0  0  0
 32 35  1  0  0  0  0
  8 11  1  0  0  0  0
 21 23  1  0  0  0  0
 41 42  1  0  0  0  0
 31 32  1  0  0  0  0
  7  8  1  0  0  0  0
 18 21  1  0  0  0  0
 17 18  1  0  0  0  0
 21 22  1  0  0  0  0
  3  4  1  0  0  0  0
  3  5  1  0  0  0  0
  3  6  1  0  0  0  0
 35 38  1  0  0  0  0
 35 39  1  0  0  0  0
 35 40  1  0  0  0  0
 11 14  1  0  0  0  0
 11 15  1  0  0  0  0
 11 16  1  0  0  0  0
 23 28  1  0  0  0  0
 23 29  1  0  0  0  0
 23 30  1  0  0  0  0
 42 44  1  0  0  0  0
 42 45  1  0  0  0  0
 42 46  1  0  0  0  0
 32 37  1  0  0  0  0
  8 13  1  0  0  0  0
 18 25  1  0  0  0  0
 21 26  1  0  0  0  0
 41 43  1  0  0  0  0
  7 12  1  0  0  0  0
 31 36  1  0  0  0  0
 17 24  1  0  0  0  0
 22 27  1  0  0  0  0
M  END
$$$$

  -OEChem-05262214473D

 46 45  0     1  0  0  0  0  0999 V2000
   -4.6700    2.7214    1.5150 C   0  0  0  0  0  0  0  0  0  0  0  0
   -5.4532    2.5715    0.5845 O   0  0  0  0  0  0  0  0  0  0  0  0
   -5.0996    3.4865    2.7226 C   0  0  0  0  0  0  0  0  0  0  0  0
   -4.8796    4.5629    2.6387 H   0  0  0  0  0  0  0  0  0  0  0  0
   -6.1861    3.4241    2.8954 H   0  0  0  0  0  0  0  0  0  0  0  0
   -4.6369    3.1693    3.6708 H   0  0  0  0  0  0  0  0  0  0  0  0
   -3.3731    2.2391    1.5790 N   0  0  0  0  0  0  0  0  0  0  0  0
   -2.7599    1.4751    0.5247 C   0  0  2  0  0  0  0  0  0  0  0  0
   -1.5143    0.8067    1.0915 C   0  0  0  0  0  0  0  0  0  0  0  0
   -0.9247    1.2213    2.0872 O   0  0  0  0  0  0  0  0  0  0  0  0
   -2.4106    2.3553   -0.6653 C   0  0  0  0  0  0  0  0  0  0  0  0
   -2.8254    2.4352    2.4150 H   0  0  0  0  0  0  0  0  0  0  0  0
   -3.4836    0.7082    0.2278 H   0  0  0  0  0  0  0  0  0  0  0  0
   -1.6866    3.1298   -0.3871 H   0  0  0  0  0  0  0  0  0  0  0  0
   -1.9704    1.7677   -1.4777 H   0  0  0  0  0  0  0  0  0  0  0  0
   -3.3030    2.8584   -1.0531 H   0  0  0  0  0  0  0  0  0  0  0  0
   -1.1107   -0.2839    0.3303 N   0  0  0  0  0  0  0  0  0  0  0  0
    0.0490   -1.0750    0.6539 C   0  0  2  0  0  0  0  0  0  0  0  0
   -0.3421   -2.5436    0.5162 C   0  0  0  0  0  0  0  0  0  0  0  0
   -0.7795   -3.0258   -0.5266 O   0  0  0  0  0  0  0  0  0  0  0  0
    0.6075   -0.7680    2.0511 C   0  0  2  0  0  0  0  0  0  0  0  0
   -0.3644   -1.0512    3.0566 O   0  0  0  0  0  0  0  0  0  0  0  0
    1.0192    0.6917    2.1994 C   0  0  0  0  0  0  0  0  0  0  0  0
   -1.6733   -0.5660   -0.4691 H   0  0  0  0  0  0  0  0  0  0  0  0
    0.8033   -0.8462   -0.1088 H   0  0  0  0  0  0  0  0  0  0  0  0
    1.4814   -1.3967    2.2576 H   0  0  0  0  0  0  0  0  0  0  0  0
    0.0659   -0.8848    3.9090 H   0  0  0  0  0  0  0  0  0  0  0  0
    0.1790    1.3664    2.0029 H   0  0  0  0  0  0  0  0  0  0  0  0
    1.8411    0.9439    1.5226 H   0  0  0  0  0  0  0  0  0  0  0  0
    1.3423    0.8910    3.2271 H   0  0  0  0  0  0  0  0  0  0  0  0
   -0.1916   -3.2391    1.7075 N   0  0  0  0  0  0  0  0  0  0  0  0
   -0.5279   -4.6373    1.8389 C   0  0  2  0  0  0  0  0  0  0  0  0
    0.6076   -5.4529    1.2349 C   0  0  0  0  0  0  0  0  0  0  0  0
    1.3923   -4.9984    0.4051 O   0  0  0  0  0  0  0  0  0  0  0  0
   -1.8488   -4.9553    1.1556 C   0  0  0  0  0  0  0  0  0  0  0  0
    0.1691   -2.7455    2.5187 H   0  0  0  0  0  0  0  0  0  0  0  0
   -0.5979   -4.8463    2.9120 H   0  0  0  0  0  0  0  0  0  0  0  0
   -1.7980   -4.7521    0.0796 H   0  0  0  0  0  0  0  0  0  0  0  0
   -2.1164   -6.0097    1.2806 H   0  0  0  0  0  0  0  0  0  0  0  0
   -2.6590   -4.3462    1.5709 H   0  0  0  0  0  0  0  0  0  0  0  0
    0.6152   -6.7607    1.6993 N   0  0  0  0  0  0  0  0  0  0  0  0
    1.5878   -7.7364    1.2656 C   0  0  0  0  0  0  0  0  0  0  0  0
   -0.0616   -7.0457    2.4012 H   0  0  0  0  0  0  0  0  0  0  0  0
    1.1890   -8.2954    0.4062 H   0  0  0  0  0  0  0  0  0  0  0  0
    2.5152   -7.2236    0.9709 H   0  0  0  0  0  0  0  0  0  0  0  0
    1.8002   -8.4335    2.0896 H   0  0  0  0  0  0  0  0  0  0  0  0
  1  3  1  0  0  0  0
  1  7  1  0  0  0  0
  1  2  2  0  0  0  0
 32 33  1  0  0  0  0
 33 41  1  0  0  0  0
 33 34  2  0  0  0  0
  8  9  1  0  0  0  0
  9 17  1  0  0  0  0
  9 10  2  0  0  0  0
 18 19  1  0  0  0  0
 19 31  1  0  0  0  0
 19 20  2  0  0  0  0
 32 35  1  0  0  0  0
  8 11  1  0  0  0  0
 21 23  1  0  0  0  0
 41 42  1  0  0  0  0
 31 32  1  0  0  0  0
  7  8  1  0  0  0  0
 18 21  1  0  0  0  0
 17 18  1  0  0  0  0
 21 22  1  0  0  0  0
  3  4  1  0  0  0  0
  3  5  1  0  0  0  0
  3  6  1  0  0  0  0
 35 38  1  0  0  0  0
 35 39  1  0  0  0  0
 35 40  1  0  0  0  0
 11 14  1  0  0  0  0
 11 15  1  0  0  0  0
 11 16  1  0  0  0  0
 23 28  1  0  0  0  0
 23 29  1  0  0  0  0
 23 30  1  0  0  0  0
 42 44  1  0  0  0  0
 42 45  1  0  0  0  0
 42 46  1  0  0  0  0
 32 37  1  0  0  0  0
  8 13  1  0  0  0  0
 18 25  1  0  0  0  0
 21 26  1  0  0  0  0
 41 43  1  0  0  0  0
  7 12  1  0  0  0  0
 31 36  1  0  0  0  0
 17 24  1  0  0  0  0
 22 27  1  0  0  0  0
M  END
$$$$

  -OEChem-05262214473D

 46 45  0     1  0  0  0  0  0999 V2000
   -4.6700    2.7214    1.5150 C   0  0  0  0  0  0  0  0  0  0  0  0
   -5.4532    2.5715    0.5845 O   0  0  0  0  0  0  0  0  0  0  0  0
   -5.0996    3.4865    2.7226 C   0  0  0  0  0  0  0  0  0  0  0  0
   -4.8796    4.5629    2.6387 H   0  0  0  0  0  0  0  0  0  0  0  0
   -6.1861    3.4241    2.8954 H   0  0  0  0  0  0  0  0  0  0  0  0
   -4.6369    3.1693    3.6708 H   0  0  0  0  0  0  0  0  0  0  0  0
   -3.3731    2.2391    1.5790 N   0  0  0  0  0  0  0  0  0  0  0  0
   -2.7599    1.4751    0.5247 C   0  0  2  0  0  0  0  0  0  0  0  0
   -1.5143    0.8067    1.0915 C   0  0  0  0  0  0  0  0  0  0  0  0
   -0.9247    1.2213    2.0872 O   0  0  0  0  0  0  0  0  0  0  0  0
   -2.4106    2.3553   -0.6653 C   0  0  0  0  0  0  0  0  0  0  0  0
   -2.8254    2.4352    2.4150 H   0  0  0  0  0  0  0  0  0  0  0  0
   -3.4836    0.7082    0.2278 H   0  0  0  0  0  0  0  0  0  0  0  0
   -1.6866    3.1298   -0.3871 H   0  0  0  0  0  0  0  0  0  0  0  0
   -1.9704    1.7677   -1.4777 H   0  0  0  0  0  0  0  0  0  0  0  0
   -3.3030    2.8584   -1.0531 H   0  0  0  0  0  0  0  0  0  0  0  0
   -1.1107   -0.2839    0.3303 N   0  0  0  0  0  0  0  0  0  0  0  0
    0.0490   -1.0750    0.6539 C   0  0  2  0  0  0  0  0  0  0  0  0
   -0.3421   -2.5436    0.5162 C   0  0  0  0  0  0  0  0  0  0  0  0
   -0.5219   -3.0903   -0.5701 O   0  0  0  0  0  0  0  0  0  0  0  0
    0.6075   -0.7680    2.0511 C   0  0  2  0  0  0  0  0  0  0  0  0
   -0.3644   -1.0512    3.0566 O   0  0  0  0  0  0  0  0  0  0  0  0
    1.0192    0.6917    2.1994 C   0  0  0  0  0  0  0  0  0  0  0  0
   -1.6733   -0.5660   -0.4691 H   0  0  0  0  0  0  0  0  0  0  0  0
    0.8033   -0.8462   -0.1088 H   0  0  0  0  0  0  0  0  0  0  0  0
    1.4814   -1.3967    2.2576 H   0  0  0  0  0  0  0  0  0  0  0  0
    0.0659   -0.8848    3.9090 H   0  0  0  0  0  0  0  0  0  0  0  0
    0.1790    1.3664    2.0029 H   0  0  0  0  0  0  0  0  0  0  0  0
    1.8411    0.9439    1.5226 H   0  0  0  0  0  0  0  0  0  0  0  0
    1.3423    0.8910    3.2271 H   0  0  0  0  0  0  0  0  0  0  0  0
   -0.5143   -3.1570    1.7489 N   0  0  0  0  0  0  0  0  0  0  0  0
   -0.9170   -4.5376    1.8804 C   0  0  2  0  0  0  0  0  0  0  0  0
    0.3065   -5.4100    1.6323 C   0  0  0  0  0  0  0  0  0  0  0  0
    1.2867   -5.0258    0.9978 O   0  0  0  0  0  0  0  0  0  0  0  0
   -2.0362   -4.8824    0.9103 C   0  0  0  0  0  0  0  0  0  0  0  0
   -0.3508   -2.6139    2.5916 H   0  0  0  0  0  0  0  0  0  0  0  0
   -1.2578   -4.6706    2.9130 H   0  0  0  0  0  0  0  0  0  0  0  0
   -1.7134   -4.7550   -0.1294 H   0  0  0  0  0  0  0  0  0  0  0  0
   -2.3598   -5.9215    1.0310 H   0  0  0  0  0  0  0  0  0  0  0  0
   -2.9044   -4.2340    1.0706 H   0  0  0  0  0  0  0  0  0  0  0  0
    0.1570   -6.6825    2.1658 N   0  0  0  0  0  0  0  0  0  0  0  0
    1.1753   -7.7003    2.0516 C   0  0  0  0  0  0  0  0  0  0  0  0
   -0.6815   -6.9080    2.6929 H   0  0  0  0  0  0  0  0  0  0  0  0
    0.9849   -8.3115    1.1570 H   0  0  0  0  0  0  0  0  0  0  0  0
    2.1626   -7.2230    1.9661 H   0  0  0  0  0  0  0  0  0  0  0  0
    1.1542   -8.3417    2.9450 H   0  0  0  0  0  0  0  0  0  0  0  0
  1  3  1  0  0  0  0
  1  7  1  0  0  0  0
  1  2  2  0  0  0  0
 32 33  1  0  0  0  0
 33 41  1  0  0  0  0
 33 34  2  0  0  0  0
  8  9  1  0  0  0  0
  9 17  1  0  0  0  0
  9 10  2  0  0  0  0
 18 19  1  0  0  0  0
 19 31  1  0  0  0  0
 19 20  2  0  0  0  0
 32 35  1  0  0  0  0
  8 11  1  0  0  0  0
 21 23  1  0  0  0  0
 41 42  1  0  0  0  0
 31 32  1  0  0  0  0
  7  8  1  0  0  0  0
 18 21  1  0  0  0  0
 17 18  1  0  0  0  0
 21 22  1  0  0  0  0
  3  4  1  0  0  0  0
  3  5  1  0  0  0  0
  3  6  1  0  0  0  0
 35 38  1  0  0  0  0
 35 39  1  0  0  0  0
 35 40  1  0  0  0  0
 11 14  1  0  0  0  0
 11 15  1  0  0  0  0
 11 16  1  0  0  0  0
 23 28  1  0  0  0  0
 23 29  1  0  0  0  0
 23 30  1  0  0  0  0
 42 44  1  0  0  0  0
 42 45  1  0  0  0  0
 42 46  1  0  0  0  0
 32 37  1  0  0  0  0
  8 13  1  0  0  0  0
 18 25  1  0  0  0  0
 21 26  1  0  0  0  0
 41 43  1  0  0  0  0
  7 12  1  0  0  0  0
 31 36  1  0  0  0  0
 17 24  1  0  0  0  0
 22 27  1  0  0  0  0
M  END
$$$$

  -OEChem-05262214473D

 46 45  0     1  0  0  0  0  0999 V2000
   -4.6700    2.7214    1.5150 C   0  0  0  0  0  0  0  0  0  0  0  0
   -5.4532    2.5715    0.5845 O   0  0  0  0  0  0  0  0  0  0  0  0
   -5.0996    3.4865    2.7226 C   0  0  0  0  0  0  0  0  0  0  0  0
   -4.8796    4.5629    2.6387 H   0  0  0  0  0  0  0  0  0  0  0  0
   -6.1861    3.4241    2.8954 H   0  0  0  0  0  0  0  0  0  0  0  0
   -4.6369    3.1693    3.6708 H   0  0  0  0  0  0  0  0  0  0  0  0
   -3.3731    2.2391    1.5790 N   0  0  0  0  0  0  0  0  0  0  0  0
   -2.7599    1.4751    0.5247 C   0  0  2  0  0  0  0  0  0  0  0  0
   -1.5143    0.8067    1.0915 C   0  0  0  0  0  0  0  0  0  0  0  0
   -0.9247    1.2213    2.0872 O   0  0  0  0  0  0  0  0  0  0  0  0
   -2.4106    2.3553   -0.6653 C   0  0  0  0  0  0  0  0  0  0  0  0
   -2.8254    2.4352    2.4150 H   0  0  0  0  0  0  0  0  0  0  0  0
   -3.4836    0.7082    0.2278 H   0  0  0  0  0  0  0  0  0  0  0  0
   -1.6866    3.1298   -0.3871 H   0  0  0  0  0  0  0  0  0  0  0  0
   -1.9704    1.7677   -1.4777 H   0  0  0  0  0  0  0  0  0  0  0  0
   -3.3030    2.8584   -1.0531 H   0  0  0  0  0  0  0  0  0  0  0  0
   -1.1107   -0.2839    0.3303 N   0  0  0  0  0  0  0  0  0  0  0  0
    0.0490   -1.0750    0.6539 C   0  0  2  0  0  0  0  0  0  0  0  0
   -0.3421   -2.5436    0.5162 C   0  0  0  0  0  0  0  0  0  0  0  0
   -0.2639   -3.1615   -0.5437 O   0  0  0  0  0  0  0  0  0  0  0  0
    0.6075   -0.7680    2.0511 C   0  0  2  0  0  0  0  0  0  0  0  0
   -0.3644   -1.0512    3.0566 O   0  0  0  0  0  0  0  0  0  0  0  0
    1.0192    0.6917    2.1994 C   0  0  0  0  0  0  0  0  0  0  0  0
   -1.6733   -0.5660   -0.4691 H   0  0  0  0  0  0  0  0  0  0  0  0
    0.8033   -0.8462   -0.1088 H   0  0  0  0  0  0  0  0  0  0  0  0
    1.4814   -1.3967    2.2576 H   0  0  0  0  0  0  0  0  0  0  0  0
    0.0659   -0.8848    3.9090 H   0  0  0  0  0  0  0  0  0  0  0  0
    0.1790    1.3664    2.0029 H   0  0  0  0  0  0  0  0  0  0  0  0
    1.8411    0.9439    1.5226 H   0  0  0  0  0  0  0  0  0  0  0  0
    1.3423    0.8910    3.2271 H   0  0  0  0  0  0  0  0  0  0  0  0
   -0.8344   -3.0675    1.7031 N   0  0  0  0  0  0  0  0  0  0  0  0
   -1.3007   -4.4294    1.8171 C   0  0  2  0  0  0  0  0  0  0  0  0
   -0.0824   -5.3351    1.9383 C   0  0  0  0  0  0  0  0  0  0  0  0
    1.0364   -5.0106    1.5458 O   0  0  0  0  0  0  0  0  0  0  0  0
   -2.1544   -4.8238    0.6219 C   0  0  0  0  0  0  0  0  0  0  0  0
   -0.8681   -2.4697    2.5237 H   0  0  0  0  0  0  0  0  0  0  0  0
   -1.8913   -4.4855    2.7380 H   0  0  0  0  0  0  0  0  0  0  0  0
   -1.5797   -4.7737   -0.3101 H   0  0  0  0  0  0  0  0  0  0  0  0
   -2.5307   -5.8471    0.7235 H   0  0  0  0  0  0  0  0  0  0  0  0
   -3.0141   -4.1530    0.5187 H   0  0  0  0  0  0  0  0  0  0  0  0
   -0.4000   -6.5652    2.4970 N   0  0  0  0  0  0  0  0  0  0  0  0
    0.5819   -7.6036    2.7056 C   0  0  0  0  0  0  0  0  0  0  0  0
   -1.3498   -6.7411    2.8110 H   0  0  0  0  0  0  0  0  0  0  0  0
    0.6003   -8.2724    1.8325 H   0  0  0  0  0  0  0  0  0  0  0  0
    1.5742   -7.1482    2.8395 H   0  0  0  0  0  0  0  0  0  0  0  0
    0.3193   -8.1812    3.6042 H   0  0  0  0  0  0  0  0  0  0  0  0
  1  3  1  0  0  0  0
  1  7  1  0  0  0  0
  1  2  2  0  0  0  0
 32 33  1  0  0  0  0
 33 41  1  0  0  0  0
 33 34  2  0  0  0  0
  8  9  1  0  0  0  0
  9 17  1  0  0  0  0
  9 10  2  0  0  0  0
 18 19  1  0  0  0  0
 19 31  1  0  0  0  0
 19 20  2  0  0  0  0
 32 35  1  0  0  0  0
  8 11  1  0  0  0  0
 21 23  1  0  0  0  0
 41 42  1  0  0  0  0
 31 32  1  0  0  0  0
  7  8  1  0  0  0  0
 18 21  1  0  0  0  0
 17 18  1  0  0  0  0
 21 22  1  0  0  0  0
  3  4  1  0  0  0  0
  3  5  1  0  0  0  0
  3  6  1  0  0  0  0
 35 38  1  0  0  0  0
 35 39  1  0  0  0  0
 35 40  1  0  0  0  0
 11 14  1  0  0  0  0
 11 15  1  0  0  0  0
 11 16  1  0  0  0  0
 23 28  1  0  0  0  0
 23 29  1  0  0  0  0
 23 30  1  0  0  0  0
 42 44  1  0  0  0  0
 42 45  1  0  0  0  0
 42 46  1  0  0  0  0
 32 37  1  0  0  0  0
  8 13  1  0  0  0  0
 18 25  1  0  0  0  0
 21 26  1  0  0  0  0
 41 43  1  0  0  0  0
  7 12  1  0  0  0  0
 31 36  1  0  0  0  0
 17 24  1  0  0  0  0
 22 27  1  0  0  0  0
M  END
$$$$

  -OEChem-05262214473D

 46 45  0     1  0  0  0  0  0999 V2000
   -4.6700    2.7214    1.5150 C   0  0  0  0  0  0  0  0  0  0  0  0
   -5.4532    2.5715    0.5845 O   0  0  0  0  0  0  0  0  0  0  0  0
   -5.0996    3.4865    2.7226 C   0  0  0  0  0  0  0  0  0  0  0  0
   -4.8796    4.5629    2.6387 H   0  0  0  0  0  0  0  0  0  0  0  0
   -6.1861    3.4241    2.8954 H   0  0  0  0  0  0  0  0  0  0  0  0
   -4.6369    3.1693    3.6708 H   0  0  0  0  0  0  0  0  0  0  0  0
   -3.3731    2.2391    1.5790 N   0  0  0  0  0  0  0  0  0  0  0  0
   -2.7599    1.4751    0.5247 C   0  0  2  0  0  0  0  0  0  0  0  0
   -1.5143    0.8067    1.0915 C   0  0  0  0  0  0  0  0  0  0  0  0
   -0.9247    1.2213    2.0872 O   0  0  0  0  0  0  0  0  0  0  0  0
   -2.4106    2.3553   -0.6653 C   0  0  0  0  0  0  0  0  0  0  0  0
   -2.8254    2.4352    2.4150 H   0  0  0  0  0  0  0  0  0  0  0  0
   -3.4836    0.7082    0.2278 H   0  0  0  0  0  0  0  0  0  0  0  0
   -1.6866    3.1298   -0.3871 H   0  0  0  0  0  0  0  0  0  0  0  0
   -1.9704    1.7677   -1.4777 H   0  0  0  0  0  0  0  0  0  0  0  0
   -3.3030    2.8584   -1.0531 H   0  0  0  0  0  0  0  0  0  0  0  0
   -1.1107   -0.2839    0.3303 N   0  0  0  0  0  0  0  0  0  0  0  0
    0.0490   -1.0750    0.6539 C   0  0  2  0  0  0  0  0  0  0  0  0
   -0.3421   -2.5436    0.5162 C   0  0  0  0  0  0  0  0  0  0  0  0
   -0.0228   -3.2345   -0.4492 O   0  0  0  0  0  0  0  0  0  0  0  0
    0.6075   -0.7680    2.0511 C   0  0  2  0  0  0  0  0  0  0  0  0
   -0.3644   -1.0512    3.0566 O   0  0  0  0  0  0  0  0  0  0  0  0
    1.0192    0.6917    2.1994 C   0  0  0  0  0  0  0  0  0  0  0  0
   -1.6733   -0.5660   -0.4691 H   0  0  0  0  0  0  0  0  0  0  0  0
    0.8033   -0.8462   -0.1088 H   0  0  0  0  0  0  0  0  0  0  0  0
    1.4814   -1.3967    2.2576 H   0  0  0  0  0  0  0  0  0  0  0  0
    0.0659   -0.8848    3.9090 H   0  0  0  0  0  0  0  0  0  0  0  0
    0.1790    1.3664    2.0029 H   0  0  0  0  0  0  0  0  0  0  0  0
    1.8411    0.9439    1.5226 H   0  0  0  0  0  0  0  0  0  0  0  0
    1.3423    0.8910    3.2271 H   0  0  0  0  0  0  0  0  0  0  0  0
   -1.1301   -2.9766    1.5732 N   0  0  0  0  0  0  0  0  0  0  0  0
   -1.6531   -4.3202    1.6531 C   0  0  2  0  0  0  0  0  0  0  0  0
   -0.5324   -5.2335    2.1320 C   0  0  0  0  0  0  0  0  0  0  0  0
    0.6585   -4.9537    2.0118 O   0  0  0  0  0  0  0  0  0  0  0  0
   -2.1954   -4.7837    0.3100 C   0  0  0  0  0  0  0  0  0  0  0  0
   -1.3474   -2.3230    2.3197 H   0  0  0  0  0  0  0  0  0  0  0  0
   -2.4553   -4.3035    2.3989 H   0  0  0  0  0  0  0  0  0  0  0  0
   -1.4060   -4.8068   -0.4501 H   0  0  0  0  0  0  0  0  0  0  0  0
   -2.6175   -5.7917    0.3790 H   0  0  0  0  0  0  0  0  0  0  0  0
   -2.9808   -4.1088   -0.0471 H   0  0  0  0  0  0  0  0  0  0  0  0
   -1.0177   -6.4170    2.6705 N   0  0  0  0  0  0  0  0  0  0  0  0
   -0.1519   -7.4530    3.1832 C   0  0  0  0  0  0  0  0  0  0  0  0
   -2.0209   -6.5564    2.7477 H   0  0  0  0  0  0  0  0  0  0  0  0
    0.0615   -8.1809    2.3865 H   0  0  0  0  0  0  0  0  0  0  0  0
    0.7901   -7.0043    3.5316 H   0  0  0  0  0  0  0  0  0  0  0  0
   -0.6476   -7.9629    4.0224 H   0  0  0  0  0  0  0  0  0  0  0  0
  1  3  1  0  0  0  0
  1  7  1  0  0  0  0
  1  2  2  0  0  0  0
 32 33  1  0  0  0  0
 33 41  1  0  0  0  0
 33 34  2  0  0  0  0
  8  9  1  0  0  0  0
  9 17  1  0  0  0  0
  9 10  2  0  0  0  0
 18 19  1  0  0  0  0
 19 31  1  0  0  0  0
 19 20  2  0  0  0  0
 32 35  1  0  0  0  0
  8 11  1  0  0  0  0
 21 23  1  0  0  0  0
 41 42  1  0  0  0  0
 31 32  1  0  0  0  0
  7  8  1  0  0  0  0
 18 21  1  0  0  0  0
 17 18  1  0  0  0  0
 21 22  1  0  0  0  0
  3  4  1  0  0  0  0
  3  5  1  0  0  0  0
  3  6  1  0  0  0  0
 35 38  1  0  0  0  0
 35 39  1  0  0  0  0
 35 40  1  0  0  0  0
 11 14  1  0  0  0  0
 11 15  1  0  0  0  0
 11 16  1  0  0  0  0
 23 28  1  0  0  0  0
 23 29  1  0  0  0  0
 23 30  1  0  0  0  0
 42 44  1  0  0  0  0
 42 45  1  0  0  0  0
 42 46  1  0  0  0  0
 32 37  1  0  0  0  0
  8 13  1  0  0  0  0
 18 25  1  0  0  0  0
 21 26  1  0  0  0  0
 41 43  1  0  0  0  0
  7 12  1  0  0  0  0
 31 36  1  0  0  0  0
 17 24  1  0  0  0  0
 22 27  1  0  0  0  0
M  END
$$$$

  -OEChem-05262214473D

 46 45  0     1  0  0  0  0  0999 V2000
   -4.6700    2.7214    1.5150 C   0  0  0  0  0  0  0  0  0  0  0  0
   -5.4532    2.5715    0.5845 O   0  0  0  0  0  0  0  0  0  0  0  0
   -5.0996    3.4865    2.7226 C   0  0  0  0  0  0  0  0  0  0  0  0
   -4.8796    4.5629    2.6387 H   0  0  0  0  0  0  0  0  0  0  0  0
   -6.1861    3.4241    2.8954 H   0  0  0  0  0  0  0  0  0  0  0  0
   -4.6369    3.1693    3.6708 H   0  0  0  0  0  0  0  0  0  0  0  0
   -3.3731    2.2391    1.5790 N   0  0  0  0  0  0  0  0  0  0  0  0
   -2.7599    1.4751    0.5247 C   0  0  2  0  0  0  0  0  0  0  0  0
   -1.5143    0.8067    1.0915 C   0  0  0  0  0  0  0  0  0  0  0  0
   -0.9247    1.2213    2.0872 O   0  0  0  0  0  0  0  0  0  0  0  0
   -2.4106    2.3553   -0.6653 C   0  0  0  0  0  0  0  0  0  0  0  0
   -2.8254    2.4352    2.4150 H   0  0  0  0  0  0  0  0  0  0  0  0
   -3.4836    0.7082    0.2278 H   0  0  0  0  0  0  0  0  0  0  0  0
   -1.6866    3.1298   -0.3871 H   0  0  0  0  0  0  0  0  0  0  0  0
   -1.9704    1.7677   -1.4777 H   0  0  0  0  0  0  0  0  0  0  0  0
   -3.3030    2.8584   -1.0531 H   0  0  0  0  0  0  0  0  0  0  0  0
   -1.1107   -0.2839    0.3303 N   0  0  0  0  0  0  0  0  0  0  0  0
    0.0490   -1.0750    0.6539 C   0  0  2  0  0  0  0  0  0  0  0  0
   -0.3421   -2.5436    0.5162 C   0  0  0  0  0  0  0  0  0  0  0  0
    0.1848   -3.3044   -0.2930 O   0  0  0  0  0  0  0  0  0  0  0  0
    0.6075   -0.7680    2.0511 C   0  0  2  0  0  0  0  0  0  0  0  0
   -0.3644   -1.0512    3.0566 O   0  0  0  0  0  0  0  0  0  0  0  0
    1.0192    0.6917    2.1994 C   0  0  0  0  0  0  0  0  0  0  0  0
   -1.6733   -0.5660   -0.4691 H   0  0  0  0  0  0  0  0  0  0  0  0
    0.8033   -0.8462   -0.1088 H   0  0  0  0  0  0  0  0  0  0  0  0
    1.4814   -1.3967    2.2576 H   0  0  0  0  0  0  0  0  0  0  0  0
    0.0659   -0.8848    3.9090 H   0  0  0  0  0  0  0  0  0  0  0  0
    0.1790    1.3664    2.0029 H   0  0  0  0  0  0  0  0  0  0  0  0
    1.8411    0.9439    1.5226 H   0  0  0  0  0  0  0  0  0  0  0  0
    1.3423    0.8910    3.2271 H   0  0  0  0  0  0  0  0  0  0  0  0
   -1.3812   -2.8905    1.3680 N   0  0  0  0  0  0  0  0  0  0  0  0
   -1.9501   -4.2174    1.3996 C   0  0  2  0  0  0  0  0  0  0  0  0
   -1.0130   -5.1119    2.2003 C   0  0  0  0  0  0  0  0  0  0  0  0
    0.1788   -4.8589    2.3640 O   0  0  0  0  0  0  0  0  0  0  0  0
   -2.1564   -4.7646   -0.0042 C   0  0  0  0  0  0  0  0  0  0  0  0
   -1.7562   -2.1835    1.9936 H   0  0  0  0  0  0  0  0  0  0  0  0
   -2.9114   -4.1370    1.9187 H   0  0  0  0  0  0  0  0  0  0  0  0
   -1.2041   -4.8522   -0.5399 H   0  0  0  0  0  0  0  0  0  0  0  0
   -2.6142   -5.7590    0.0209 H   0  0  0  0  0  0  0  0  0  0  0  0
   -2.8067   -4.1044   -0.5882 H   0  0  0  0  0  0  0  0  0  0  0  0
   -1.6542   -6.2479    2.6743 N   0  0  0  0  0  0  0  0  0  0  0  0
   -0.9761   -7.2587    3.4517 C   0  0  0  0  0  0  0  0  0  0  0  0
   -2.6490   -6.3666    2.5071 H   0  0  0  0  0  0  0  0  0  0  0  0
   -0.5948   -8.0431    2.7814 H   0  0  0  0  0  0  0  0  0  0  0  0
   -0.1364   -6.8011    3.9953 H   0  0  0  0  0  0  0  0  0  0  0  0
   -1.6806   -7.7018    4.1710 H   0  0  0  0  0  0  0  0  0  0  0  0
  1  3  1  0  0  0  0
  1  7  1  0  0  0  0
  1  2  2  0  0  0  0
 32 33  1  0  0  0  0
 33 41  1  0  0  0  0
 33 34  2  0  0  0  0
  8  9  1  0  0  0  0
  9 17  1  0  0  0  0
  9 10  2  0  0  0  0
 18 19  1  0  0  0  0
 19 31  1  0  0  0  0
 19 20  2  0  0  0  0
 32 35  1  0  0  0  0
  8 11  1  0  0  0  0
 21 23  1  0  0  0  0
 41 42  1  0  0  0  0
 31 32  1  0  0  0  0
  7  8  1  0  0  0  0
 18 21  1  0  0  0  0
 17 18  1  0  0  0  0
 21 22  1  0  0  0  0
  3  4  1  0  0  0  0
  3  5  1  0  0  0  0
  3  6  1  0  0  0  0
 35 38  1  0  0  0  0
 35 39  1  0  0  0  0
 35 40  1  0  0  0  0
 11 14  1  0  0  0  0
 11 15  1  0  0  0  0
 11 16  1  0  0  0  0
 23 28  1  0  0  0  0
 23 29  1  0  0  0  0
 23 30  1  0  0  0  0
 42 44  1  0  0  0  0
 42 45  1  0  0  0  0
 42 46  1  0  0  0  0
 32 37  1  0  0  0  0
  8 13  1  0  0  0  0
 18 25  1  0  0  0  0
 21 26  1  0  0  0  0
 41 43  1  0  0  0  0
  7 12  1  0  0  0  0
 31 36  1  0  0  0  0
 17 24  1  0  0  0  0
 22 27  1  0  0  0  0
M  END
$$$$

  -OEChem-05262214473D

 46 45  0     1  0  0  0  0  0999 V2000
   -4.6700    2.7214    1.5150 C   0  0  0  0  0  0  0  0  0  0  0  0
   -5.4532    2.5715    0.5845 O   0  0  0  0  0  0  0  0  0  0  0  0
   -5.0996    3.4865    2.7226 C   0  0  0  0  0  0  0  0  0  0  0  0
   -4.8796    4.5629    2.6387 H   0  0  0  0  0  0  0  0  0  0  0  0
   -6.1861    3.4241    2.8954 H   0  0  0  0  0  0  0  0  0  0  0  0
   -4.6369    3.1693    3.6708 H   0  0  0  0  0  0  0  0  0  0  0  0
   -3.3731    2.2391    1.5790 N   0  0  0  0  0  0  0  0  0  0  0  0
   -2.7599    1.4751    0.5247 C   0  0  2  0  0  0  0  0  0  0  0  0
   -1.5143    0.8067    1.0915 C   0  0  0  0  0  0  0  0  0  0  0  0
   -0.9247    1.2213    2.0872 O   0  0  0  0  0  0  0  0  0  0  0  0
   -2.4106    2.3553   -0.6653 C   0  0  0  0  0  0  0  0  0  0  0  0
   -2.8254    2.4352    2.4150 H   0  0  0  0  0  0  0  0  0  0  0  0
   -3.4836    0.7082    0.2278 H   0  0  0  0  0  0  0  0  0  0  0  0
   -1.6866    3.1298   -0.3871 H   0  0  0  0  0  0  0  0  0  0  0  0
   -1.9704    1.7677   -1.4777 H   0  0  0  0  0  0  0  0  0  0  0  0
   -3.3030    2.8584   -1.0531 H   0  0  0  0  0  0  0  0  0  0  0  0
   -1.1107   -0.2839    0.3303 N   0  0  0  0  0  0  0  0  0  0  0  0
    0.0490   -1.0750    0.6539 C   0  0  2  0  0  0  0  0  0  0  0  0
   -0.3421   -2.5436    0.5162 C   0  0  0  0  0  0  0  0  0  0  0  0
    0.3447   -3.3665   -0.0858 O   0  0  0  0  0  0  0  0  0  0  0  0
    0.6075   -0.7680    2.0511 C   0  0  2  0  0  0  0  0  0  0  0  0
   -0.3644   -1.0512    3.0566 O   0  0  0  0  0  0  0  0  0  0  0  0
    1.0192    0.6917    2.1994 C   0  0  0  0  0  0  0  0  0  0  0  0
   -1.6733   -0.5660   -0.4691 H   0  0  0  0  0  0  0  0  0  0  0  0
    0.8033   -0.8462   -0.1088 H   0  0  0  0  0  0  0  0  0  0  0  0
    1.4814   -1.3967    2.2576 H   0  0  0  0  0  0  0  0  0  0  0  0
    0.0659   -0.8848    3.9090 H   0  0  0  0  0  0  0  0  0  0  0  0
    0.1790    1.3664    2.0029 H   0  0  0  0  0  0  0  0  0  0  0  0
    1.8411    0.9439    1.5226 H   0  0  0  0  0  0  0  0  0  0  0  0
    1.3423    0.8910    3.2271 H   0  0  0  0  0  0  0  0  0  0  0  0
   -1.5706   -2.8150    1.1015 N   0  0  0  0  0  0  0  0  0  0  0  0
   -2.1714   -4.1279    1.0740 C   0  0  2  0  0  0  0  0  0  0  0  0
   -1.4914   -4.9787    2.1385 C   0  0  0  0  0  0  0  0  0  0  0  0
   -0.3702   -4.7329    2.5784 O   0  0  0  0  0  0  0  0  0  0  0  0
   -2.0400   -4.7679   -0.2992 C   0  0  0  0  0  0  0  0  0  0  0  0
   -2.0666   -2.0609    1.5675 H   0  0  0  0  0  0  0  0  0  0  0  0
   -3.2285   -3.9974    1.3303 H   0  0  0  0  0  0  0  0  0  0  0  0
   -0.9878   -4.9067   -0.5733 H   0  0  0  0  0  0  0  0  0  0  0  0
   -2.5210   -5.7512   -0.3263 H   0  0  0  0  0  0  0  0  0  0  0  0
   -2.5036   -4.1401   -1.0678 H   0  0  0  0  0  0  0  0  0  0  0  0
   -2.2659   -6.0694    2.5083 N   0  0  0  0  0  0  0  0  0  0  0  0
   -1.8346   -7.0340    3.4929 C   0  0  0  0  0  0  0  0  0  0  0  0
   -3.1913   -6.1845    2.1056 H   0  0  0  0  0  0  0  0  0  0  0  0
   -1.3239   -7.8686    2.9902 H   0  0  0  0  0  0  0  0  0  0  0  0
   -1.1420   -6.5524    4.1989 H   0  0  0  0  0  0  0  0  0  0  0  0
   -2.7093   -7.4155    4.0399 H   0  0  0  0  0  0  0  0  0  0  0  0
  1  3  1  0  0  0  0
  1  7  1  0  0  0  0
  1  2  2  0  0  0  0
 32 33  1  0  0  0  0
 33 41  1  0  0  0  0
 33 34  2  0  0  0  0
  8  9  1  0  0  0  0
  9 17  1  0  0  0  0
  9 10  2  0  0  0  0
 18 19  1  0  0  0  0
 19 31  1  0  0  0  0
 19 20  2  0  0  0  0
 32 35  1  0  0  0  0
  8 11  1  0  0  0  0
 21 23  1  0  0  0  0
 41 42  1  0  0  0  0
 31 32  1  0  0  0  0
  7  8  1  0  0  0  0
 18 21  1  0  0  0  0
 17 18  1  0  0  0  0
 21 22  1  0  0  0  0
  3  4  1  0  0  0  0
  3  5  1  0  0  0  0
  3  6  1  0  0  0  0
 35 38  1  0  0  0  0
 35 39  1  0  0  0  0
 35 40  1  0  0  0  0
 11 14  1  0  0  0  0
 11 15  1  0  0  0  0
 11 16  1  0  0  0  0
 23 28  1  0  0  0  0
 23 29  1  0  0  0  0
 23 30  1  0  0  0  0
 42 44  1  0  0  0  0
 42 45  1  0  0  0  0
 42 46  1  0  0  0  0
 32 37  1  0  0  0  0
  8 13  1  0  0  0  0
 18 25  1  0  0  0  0
 21 26  1  0  0  0  0
 41 43  1  0  0  0  0
  7 12  1  0  0  0  0
 31 36  1  0  0  0  0
 17 24  1  0  0  0  0
 22 27  1  0  0  0  0
M  END
$$$$

  -OEChem-05262214473D

 46 45  0     1  0  0  0  0  0999 V2000
   -4.6700    2.7214    1.5150 C   0  0  0  0  0  0  0  0  0  0  0  0
   -5.4532    2.5715    0.5845 O   0  0  0  0  0  0  0  0  0  0  0  0
   -5.0996    3.4865    2.7226 C   0  0  0  0  0  0  0  0  0  0  0  0
   -4.8796    4.5629    2.6387 H   0  0  0  0  0  0  0  0  0  0  0  0
   -6.1861    3.4241    2.8954 H   0  0  0  0  0  0  0  0  0  0  0  0
   -4.6369    3.1693    3.6708 H   0  0  0  0  0  0  0  0  0  0  0  0
   -3.3731    2.2391    1.5790 N   0  0  0  0  0  0  0  0  0  0  0  0
   -2.7599    1.4751    0.5247 C   0  0  2  0  0  0  0  0  0  0  0  0
   -1.5143    0.8067    1.0915 C   0  0  0  0  0  0  0  0  0  0  0  0
   -0.9247    1.2213    2.0872 O   0  0  0  0  0  0  0  0  0  0  0  0
   -2.4106    2.3553   -0.6653 C   0  0  0  0  0  0  0  0  0  0  0  0
   -2.8254    2.4352    2.4150 H   0  0  0  0  0  0  0  0  0  0  0  0
   -3.4836    0.7082    0.2278 H   0  0  0  0  0  0  0  0  0  0  0  0
   -1.6866    3.1298   -0.3871 H   0  0  0  0  0  0  0  0  0  0  0  0
   -1.9704    1.7677   -1.4777 H   0  0  0  0  0  0  0  0  0  0  0  0
   -3.3030    2.8584   -1.0531 H   0  0  0  0  0  0  0  0  0  0  0  0
   -1.1107   -0.2839    0.3303 N   0  0  0  0  0  0  0  0  0  0  0  0
    0.0490   -1.0750    0.6539 C   0  0  2  0  0  0  0  0  0  0  0  0
   -0.3421   -2.5436    0.5162 C   0  0  0  0  0  0  0  0  0  0  0  0
    0.4462   -3.4164    0.1583 O   0  0  0  0  0  0  0  0  0  0  0  0
    0.6075   -0.7680    2.0511 C   0  0  2  0  0  0  0  0  0  0  0  0
   -0.3644   -1.0512    3.0566 O   0  0  0  0  0  0  0  0  0  0  0  0
    1.0192    0.6917    2.1994 C   0  0  0  0  0  0  0  0  0  0  0  0
   -1.6733   -0.5660   -0.4691 H   0  0  0  0  0  0  0  0  0  0  0  0
    0.8033   -0.8462   -0.1088 H   0  0  0  0  0  0  0  0  0  0  0  0
    1.4814   -1.3967    2.2576 H   0  0  0  0  0  0  0  0  0  0  0  0
    0.0659   -0.8848    3.9090 H   0  0  0  0  0  0  0  0  0  0  0  0
    0.1790    1.3664    2.0029 H   0  0  0  0  0  0  0  0  0  0  0  0
    1.8411    0.9439    1.5226 H   0  0  0  0  0  0  0  0  0  0  0  0
    1.3423    0.8910    3.2271 H   0  0  0  0  0  0  0  0  0  0  0  0
   -1.6855   -2.7554    0.7920 N   0  0  0  0  0  0  0  0  0  0  0  0
   -2.3021   -4.0579    0.6985 C   0  0  2  0  0  0  0  0  0  0  0  0
   -1.9350   -4.8430    1.9508 C   0  0  0  0  0  0  0  0  0  0  0  0
   -0.9509   -4.5840    2.6404 O   0  0  0  0  0  0  0  0  0  0  0  0
   -1.8541   -4.7934   -0.5549 C   0  0  0  0  0  0  0  0  0  0  0  0
   -2.2574   -1.9634    1.0705 H   0  0  0  0  0  0  0  0  0  0  0  0
   -3.3849   -3.8941    0.6737 H   0  0  0  0  0  0  0  0  0  0  0  0
   -0.7718   -4.9665   -0.5480 H   0  0  0  0  0  0  0  0  0  0  0  0
   -2.3443   -5.7690   -0.6390 H   0  0  0  0  0  0  0  0  0  0  0  0
   -2.0922   -4.2135   -1.4532 H   0  0  0  0  0  0  0  0  0  0  0  0
   -2.8113   -5.8937    2.1837 N   0  0  0  0  0  0  0  0  0  0  0  0
   -2.6688   -6.7941    3.3039 C   0  0  0  0  0  0  0  0  0  0  0  0
   -3.6109   -6.0226    1.5707 H   0  0  0  0  0  0  0  0  0  0  0  0
   -2.0761   -7.6690    2.9987 H   0  0  0  0  0  0  0  0  0  0  0  0
   -2.1583   -6.2752    4.1286 H   0  0  0  0  0  0  0  0  0  0  0  0
   -3.6636   -7.1237    3.6381 H   0  0  0  0  0  0  0  0  0  0  0  0
  1  3  1  0  0  0  0
  1  7  1  0  0  0  0
  1  2  2  0  0  0  0
 32 33  1  0  0  0  0
 33 41  1  0  0  0  0
 33 34  2  0  0  0  0
  8  9  1  0  0  0  0
  9 17  1  0  0  0  0
  9 10  2  0  0  0  0
 18 19  1  0  0  0  0
 19 31  1  0  0  0  0
 19 20  2  0  0  0  0
 32 35  1  0  0  0  0
  8 11  1  0  0  0  0
 21 23  1  0  0  0  0
 41 42  1  0  0  0  0
 31 32  1  0  0  0  0
  7  8  1  0  0  0  0
 18 21  1  0  0  0  0
 17 18  1  0  0  0  0
 21 22  1  0  0  0  0
  3  4  1  0  0  0  0
  3  5  1  0  0  0  0
  3  6  1  0  0  0  0
 35 38  1  0  0  0  0
 35 39  1  0  0  0  0
 35 40  1  0  0  0  0
 11 14  1  0  0  0  0
 11 15  1  0  0  0  0
 11 16  1  0  0  0  0
 23 28  1  0  0  0  0
 23 29  1  0  0  0  0
 23 30  1  0  0  0  0
 42 44  1  0  0  0  0
 42 45  1  0  0  0  0
 42 46  1  0  0  0  0
 32 37  1  0  0  0  0
  8 13  1  0  0  0  0
 18 25  1  0  0  0  0
 21 26  1  0  0  0  0
 41 43  1  0  0  0  0
  7 12  1  0  0  0  0
 31 36  1  0  0  0  0
 17 24  1  0  0  0  0
 22 27  1  0  0  0  0
M  END
$$$$

  -OEChem-05262214473D

 46 45  0     1  0  0  0  0  0999 V2000
   -4.6700    2.7214    1.5150 C   0  0  0  0  0  0  0  0  0  0  0  0
   -5.4532    2.5715    0.5845 O   0  0  0  0  0  0  0  0  0  0  0  0
   -5.0996    3.4865    2.7226 C   0  0  0  0  0  0  0  0  0  0  0  0
   -4.8796    4.5629    2.6387 H   0  0  0  0  0  0  0  0  0  0  0  0
   -6.1861    3.4241    2.8954 H   0  0  0  0  0  0  0  0  0  0  0  0
   -4.6369    3.1693    3.6708 H   0  0  0  0  0  0  0  0  0  0  0  0
   -3.3731    2.2391    1.5790 N   0  0  0  0  0  0  0  0  0  0  0  0
   -2.7599    1.4751    0.5247 C   0  0  2  0  0  0  0  0  0  0  0  0
   -1.5143    0.8067    1.0915 C   0  0  0  0  0  0  0  0  0  0  0  0
   -0.9247    1.2213    2.0872 O   0  0  0  0  0  0  0  0  0  0  0  0
   -2.4106    2.3553   -0.6653 C   0  0  0  0  0  0  0  0  0  0  0  0
   -2.8254    2.4352    2.4150 H   0  0  0  0  0  0  0  0  0  0  0  0
   -3.4836    0.7082    0.2278 H   0  0  0  0  0  0  0  0  0  0  0  0
   -1.6866    3.1298   -0.3871 H   0  0  0  0  0  0  0  0  0  0  0  0
   -1.9704    1.7677   -1.4777 H   0  0  0  0  0  0  0  0  0  0  0  0
   -3.3030    2.8584   -1.0531 H   0  0  0  0  0  0  0  0  0  0  0  0
   -1.1107   -0.2839    0.3303 N   0  0  0  0  0  0  0  0  0  0  0  0
    0.0490   -1.0750    0.6539 C   0  0  2  0  0  0  0  0  0  0  0  0
   -0.3421   -2.5436    0.5162 C   0  0  0  0  0  0  0  0  0  0  0  0
    0.4822   -3.4508    0.4227 O   0  0  0  0  0  0  0  0  0  0  0  0
    0.6075   -0.7680    2.0511 C   0  0  2  0  0  0  0  0  0  0  0  0
   -0.3644   -1.0512    3.0566 O   0  0  0  0  0  0  0  0  0  0  0  0
    1.0192    0.6917    2.1994 C   0  0  0  0  0  0  0  0  0  0  0  0
   -1.6733   -0.5660   -0.4691 H   0  0  0  0  0  0  0  0  0  0  0  0
    0.8033   -0.8462   -0.1088 H   0  0  0  0  0  0  0  0  0  0  0  0
    1.4814   -1.3967    2.2576 H   0  0  0  0  0  0  0  0  0  0  0  0
    0.0659   -0.8848    3.9090 H   0  0  0  0  0  0  0  0  0  0  0  0
    0.1790    1.3664    2.0029 H   0  0  0  0  0  0  0  0  0  0  0  0
    1.8411    0.9439    1.5226 H   0  0  0  0  0  0  0  0  0  0  0  0
    1.3423    0.8910    3.2271 H   0  0  0  0  0  0  0  0  0  0  0  0
   -1.7179   -2.7157    0.4604 N   0  0  0  0  0  0  0  0  0  0  0  0
   -2.3330   -4.0121    0.2985 C   0  0  2  0  0  0  0  0  0  0  0  0
   -2.3135   -4.7139    1.6500 C   0  0  0  0  0  0  0  0  0  0  0  0
   -1.5237   -4.4226    2.5458 O   0  0  0  0  0  0  0  0  0  0  0  0
   -1.6115   -4.8394   -0.7540 C   0  0  0  0  0  0  0  0  0  0  0  0
   -2.3156   -1.8979    0.5364 H   0  0  0  0  0  0  0  0  0  0  0  0
   -3.3701   -3.8343   -0.0064 H   0  0  0  0  0  0  0  0  0  0  0  0
   -0.5708   -5.0278   -0.4659 H   0  0  0  0  0  0  0  0  0  0  0  0
   -2.0962   -5.8109   -0.8959 H   0  0  0  0  0  0  0  0  0  0  0  0
   -1.6006   -4.3196   -1.7181 H   0  0  0  0  0  0  0  0  0  0  0  0
   -3.2531   -5.7328    1.7226 N   0  0  0  0  0  0  0  0  0  0  0  0
   -3.4219   -6.5554    2.8977 C   0  0  0  0  0  0  0  0  0  0  0  0
   -3.8792   -5.8919    0.9388 H   0  0  0  0  0  0  0  0  0  0  0  0
   -2.8001   -7.4582    2.8063 H   0  0  0  0  0  0  0  0  0  0  0  0
   -3.1159   -5.9883    3.7892 H   0  0  0  0  0  0  0  0  0  0  0  0
   -4.4785   -6.8462    2.9929 H   0  0  0  0  0  0  0  0  0  0  0  0
  1  3  1  0  0  0  0
  1  7  1  0  0  0  0
  1  2  2  0  0  0  0
 32 33  1  0  0  0  0
 33 41  1  0  0  0  0
 33 34  2  0  0  0  0
  8  9  1  0  0  0  0
  9 17  1  0  0  0  0
  9 10  2  0  0  0  0
 18 19  1  0  0  0  0
 19 31  1  0  0  0  0
 19 20  2  0  0  0  0
 32 35  1  0  0  0  0
  8 11  1  0  0  0  0
 21 23  1  0  0  0  0
 41 42  1  0  0  0  0
 31 32  1  0  0  0  0
  7  8  1  0  0  0  0
 18 21  1  0  0  0  0
 17 18  1  0  0  0  0
 21 22  1  0  0  0  0
  3  4  1  0  0  0  0
  3  5  1  0  0  0  0
  3  6  1  0  0  0  0
 35 38  1  0  0  0  0
 35 39  1  0  0  0  0
 35 40  1  0  0  0  0
 11 14  1  0  0  0  0
 11 15  1  0  0  0  0
 11 16  1  0  0  0  0
 23 28  1  0  0  0  0
 23 29  1  0  0  0  0
 23 30  1  0  0  0  0
 42 44  1  0  0  0  0
 42 45  1  0  0  0  0
 42 46  1  0  0  0  0
 32 37  1  0  0  0  0
  8 13  1  0  0  0  0
 18 25  1  0  0  0  0
 21 26  1  0  0  0  0
 41 43  1  0  0  0  0
  7 12  1  0  0  0  0
 31 36  1  0  0  0  0
 17 24  1  0  0  0  0
 22 27  1  0  0  0  0
M  END
$$$$

  -OEChem-05262214473D

 46 45  0     1  0  0  0  0  0999 V2000
   -4.6700    2.7214    1.5150 C   0  0  0  0  0  0  0  0  0  0  0  0
   -5.4532    2.5715    0.5845 O   0  0  0  0  0  0  0  0  0  0  0  0
   -5.0996    3.4865    2.7226 C   0  0  0  0  0  0  0  0  0  0  0  0
   -4.8796    4.5629    2.6387 H   0  0  0  0  0  0  0  0  0  0  0  0
   -6.1861    3.4241    2.8954 H   0  0  0  0  0  0  0  0  0  0  0  0
   -4.6369    3.1693    3.6708 H   0  0  0  0  0  0  0  0  0  0  0  0
   -3.3731    2.2391    1.5790 N   0  0  0  0  0  0  0  0  0  0  0  0
   -2.7599    1.4751    0.5247 C   0  0  2  0  0  0  0  0  0  0  0  0
   -1.5143    0.8067    1.0915 C   0  0  0  0  0  0  0  0  0  0  0  0
   -0.9247    1.2213    2.0872 O   0  0  0  0  0  0  0  0  0  0  0  0
   -2.4106    2.3553   -0.6653 C   0  0  0  0  0  0  0  0  0  0  0  0
   -2.8254    2.4352    2.4150 H   0  0  0  0  0  0  0  0  0  0  0  0
   -3.4836    0.7082    0.2278 H   0  0  0  0  0  0  0  0  0  0  0  0
   -1.6866    3.1298   -0.3871 H   0  0  0  0  0  0  0  0  0  0  0  0
   -1.9704    1.7677   -1.4777 H   0  0  0  0  0  0  0  0  0  0  0  0
   -3.3030    2.8584   -1.0531 H   0  0  0  0  0  0  0  0  0  0  0  0
   -1.1107   -0.2839    0.3303 N   0  0  0  0  0  0  0  0  0  0  0  0
    0.0490   -1.0750    0.6539 C   0  0  2  0  0  0  0  0  0  0  0  0
   -0.3421   -2.5436    0.5162 C   0  0  0  0  0  0  0  0  0  0  0  0
    0.4504   -3.4673    0.6893 O   0  0  0  0  0  0  0  0  0  0  0  0
    0.6075   -0.7680    2.0511 C   0  0  2  0  0  0  0  0  0  0  0  0
   -0.3644   -1.0512    3.0566 O   0  0  0  0  0  0  0  0  0  0  0  0
    1.0192    0.6917    2.1994 C   0  0  0  0  0  0  0  0  0  0  0  0
   -1.6733   -0.5660   -0.4691 H   0  0  0  0  0  0  0  0  0  0  0  0
    0.8033   -0.8462   -0.1088 H   0  0  0  0  0  0  0  0  0  0  0  0
    1.4814   -1.3967    2.2576 H   0  0  0  0  0  0  0  0  0  0  0  0
    0.0659   -0.8848    3.9090 H   0  0  0  0  0  0  0  0  0  0  0  0
    0.1790    1.3664    2.0029 H   0  0  0  0  0  0  0  0  0  0  0  0
    1.8411    0.9439    1.5226 H   0  0  0  0  0  0  0  0  0  0  0  0
    1.3423    0.8910    3.2271 H   0  0  0  0  0  0  0  0  0  0  0  0
   -1.6657   -2.6985    0.1294 N   0  0  0  0  0  0  0  0  0  0  0  0
   -2.2623   -3.9937   -0.0985 C   0  0  2  0  0  0  0  0  0  0  0  0
   -2.6012   -4.6004    1.2567 C   0  0  0  0  0  0  0  0  0  0  0  0
   -2.0498   -4.2596    2.3011 O   0  0  0  0  0  0  0  0  0  0  0  0
   -1.3287   -4.9026   -0.8827 C   0  0  0  0  0  0  0  0  0  0  0  0
   -2.2373   -1.8686    0.0017 H   0  0  0  0  0  0  0  0  0  0  0  0
   -3.1849   -3.8220   -0.6635 H   0  0  0  0  0  0  0  0  0  0  0  0
   -0.3986   -5.0861   -0.3324 H   0  0  0  0  0  0  0  0  0  0  0  0
   -1.7936   -5.8743   -1.0794 H   0  0  0  0  0  0  0  0  0  0  0  0
   -1.0622   -4.4512   -1.8445 H   0  0  0  0  0  0  0  0  0  0  0  0
   -3.5613   -5.5976    1.1566 N   0  0  0  0  0  0  0  0  0  0  0  0
   -4.0426   -6.3342    2.3019 C   0  0  0  0  0  0  0  0  0  0  0  0
   -3.9779   -5.8013    0.2529 H   0  0  0  0  0  0  0  0  0  0  0  0
   -3.4466   -7.2504    2.4262 H   0  0  0  0  0  0  0  0  0  0  0  0
   -3.9497   -5.7114    3.2038 H   0  0  0  0  0  0  0  0  0  0  0  0
   -5.0984   -6.6019    2.1483 H   0  0  0  0  0  0  0  0  0  0  0  0
  1  3  1  0  0  0  0
  1  7  1  0  0  0  0
  1  2  2  0  0  0  0
 32 33  1  0  0  0  0
 33 41  1  0  0  0  0
 33 34  2  0  0  0  0
  8  9  1  0  0  0  0
  9 17  1  0  0  0  0
  9 10  2  0  0  0  0
 18 19  1  0  0  0  0
 19 31  1  0  0  0  0
 19 20  2  0  0  0  0
 32 35  1  0  0  0  0
  8 11  1  0  0  0  0
 21 23  1  0  0  0  0
 41 42  1  0  0  0  0
 31 32  1  0  0  0  0
  7  8  1  0  0  0  0
 18 21  1  0  0  0  0
 17 18  1  0  0  0  0
 21 22  1  0  0  0  0
  3  4  1  0  0  0  0
  3  5  1  0  0  0  0
  3  6  1  0  0  0  0
 35 38  1  0  0  0  0
 35 39  1  0  0  0  0
 35 40  1  0  0  0  0
 11 14  1  0  0  0  0
 11 15  1  0  0  0  0
 11 16  1  0  0  0  0
 23 28  1  0  0  0  0
 23 29  1  0  0  0  0
 23 30  1  0  0  0  0
 42 44  1  0  0  0  0
 42 45  1  0  0  0  0
 42 46  1  0  0  0  0
 32 37  1  0  0  0  0
  8 13  1  0  0  0  0
 18 25  1  0  0  0  0
 21 26  1  0  0  0  0
 41 43  1  0  0  0  0
  7 12  1  0  0  0  0
 31 36  1  0  0  0  0
 17 24  1  0  0  0  0
 22 27  1  0  0  0  0
M  END
$$$$

  -OEChem-05262214473D

 46 45  0     1  0  0  0  0  0999 V2000
   -4.6700    2.7214    1.5150 C   0  0  0  0  0  0  0  0  0  0  0  0
   -5.4532    2.5715    0.5845 O   0  0  0  0  0  0  0  0  0  0  0  0
   -5.0996    3.4865    2.7226 C   0  0  0  0  0  0  0  0  0  0  0  0
   -4.8796    4.5629    2.6387 H   0  0  0  0  0  0  0  0  0  0  0  0
   -6.1861    3.4241    2.8954 H   0  0  0  0  0  0  0  0  0  0  0  0
   -4.6369    3.1693    3.6708 H   0  0  0  0  0  0  0  0  0  0  0  0
   -3.3731    2.2391    1.5790 N   0  0  0  0  0  0  0  0  0  0  0  0
   -2.7599    1.4751    0.5247 C   0  0  2  0  0  0  0  0  0  0  0  0
   -1.5143    0.8067    1.0915 C   0  0  0  0  0  0  0  0  0  0  0  0
   -0.9247    1.2213    2.0872 O   0  0  0  0  0  0  0  0  0  0  0  0
   -2.4106    2.3553   -0.6653 C   0  0  0  0  0  0  0  0  0  0  0  0
   -2.8254    2.4352    2.4150 H   0  0  0  0  0  0  0  0  0  0  0  0
   -3.4836    0.7082    0.2278 H   0  0  0  0  0  0  0  0  0  0  0  0
   -1.6866    3.1298   -0.3871 H   0  0  0  0  0  0  0  0  0  0  0  0
   -1.9704    1.7677   -1.4777 H   0  0  0  0  0  0  0  0  0  0  0  0
   -3.3030    2.8584   -1.0531 H   0  0  0  0  0  0  0  0  0  0  0  0
   -1.1107   -0.2839    0.3303 N   0  0  0  0  0  0  0  0  0  0  0  0
    0.0490   -1.0750    0.6539 C   0  0  2  0  0  0  0  0  0  0  0  0
   -0.3421   -2.5436    0.5162 C   0  0  0  0  0  0  0  0  0  0  0  0
    0.3528   -3.4648    0.9400 O   0  0  0  0  0  0  0  0  0  0  0  0
    0.6075   -0.7680    2.0511 C   0  0  2  0  0  0  0  0  0  0  0  0
   -0.3644   -1.0512    3.0566 O   0  0  0  0  0  0  0  0  0  0  0  0
    1.0192    0.6917    2.1994 C   0  0  0  0  0  0  0  0  0  0  0  0
   -1.6733   -0.5660   -0.4691 H   0  0  0  0  0  0  0  0  0  0  0  0
    0.8033   -0.8462   -0.1088 H   0  0  0  0  0  0  0  0  0  0  0  0
    1.4814   -1.3967    2.2576 H   0  0  0  0  0  0  0  0  0  0  0  0
    0.0659   -0.8848    3.9090 H   0  0  0  0  0  0  0  0  0  0  0  0
    0.1790    1.3664    2.0029 H   0  0  0  0  0  0  0  0  0  0  0  0
    1.8411    0.9439    1.5226 H   0  0  0  0  0  0  0  0  0  0  0  0
    1.3423    0.8910    3.2271 H   0  0  0  0  0  0  0  0  0  0  0  0
   -1.5325   -2.7051   -0.1784 N   0  0  0  0  0  0  0  0  0  0  0  0
   -2.0946   -4.0039   -0.4656 C   0  0  2  0  0  0  0  0  0  0  0  0
   -2.7785   -4.5101    0.7975 C   0  0  0  0  0  0  0  0  0  0  0  0
   -2.4931   -4.1060    1.9228 O   0  0  0  0  0  0  0  0  0  0  0  0
   -1.0248   -4.9789   -0.9325 C   0  0  0  0  0  0  0  0  0  0  0  0
   -2.0278   -1.8776   -0.4973 H   0  0  0  0  0  0  0  0  0  0  0  0
   -2.8421   -3.8580   -1.2530 H   0  0  0  0  0  0  0  0  0  0  0  0
   -0.2669   -5.1377   -0.1568 H   0  0  0  0  0  0  0  0  0  0  0  0
   -1.4570   -5.9548   -1.1771 H   0  0  0  0  0  0  0  0  0  0  0  0
   -0.5137   -4.5992   -1.8238 H   0  0  0  0  0  0  0  0  0  0  0  0
   -3.7148   -5.4974    0.5241 N   0  0  0  0  0  0  0  0  0  0  0  0
   -4.4886   -6.1456    1.5571 C   0  0  0  0  0  0  0  0  0  0  0  0
   -3.9003   -5.7570   -0.4403 H   0  0  0  0  0  0  0  0  0  0  0  0
   -3.9715   -7.0598    1.8842 H   0  0  0  0  0  0  0  0  0  0  0  0
   -4.6028   -5.4632    2.4122 H   0  0  0  0  0  0  0  0  0  0  0  0
   -5.4812   -6.4074    1.1618 H   0  0  0  0  0  0  0  0  0  0  0  0
  1  3  1  0  0  0  0
  1  7  1  0  0  0  0
  1  2  2  0  0  0  0
 32 33  1  0  0  0  0
 33 41  1  0  0  0  0
 33 34  2  0  0  0  0
  8  9  1  0  0  0  0
  9 17  1  0  0  0  0
  9 10  2  0  0  0  0
 18 19  1  0  0  0  0
 19 31  1  0  0  0  0
 19 20  2  0  0  0  0
 32 35  1  0  0  0  0
  8 11  1  0  0  0  0
 21 23  1  0  0  0  0
 41 42  1  0  0  0  0
 31 32  1  0  0  0  0
  7  8  1  0  0  0  0
 18 21  1  0  0  0  0
 17 18  1  0  0  0  0
 21 22  1  0  0  0  0
  3  4  1  0  0  0  0
  3  5  1  0  0  0  0
  3  6  1  0  0  0  0
 35 38  1  0  0  0  0
 35 39  1  0  0  0  0
 35 40  1  0  0  0  0
 11 14  1  0  0  0  0
 11 15  1  0  0  0  0
 11 16  1  0  0  0  0
 23 28  1  0  0  0  0
 23 29  1  0  0  0  0
 23 30  1  0  0  0  0
 42 44  1  0  0  0  0
 42 45  1  0  0  0  0
 42 46  1  0  0  0  0
 32 37  1  0  0  0  0
  8 13  1  0  0  0  0
 18 25  1  0  0  0  0
 21 26  1  0  0  0  0
 41 43  1  0  0  0  0
  7 12  1  0  0  0  0
 31 36  1  0  0  0  0
 17 24  1  0  0  0  0
 22 27  1  0  0  0  0
M  END
$$$$

  -OEChem-05262214473D

 46 45  0     1  0  0  0  0  0999 V2000
   -4.6700    2.7214    1.5150 C   0  0  0  0  0  0  0  0  0  0  0  0
   -5.4532    2.5715    0.5845 O   0  0  0  0  0  0  0  0  0  0  0  0
   -5.0996    3.4865    2.7226 C   0  0  0  0  0  0  0  0  0  0  0  0
   -4.8796    4.5629    2.6387 H   0  0  0  0  0  0  0  0  0  0  0  0
   -6.1861    3.4241    2.8954 H   0  0  0  0  0  0  0  0  0  0  0  0
   -4.6369    3.1693    3.6708 H   0  0  0  0  0  0  0  0  0  0  0  0
   -3.3731    2.2391    1.5790 N   0  0  0  0  0  0  0  0  0  0  0  0
   -2.7599    1.4751    0.5247 C   0  0  2  0  0  0  0  0  0  0  0  0
   -1.5143    0.8067    1.0915 C   0  0  0  0  0  0  0  0  0  0  0  0
   -0.9247    1.2213    2.0872 O   0  0  0  0  0  0  0  0  0  0  0  0
   -2.4106    2.3553   -0.6653 C   0  0  0  0  0  0  0  0  0  0  0  0
   -2.8254    2.4352    2.4150 H   0  0  0  0  0  0  0  0  0  0  0  0
   -3.4836    0.7082    0.2278 H   0  0  0  0  0  0  0  0  0  0  0  0
   -1.6866    3.1298   -0.3871 H   0  0  0  0  0  0  0  0  0  0  0  0
   -1.9704    1.7677   -1.4777 H   0  0  0  0  0  0  0  0  0  0  0  0
   -3.3030    2.8584   -1.0531 H   0  0  0  0  0  0  0  0  0  0  0  0
   -1.1107   -0.2839    0.3303 N   0  0  0  0  0  0  0  0  0  0  0  0
    0.0490   -1.0750    0.6539 C   0  0  2  0  0  0  0  0  0  0  0  0
   -0.3421   -2.5436    0.5162 C   0  0  0  0  0  0  0  0  0  0  0  0
    0.1962   -3.4436    1.1577 O   0  0  0  0  0  0  0  0  0  0  0  0
    0.6075   -0.7680    2.0511 C   0  0  2  0  0  0  0  0  0  0  0  0
   -0.3644   -1.0512    3.0566 O   0  0  0  0  0  0  0  0  0  0  0  0
    1.0192    0.6917    2.1994 C   0  0  0  0  0  0  0  0  0  0  0  0
   -1.6733   -0.5660   -0.4691 H   0  0  0  0  0  0  0  0  0  0  0  0
    0.8033   -0.8462   -0.1088 H   0  0  0  0  0  0  0  0  0  0  0  0
    1.4814   -1.3967    2.2576 H   0  0  0  0  0  0  0  0  0  0  0  0
    0.0659   -0.8848    3.9090 H   0  0  0  0  0  0  0  0  0  0  0  0
    0.1790    1.3664    2.0029 H   0  0  0  0  0  0  0  0  0  0  0  0
    1.8411    0.9439    1.5226 H   0  0  0  0  0  0  0  0  0  0  0  0
    1.3423    0.8910    3.2271 H   0  0  0  0  0  0  0  0  0  0  0  0
   -1.3273   -2.7350   -0.4422 N   0  0  0  0  0  0  0  0  0  0  0  0
   -1.8414   -4.0421   -0.7778 C   0  0  2  0  0  0  0  0  0  0  0  0
   -2.8333   -4.4493    0.3038 C   0  0  0  0  0  0  0  0  0  0  0  0
   -2.8235   -3.9724    1.4368 O   0  0  0  0  0  0  0  0  0  0  0  0
   -0.7208   -5.0629   -0.8998 C   0  0  0  0  0  0  0  0  0  0  0  0
   -1.7013   -1.9242   -0.9265 H   0  0  0  0  0  0  0  0  0  0  0  0
   -2.3650   -3.9399   -1.7346 H   0  0  0  0  0  0  0  0  0  0  0  0
   -0.1846   -5.1789    0.0492 H   0  0  0  0  0  0  0  0  0  0  0  0
   -1.1094   -6.0469   -1.1823 H   0  0  0  0  0  0  0  0  0  0  0  0
    0.0074   -4.7536   -1.6573 H   0  0  0  0  0  0  0  0  0  0  0  0
   -3.7033   -5.4390   -0.1317 N   0  0  0  0  0  0  0  0  0  0  0  0
   -4.7295   -6.0024    0.7141 C   0  0  0  0  0  0  0  0  0  0  0  0
   -3.6516   -5.7619   -1.0934 H   0  0  0  0  0  0  0  0  0  0  0  0
   -4.3391   -6.8993    1.2173 H   0  0  0  0  0  0  0  0  0  0  0  0
   -5.0307   -5.2607    1.4686 H   0  0  0  0  0  0  0  0  0  0  0  0
   -5.6006   -6.2761    0.1007 H   0  0  0  0  0  0  0  0  0  0  0  0
  1  3  1  0  0  0  0
  1  7  1  0  0  0  0
  1  2  2  0  0  0  0
 32 33  1  0  0  0  0
 33 41  1  0  0  0  0
 33 34  2  0  0  0  0
  8  9  1  0  0  0  0
  9 17  1  0  0  0  0
  9 10  2  0  0  0  0
 18 19  1  0  0  0  0
 19 31  1  0  0  0  0
 19 20  2  0  0  0  0
 32 35  1  0  0  0  0
  8 11  1  0  0  0  0
 21 23  1  0  0  0  0
 41 42  1  0  0  0  0
 31 32  1  0  0  0  0
  7  8  1  0  0  0  0
 18 21  1  0  0  0  0
 17 18  1  0  0  0  0
 21 22  1  0  0  0  0
  3  4  1  0  0  0  0
  3  5  1  0  0  0  0
  3  6  1  0  0  0  0
 35 38  1  0  0  0  0
 35 39  1  0  0  0  0
 35 40  1  0  0  0  0
 11 14  1  0  0  0  0
 11 15  1  0  0  0  0
 11 16  1  0  0  0  0
 23 28  1  0  0  0  0
 23 29  1  0  0  0  0
 23 30  1  0  0  0  0
 42 44  1  0  0  0  0
 42 45  1  0  0  0  0
 42 46  1  0  0  0  0
 32 37  1  0  0  0  0
  8 13  1  0  0  0  0
 18 25  1  0  0  0  0
 21 26  1  0  0  0  0
 41 43  1  0  0  0  0
  7 12  1  0  0  0  0
 31 36  1  0  0  0  0
 17 24  1  0  0  0  0
 22 27  1  0  0  0  0
M  END
$$$$

  -OEChem-05262214473D

 46 45  0     1  0  0  0  0  0999 V2000
   -4.6700    2.7214    1.5150 C   0  0  0  0  0  0  0  0  0  0  0  0
   -5.4532    2.5715    0.5845 O   0  0  0  0  0  0  0  0  0  0  0  0
   -5.0996    3.4865    2.7226 C   0  0  0  0  0  0  0  0  0  0  0  0
   -4.8796    4.5629    2.6387 H   0  0  0  0  0  0  0  0  0  0  0  0
   -6.1861    3.4241    2.8954 H   0  0  0  0  0  0  0  0  0  0  0  0
   -4.6369    3.1693    3.6708 H   0  0  0  0  0  0  0  0  0  0  0  0
   -3.3731    2.2391    1.5790 N   0  0  0  0  0  0  0  0  0  0  0  0
   -2.7599    1.4751    0.5247 C   0  0  2  0  0  0  0  0  0  0  0  0
   -1.5143    0.8067    1.0915 C   0  0  0  0  0  0  0  0  0  0  0  0
   -0.9247    1.2213    2.0872 O   0  0  0  0  0  0  0  0  0  0  0  0
   -2.4106    2.3553   -0.6653 C   0  0  0  0  0  0  0  0  0  0  0  0
   -2.8254    2.4352    2.4150 H   0  0  0  0  0  0  0  0  0  0  0  0
   -3.4836    0.7082    0.2278 H   0  0  0  0  0  0  0  0  0  0  0  0
   -1.6866    3.1298   -0.3871 H   0  0  0  0  0  0  0  0  0  0  0  0
   -1.9704    1.7677   -1.4777 H   0  0  0  0  0  0  0  0  0  0  0  0
   -3.3030    2.8584   -1.0531 H   0  0  0  0  0  0  0  0  0  0  0  0
   -1.1107   -0.2839    0.3303 N   0  0  0  0  0  0  0  0  0  0  0  0
    0.0490   -1.0750    0.6539 C   0  0  2  0  0  0  0  0  0  0  0  0
   -0.3421   -2.5436    0.5162 C   0  0  0  0  0  0  0  0  0  0  0  0
   -0.0088   -3.4049    1.3275 O   0  0  0  0  0  0  0  0  0  0  0  0
    0.6075   -0.7680    2.0511 C   0  0  2  0  0  0  0  0  0  0  0  0
   -0.3644   -1.0512    3.0566 O   0  0  0  0  0  0  0  0  0  0  0  0
    1.0192    0.6917    2.1994 C   0  0  0  0  0  0  0  0  0  0  0  0
   -1.6733   -0.5660   -0.4691 H   0  0  0  0  0  0  0  0  0  0  0  0
    0.8033   -0.8462   -0.1088 H   0  0  0  0  0  0  0  0  0  0  0  0
    1.4814   -1.3967    2.2576 H   0  0  0  0  0  0  0  0  0  0  0  0
    0.0659   -0.8848    3.9090 H   0  0  0  0  0  0  0  0  0  0  0  0
    0.1790    1.3664    2.0029 H   0  0  0  0  0  0  0  0  0  0  0  0
    1.8411    0.9439    1.5226 H   0  0  0  0  0  0  0  0  0  0  0  0
    1.3423    0.8910    3.2271 H   0  0  0  0  0  0  0  0  0  0  0  0
   -1.0640   -2.7862   -0.6438 N   0  0  0  0  0  0  0  0  0  0  0  0
   -1.5200   -4.1055   -1.0137 C   0  0  2  0  0  0  0  0  0  0  0  0
   -2.7618   -4.4219   -0.1907 C   0  0  0  0  0  0  0  0  0  0  0  0
   -3.0185   -3.8679    0.8762 O   0  0  0  0  0  0  0  0  0  0  0  0
   -0.4372   -5.1490   -0.7869 C   0  0  0  0  0  0  0  0  0  0  0  0
   -1.2802   -2.0054   -1.2566 H   0  0  0  0  0  0  0  0  0  0  0  0
   -1.7861   -4.0620   -2.0755 H   0  0  0  0  0  0  0  0  0  0  0  0
   -0.1574   -5.2070    0.2713 H   0  0  0  0  0  0  0  0  0  0  0  0
   -0.7746   -6.1443   -1.0946 H   0  0  0  0  0  0  0  0  0  0  0  0
    0.4658   -4.9038   -1.3565 H   0  0  0  0  0  0  0  0  0  0  0  0
   -3.5274   -5.4263   -0.7662 N   0  0  0  0  0  0  0  0  0  0  0  0
   -4.7488   -5.9144   -0.1697 C   0  0  0  0  0  0  0  0  0  0  0  0
   -3.2488   -5.8159   -1.6620 H   0  0  0  0  0  0  0  0  0  0  0  0
   -4.5243   -6.7800    0.4709 H   0  0  0  0  0  0  0  0  0  0  0  0
   -5.2042   -5.1178    0.4370 H   0  0  0  0  0  0  0  0  0  0  0  0
   -5.4486   -6.2168   -0.9626 H   0  0  0  0  0  0  0  0  0  0  0  0
  1  3  1  0  0  0  0
  1  7  1  0  0  0  0
  1  2  2  0  0  0  0
 32 33  1  0  0  0  0
 33 41  1  0  0  0  0
 33 34  2  0  0  0  0
  8  9  1  0  0  0  0
  9 17  1  0  0  0  0
  9 10  2  0  0  0  0
 18 19  1  0  0  0  0
 19 31  1  0  0  0  0
 19 20  2  0  0  0  0
 32 35  1  0  0  0  0
  8 11  1  0  0  0  0
 21 23  1  0  0  0  0
 41 42  1  0  0  0  0
 31 32  1  0  0  0  0
  7  8  1  0  0  0  0
 18 21  1  0  0  0  0
 17 18  1  0  0  0  0
 21 22  1  0  0  0  0
  3  4  1  0  0  0  0
  3  5  1  0  0  0  0
  3  6  1  0  0  0  0
 35 38  1  0  0  0  0
 35 39  1  0  0  0  0
 35 40  1  0  0  0  0
 11 14  1  0  0  0  0
 11 15  1  0  0  0  0
 11 16  1  0  0  0  0
 23 28  1  0  0  0  0
 23 29  1  0  0  0  0
 23 30  1  0  0  0  0
 42 44  1  0  0  0  0
 42 45  1  0  0  0  0
 42 46  1  0  0  0  0
 32 37  1  0  0  0  0
  8 13  1  0  0  0  0
 18 25  1  0  0  0  0
 21 26  1  0  0  0  0
 41 43  1  0  0  0  0
  7 12  1  0  0  0  0
 31 36  1  0  0  0  0
 17 24  1  0  0  0  0
 22 27  1  0  0  0  0
M  END
$$$$

  -OEChem-05262214473D

 46 45  0     1  0  0  0  0  0999 V2000
   -4.6700    2.7214    1.5150 C   0  0  0  0  0  0  0  0  0  0  0  0
   -5.4532    2.5715    0.5845 O   0  0  0  0  0  0  0  0  0  0  0  0
   -5.0996    3.4865    2.7226 C   0  0  0  0  0  0  0  0  0  0  0  0
   -4.8796    4.5629    2.6387 H   0  0  0  0  0  0  0  0  0  0  0  0
   -6.1861    3.4241    2.8954 H   0  0  0  0  0  0  0  0  0  0  0  0
   -4.6369    3.1693    3.6708 H   0  0  0  0  0  0  0  0  0  0  0  0
   -3.3731    2.2391    1.5790 N   0  0  0  0  0  0  0  0  0  0  0  0
   -2.7599    1.4751    0.5247 C   0  0  2  0  0  0  0  0  0  0  0  0
   -1.5143    0.8067    1.0915 C   0  0  0  0  0  0  0  0  0  0  0  0
   -0.9247    1.2213    2.0872 O   0  0  0  0  0  0  0  0  0  0  0  0
   -2.4106    2.3553   -0.6653 C   0  0  0  0  0  0  0  0  0  0  0  0
   -2.8254    2.4352    2.4150 H   0  0  0  0  0  0  0  0  0  0  0  0
   -3.4836    0.7082    0.2278 H   0  0  0  0  0  0  0  0  0  0  0  0
   -1.6866    3.1298   -0.3871 H   0  0  0  0  0  0  0  0  0  0  0  0
   -1.9704    1.7677   -1.4777 H   0  0  0  0  0  0  0  0  0  0  0  0
   -3.3030    2.8584   -1.0531 H   0  0  0  0  0  0  0  0  0  0  0  0
   -1.1107   -0.2839    0.3303 N   0  0  0  0  0  0  0  0  0  0  0  0
    0.0490   -1.0750    0.6539 C   0  0  2  0  0  0  0  0  0  0  0  0
   -0.3421   -2.5436    0.5162 C   0  0  0  0  0  0  0  0  0  0  0  0
   -0.2482   -3.3515    1.4380 O   0  0  0  0  0  0  0  0  0  0  0  0
    0.6075   -0.7680    2.0511 C   0  0  2  0  0  0  0  0  0  0  0  0
   -0.3644   -1.0512    3.0566 O   0  0  0  0  0  0  0  0  0  0  0  0
    1.0192    0.6917    2.1994 C   0  0  0  0  0  0  0  0  0  0  0  0
   -1.6733   -0.5660   -0.4691 H   0  0  0  0  0  0  0  0  0  0  0  0
    0.8033   -0.8462   -0.1088 H   0  0  0  0  0  0  0  0  0  0  0  0
    1.4814   -1.3967    2.2576 H   0  0  0  0  0  0  0  0  0  0  0  0
    0.0659   -0.8848    3.9090 H   0  0  0  0  0  0  0  0  0  0  0  0
    0.1790    1.3664    2.0029 H   0  0  0  0  0  0  0  0  0  0  0  0
    1.8411    0.9439    1.5226 H   0  0  0  0  0  0  0  0  0  0  0  0
    1.3423    0.8910    3.2271 H   0  0  0  0  0  0  0  0  0  0  0  0
   -0.7607   -2.8552   -0.7696 N   0  0  0  0  0  0  0  0  0  0  0  0
   -1.1522   -4.1900   -1.1574 C   0  0  2  0  0  0  0  0  0  0  0  0
   -2.5689   -4.4300   -0.6524 C   0  0  0  0  0  0  0  0  0  0  0  0
   -3.0647   -3.7996    0.2792 O   0  0  0  0  0  0  0  0  0  0  0  0
   -0.1934   -5.2313   -0.6015 C   0  0  0  0  0  0  0  0  0  0  0  0
   -0.7931   -2.1156   -1.4652 H   0  0  0  0  0  0  0  0  0  0  0  0
   -1.1449   -4.2162   -2.2525 H   0  0  0  0  0  0  0  0  0  0  0  0
   -0.1871   -5.2200    0.4945 H   0  0  0  0  0  0  0  0  0  0  0  0
   -0.4752   -6.2404   -0.9200 H   0  0  0  0  0  0  0  0  0  0  0  0
    0.8300   -5.0397   -0.9418 H   0  0  0  0  0  0  0  0  0  0  0  0
   -3.1991   -5.4603   -1.3361 N   0  0  0  0  0  0  0  0  0  0  0  0
   -4.5453   -5.8875   -1.0340 C   0  0  0  0  0  0  0  0  0  0  0  0
   -2.7194   -5.9151   -2.1073 H   0  0  0  0  0  0  0  0  0  0  0  0
   -4.5145   -6.7099   -0.3042 H   0  0  0  0  0  0  0  0  0  0  0  0
   -5.1115   -5.0441   -0.6121 H   0  0  0  0  0  0  0  0  0  0  0  0
   -5.0356   -6.2337   -1.9558 H   0  0  0  0  0  0  0  0  0  0  0  0
  1  3  1  0  0  0  0
  1  7  1  0  0  0  0
  1  2  2  0  0  0  0
 32 33  1  0  0  0  0
 33 41  1  0  0  0  0
 33 34  2  0  0  0  0
  8  9  1  0  0  0  0
  9 17  1  0  0  0  0
  9 10  2  0  0  0  0
 18 19  1  0  0  0  0
 19 31  1  0  0  0  0
 19 20  2  0  0  0  0
 32 35  1  0  0  0  0
  8 11  1  0  0  0  0
 21 23  1  0  0  0  0
 41 42  1  0  0  0  0
 31 32  1  0  0  0  0
  7  8  1  0  0  0  0
 18 21  1  0  0  0  0
 17 18  1  0  0  0  0
 21 22  1  0  0  0  0
  3  4  1  0  0  0  0
  3  5  1  0  0  0  0
  3  6  1  0  0  0  0
 35 38  1  0  0  0  0
 35 39  1  0  0  0  0
 35 40  1  0  0  0  0
 11 14  1  0  0  0  0
 11 15  1  0  0  0  0
 11 16  1  0  0  0  0
 23 28  1  0  0  0  0
 23 29  1  0  0  0  0
 23 30  1  0  0  0  0
 42 44  1  0  0  0  0
 42 45  1  0  0  0  0
 42 46  1  0  0  0  0
 32 37  1  0  0  0  0
  8 13  1  0  0  0  0
 18 25  1  0  0  0  0
 21 26  1  0  0  0  0
 41 43  1  0  0  0  0
  7 12  1  0  0  0  0
 31 36  1  0  0  0  0
 17 24  1  0  0  0  0
 22 27  1  0  0  0  0
M  END
$$$$

  -OEChem-05262214473D

 46 45  0     1  0  0  0  0  0999 V2000
   -4.6700    2.7214    1.5150 C   0  0  0  0  0  0  0  0  0  0  0  0
   -5.4532    2.5715    0.5845 O   0  0  0  0  0  0  0  0  0  0  0  0
   -5.0996    3.4865    2.7226 C   0  0  0  0  0  0  0  0  0  0  0  0
   -4.8796    4.5629    2.6387 H   0  0  0  0  0  0  0  0  0  0  0  0
   -6.1861    3.4241    2.8954 H   0  0  0  0  0  0  0  0  0  0  0  0
   -4.6369    3.1693    3.6708 H   0  0  0  0  0  0  0  0  0  0  0  0
   -3.3731    2.2391    1.5790 N   0  0  0  0  0  0  0  0  0  0  0  0
   -2.7599    1.4751    0.5247 C   0  0  2  0  0  0  0  0  0  0  0  0
   -1.5143    0.8067    1.0915 C   0  0  0  0  0  0  0  0  0  0  0  0
   -0.9247    1.2213    2.0872 O   0  0  0  0  0  0  0  0  0  0  0  0
   -2.4106    2.3553   -0.6653 C   0  0  0  0  0  0  0  0  0  0  0  0
   -2.8254    2.4352    2.4150 H   0  0  0  0  0  0  0  0  0  0  0  0
   -3.4836    0.7082    0.2278 H   0  0  0  0  0  0  0  0  0  0  0  0
   -1.6866    3.1298   -0.3871 H   0  0  0  0  0  0  0  0  0  0  0  0
   -1.9704    1.7677   -1.4777 H   0  0  0  0  0  0  0  0  0  0  0  0
   -3.3030    2.8584   -1.0531 H   0  0  0  0  0  0  0  0  0  0  0  0
   -1.1107   -0.2839    0.3303 N   0  0  0  0  0  0  0  0  0  0  0  0
    0.0490   -1.0750    0.6539 C   0  0  2  0  0  0  0  0  0  0  0  0
   -0.3421   -2.5436    0.5162 C   0  0  0  0  0  0  0  0  0  0  0  0
   -0.5058   -3.2870    1.4815 O   0  0  0  0  0  0  0  0  0  0  0  0
    0.6075   -0.7680    2.0511 C   0  0  2  0  0  0  0  0  0  0  0  0
   -0.3644   -1.0512    3.0566 O   0  0  0  0  0  0  0  0  0  0  0  0
    1.0192    0.6917    2.1994 C   0  0  0  0  0  0  0  0  0  0  0  0
   -1.6733   -0.5660   -0.4691 H   0  0  0  0  0  0  0  0  0  0  0  0
    0.8033   -0.8462   -0.1088 H   0  0  0  0  0  0  0  0  0  0  0  0
    1.4814   -1.3967    2.2576 H   0  0  0  0  0  0  0  0  0  0  0  0
    0.0659   -0.8848    3.9090 H   0  0  0  0  0  0  0  0  0  0  0  0
    0.1790    1.3664    2.0029 H   0  0  0  0  0  0  0  0  0  0  0  0
    1.8411    0.9439    1.5226 H   0  0  0  0  0  0  0  0  0  0  0  0
    1.3423    0.8910    3.2271 H   0  0  0  0  0  0  0  0  0  0  0  0
   -0.4380   -2.9373   -0.8110 N   0  0  0  0  0  0  0  0  0  0  0  0
   -0.7632   -4.2897   -1.1989 C   0  0  2  0  0  0  0  0  0  0  0  0
   -2.2678   -4.4729   -1.0498 C   0  0  0  0  0  0  0  0  0  0  0  0
   -2.9591   -3.7722   -0.3135 O   0  0  0  0  0  0  0  0  0  0  0  0
   -0.0060   -5.3042   -0.3563 C   0  0  0  0  0  0  0  0  0  0  0  0
   -0.2732   -2.2472   -1.5380 H   0  0  0  0  0  0  0  0  0  0  0  0
   -0.4850   -4.3918   -2.2535 H   0  0  0  0  0  0  0  0  0  0  0  0
   -0.2716   -5.2171    0.7036 H   0  0  0  0  0  0  0  0  0  0  0  0
   -0.2318   -6.3286   -0.6705 H   0  0  0  0  0  0  0  0  0  0  0  0
    1.0754   -5.1520   -0.4414 H   0  0  0  0  0  0  0  0  0  0  0  0
   -2.7409   -5.5386   -1.8026 N   0  0  0  0  0  0  0  0  0  0  0  0
   -4.1328   -5.9236   -1.8200 C   0  0  0  0  0  0  0  0  0  0  0  0
   -2.0994   -6.0528   -2.3990 H   0  0  0  0  0  0  0  0  0  0  0  0
   -4.3103   -6.6939   -1.0550 H   0  0  0  0  0  0  0  0  0  0  0  0
   -4.7590   -5.0446   -1.6072 H   0  0  0  0  0  0  0  0  0  0  0  0
   -4.3896   -6.3255   -2.8112 H   0  0  0  0  0  0  0  0  0  0  0  0
  1  3  1  0  0  0  0
  1  7  1  0  0  0  0
  1  2  2  0  0  0  0
 32 33  1  0  0  0  0
 33 41  1  0  0  0  0
 33 34  2  0  0  0  0
  8  9  1  0  0  0  0
  9 17  1  0  0  0  0
  9 10  2  0  0  0  0
 18 19  1  0  0  0  0
 19 31  1  0  0  0  0
 19 20  2  0  0  0  0
 32 35  1  0  0  0  0
  8 11  1  0  0  0  0
 21 23  1  0  0  0  0
 41 42  1  0  0  0  0
 31 32  1  0  0  0  0
  7  8  1  0  0  0  0
 18 21  1  0  0  0  0
 17 18  1  0  0  0  0
 21 22  1  0  0  0  0
  3  4  1  0  0  0  0
  3  5  1  0  0  0  0
  3  6  1  0  0  0  0
 35 38  1  0  0  0  0
 35 39  1  0  0  0  0
 35 40  1  0  0  0  0
 11 14  1  0  0  0  0
 11 15  1  0  0  0  0
 11 16  1  0  0  0  0
 23 28  1  0  0  0  0
 23 29  1  0  0  0  0
 23 30  1  0  0  0  0
 42 44  1  0  0  0  0
 42 45  1  0  0  0  0
 42 46  1  0  0  0  0
 32 37  1  0  0  0  0
  8 13  1  0  0  0  0
 18 25  1  0  0  0  0
 21 26  1  0  0  0  0
 41 43  1  0  0  0  0
  7 12  1  0  0  0  0
 31 36  1  0  0  0  0
 17 24  1  0  0  0  0
 22 27  1  0  0  0  0
M  END
$$$$

  -OEChem-05262214473D

 46 45  0     1  0  0  0  0  0999 V2000
   -4.6700    2.7214    1.5150 C   0  0  0  0  0  0  0  0  0  0  0  0
   -5.4532    2.5715    0.5845 O   0  0  0  0  0  0  0  0  0  0  0  0
   -5.0996    3.4865    2.7226 C   0  0  0  0  0  0  0  0  0  0  0  0
   -4.8796    4.5629    2.6387 H   0  0  0  0  0  0  0  0  0  0  0  0
   -6.1861    3.4241    2.8954 H   0  0  0  0  0  0  0  0  0  0  0  0
   -4.6369    3.1693    3.6708 H   0  0  0  0  0  0  0  0  0  0  0  0
   -3.3731    2.2391    1.5790 N   0  0  0  0  0  0  0  0  0  0  0  0
   -2.7599    1.4751    0.5247 C   0  0  2  0  0  0  0  0  0  0  0  0
   -1.5143    0.8067    1.0915 C   0  0  0  0  0  0  0  0  0  0  0  0
   -0.9247    1.2213    2.0872 O   0  0  0  0  0  0  0  0  0  0  0  0
   -2.4106    2.3553   -0.6653 C   0  0  0  0  0  0  0  0  0  0  0  0
   -2.8254    2.4352    2.4150 H   0  0  0  0  0  0  0  0  0  0  0  0
   -3.4836    0.7082    0.2278 H   0  0  0  0  0  0  0  0  0  0  0  0
   -1.6866    3.1298   -0.3871 H   0  0  0  0  0  0  0  0  0  0  0  0
   -1.9704    1.7677   -1.4777 H   0  0  0  0  0  0  0  0  0  0  0  0
   -3.3030    2.8584   -1.0531 H   0  0  0  0  0  0  0  0  0  0  0  0
   -1.1107   -0.2839    0.3303 N   0  0  0  0  0  0  0  0  0  0  0  0
    0.0490   -1.0750    0.6539 C   0  0  2  0  0  0  0  0  0  0  0  0
   -0.3421   -2.5436    0.5162 C   0  0  0  0  0  0  0  0  0  0  0  0
   -0.7638   -3.2158    1.4550 O   0  0  0  0  0  0  0  0  0  0  0  0
    0.6075   -0.7680    2.0511 C   0  0  2  0  0  0  0  0  0  0  0  0
   -0.3644   -1.0512    3.0566 O   0  0  0  0  0  0  0  0  0  0  0  0
    1.0192    0.6917    2.1994 C   0  0  0  0  0  0  0  0  0  0  0  0
   -1.6733   -0.5660   -0.4691 H   0  0  0  0  0  0  0  0  0  0  0  0
    0.8033   -0.8462   -0.1088 H   0  0  0  0  0  0  0  0  0  0  0  0
    1.4814   -1.3967    2.2576 H   0  0  0  0  0  0  0  0  0  0  0  0
    0.0659   -0.8848    3.9090 H   0  0  0  0  0  0  0  0  0  0  0  0
    0.1790    1.3664    2.0029 H   0  0  0  0  0  0  0  0  0  0  0  0
    1.8411    0.9439    1.5226 H   0  0  0  0  0  0  0  0  0  0  0  0
    1.3423    0.8910    3.2271 H   0  0  0  0  0  0  0  0  0  0  0  0
   -0.1180   -3.0268   -0.7652 N   0  0  0  0  0  0  0  0  0  0  0  0
   -0.3794   -4.3979   -1.1355 C   0  0  2  0  0  0  0  0  0  0  0  0
   -1.8789   -4.5477   -1.3558 C   0  0  0  0  0  0  0  0  0  0  0  0
   -2.7088   -3.7874   -0.8615 O   0  0  0  0  0  0  0  0  0  0  0  0
    0.1123   -5.3628   -0.0679 C   0  0  0  0  0  0  0  0  0  0  0  0
    0.2441   -2.3913   -1.4702 H   0  0  0  0  0  0  0  0  0  0  0  0
    0.1485   -4.5770   -2.0785 H   0  0  0  0  0  0  0  0  0  0  0  0
   -0.4053   -5.1985    0.8843 H   0  0  0  0  0  0  0  0  0  0  0  0
   -0.0609   -6.4029   -0.3630 H   0  0  0  0  0  0  0  0  0  0  0  0
    1.1852   -5.2330    0.1104 H   0  0  0  0  0  0  0  0  0  0  0  0
   -2.1840   -5.6558   -2.1338 N   0  0  0  0  0  0  0  0  0  0  0  0
   -3.5395   -6.0203   -2.4740 C   0  0  0  0  0  0  0  0  0  0  0  0
   -1.4311   -6.2197   -2.5172 H   0  0  0  0  0  0  0  0  0  0  0  0
   -3.9257   -6.7329   -1.7304 H   0  0  0  0  0  0  0  0  0  0  0  0
   -4.1706   -5.1194   -2.4806 H   0  0  0  0  0  0  0  0  0  0  0  0
   -3.5547   -6.4860   -3.4704 H   0  0  0  0  0  0  0  0  0  0  0  0
  1  3  1  0  0  0  0
  1  7  1  0  0  0  0
  1  2  2  0  0  0  0
 32 33  1  0  0  0  0
 33 41  1  0  0  0  0
 33 34  2  0  0  0  0
  8  9  1  0  0  0  0
  9 17  1  0  0  0  0
  9 10  2  0  0  0  0
 18 19  1  0  0  0  0
 19 31  1  0  0  0  0
 19 20  2  0  0  0  0
 32 35  1  0  0  0  0
  8 11  1  0  0  0  0
 21 23  1  0  0  0  0
 41 42  1  0  0  0  0
 31 32  1  0  0  0  0
  7  8  1  0  0  0  0
 18 21  1  0  0  0  0
 17 18  1  0  0  0  0
 21 22  1  0  0  0  0
  3  4  1  0  0  0  0
  3  5  1  0  0  0  0
  3  6  1  0  0  0  0
 35 38  1  0  0  0  0
 35 39  1  0  0  0  0
 35 40  1  0  0  0  0
 11 14  1  0  0  0  0
 11 15  1  0  0  0  0
 11 16  1  0  0  0  0
 23 28  1  0  0  0  0
 23 29  1  0  0  0  0
 23 30  1  0  0  0  0
 42 44  1  0  0  0  0
 42 45  1  0  0  0  0
 42 46  1  0  0  0  0
 32 37  1  0  0  0  0
  8 13  1  0  0  0  0
 18 25  1  0  0  0  0
 21 26  1  0  0  0  0
 41 43  1  0  0  0  0
  7 12  1  0  0  0  0
 31 36  1  0  0  0  0
 17 24  1  0  0  0  0
 22 27  1  0  0  0  0
M  END
$$$$

  -OEChem-05262214473D

 46 45  0     1  0  0  0  0  0999 V2000
   -4.6700    2.7214    1.5150 C   0  0  0  0  0  0  0  0  0  0  0  0
   -5.4532    2.5715    0.5845 O   0  0  0  0  0  0  0  0  0  0  0  0
   -5.0996    3.4865    2.7226 C   0  0  0  0  0  0  0  0  0  0  0  0
   -4.8796    4.5629    2.6387 H   0  0  0  0  0  0  0  0  0  0  0  0
   -6.1861    3.4241    2.8954 H   0  0  0  0  0  0  0  0  0  0  0  0
   -4.6369    3.1693    3.6708 H   0  0  0  0  0  0  0  0  0  0  0  0
   -3.3731    2.2391    1.5790 N   0  0  0  0  0  0  0  0  0  0  0  0
   -2.7599    1.4751    0.5247 C   0  0  2  0  0  0  0  0  0  0  0  0
   -1.5143    0.8067    1.0915 C   0  0  0  0  0  0  0  0  0  0  0  0
   -0.9247    1.2213    2.0872 O   0  0  0  0  0  0  0  0  0  0  0  0
   -2.4106    2.3553   -0.6653 C   0  0  0  0  0  0  0  0  0  0  0  0
   -2.8254    2.4352    2.4150 H   0  0  0  0  0  0  0  0  0  0  0  0
   -3.4836    0.7082    0.2278 H   0  0  0  0  0  0  0  0  0  0  0  0
   -1.6866    3.1298   -0.3871 H   0  0  0  0  0  0  0  0  0  0  0  0
   -1.9704    1.7677   -1.4777 H   0  0  0  0  0  0  0  0  0  0  0  0
   -3.3030    2.8584   -1.0531 H   0  0  0  0  0  0  0  0  0  0  0  0
   -1.1107   -0.2839    0.3303 N   0  0  0  0  0  0  0  0  0  0  0  0
    0.0490   -1.0750    0.6539 C   0  0  2  0  0  0  0  0  0  0  0  0
   -0.3421   -2.5436    0.5162 C   0  0  0  0  0  0  0  0  0  0  0  0
   -1.0049   -3.1427    1.3605 O   0  0  0  0  0  0  0  0  0  0  0  0
    0.6075   -0.7680    2.0511 C   0  0  2  0  0  0  0  0  0  0  0  0
   -0.3644   -1.0512    3.0566 O   0  0  0  0  0  0  0  0  0  0  0  0
    1.0192    0.6917    2.1994 C   0  0  0  0  0  0  0  0  0  0  0  0
   -1.6733   -0.5660   -0.4691 H   0  0  0  0  0  0  0  0  0  0  0  0
    0.8033   -0.8462   -0.1088 H   0  0  0  0  0  0  0  0  0  0  0  0
    1.4814   -1.3967    2.2576 H   0  0  0  0  0  0  0  0  0  0  0  0
    0.0659   -0.8848    3.9090 H   0  0  0  0  0  0  0  0  0  0  0  0
    0.1790    1.3664    2.0029 H   0  0  0  0  0  0  0  0  0  0  0  0
    1.8411    0.9439    1.5226 H   0  0  0  0  0  0  0  0  0  0  0  0
    1.3423    0.8910    3.2271 H   0  0  0  0  0  0  0  0  0  0  0  0
    0.1777   -3.1177   -0.6353 N   0  0  0  0  0  0  0  0  0  0  0  0
   -0.0270   -4.5071   -0.9715 C   0  0  2  0  0  0  0  0  0  0  0  0
   -1.4289   -4.6494   -1.5495 C   0  0  0  0  0  0  0  0  0  0  0  0
   -2.3309   -3.8444   -1.3275 O   0  0  0  0  0  0  0  0  0  0  0  0
    0.1533   -5.4029    0.2441 C   0  0  0  0  0  0  0  0  0  0  0  0
    0.7235   -2.5381   -1.2662 H   0  0  0  0  0  0  0  0  0  0  0  0
    0.7125   -4.7590   -1.7394 H   0  0  0  0  0  0  0  0  0  0  0  0
   -0.5791   -5.1653    1.0243 H   0  0  0  0  0  0  0  0  0  0  0  0
    0.0258   -6.4583   -0.0185 H   0  0  0  0  0  0  0  0  0  0  0  0
    1.1519   -5.2772    0.6762 H   0  0  0  0  0  0  0  0  0  0  0  0
   -1.5662   -5.8040   -2.3072 N   0  0  0  0  0  0  0  0  0  0  0  0
   -2.8057   -6.1709   -2.9515 C   0  0  0  0  0  0  0  0  0  0  0  0
   -0.7601   -6.4043   -2.4538 H   0  0  0  0  0  0  0  0  0  0  0  0
   -3.3869   -6.8245   -2.2844 H   0  0  0  0  0  0  0  0  0  0  0  0
   -3.3864   -5.2633   -3.1727 H   0  0  0  0  0  0  0  0  0  0  0  0
   -2.5878   -6.7043   -3.8886 H   0  0  0  0  0  0  0  0  0  0  0  0
  1  3  1  0  0  0  0
  1  7  1  0  0  0  0
  1  2  2  0  0  0  0
 32 33  1  0  0  0  0
 33 41  1  0  0  0  0
 33 34  2  0  0  0  0
  8  9  1  0  0  0  0
  9 17  1  0  0  0  0
  9 10  2  0  0  0  0
 18 19  1  0  0  0  0
 19 31  1  0  0  0  0
 19 20  2  0  0  0  0
 32 35  1  0  0  0  0
  8 11  1  0  0  0  0
 21 23  1  0  0  0  0
 41 42  1  0  0  0  0
 31 32  1  0  0  0  0
  7  8  1  0  0  0  0
 18 21  1  0  0  0  0
 17 18  1  0  0  0  0
 21 22  1  0  0  0  0
  3  4  1  0  0  0  0
  3  5  1  0  0  0  0
  3  6  1  0  0  0  0
 35 38  1  0  0  0  0
 35 39  1  0  0  0  0
 35 40  1  0  0  0  0
 11 14  1  0  0  0  0
 11 15  1  0  0  0  0
 11 16  1  0  0  0  0
 23 28  1  0  0  0  0
 23 29  1  0  0  0  0
 23 30  1  0  0  0  0
 42 44  1  0  0  0  0
 42 45  1  0  0  0  0
 42 46  1  0  0  0  0
 32 37  1  0  0  0  0
  8 13  1  0  0  0  0
 18 25  1  0  0  0  0
 21 26  1  0  0  0  0
 41 43  1  0  0  0  0
  7 12  1  0  0  0  0
 31 36  1  0  0  0  0
 17 24  1  0  0  0  0
 22 27  1  0  0  0  0
M  END
$$$$

  -OEChem-05262214473D

 46 45  0     1  0  0  0  0  0999 V2000
   -4.6700    2.7214    1.5150 C   0  0  0  0  0  0  0  0  0  0  0  0
   -5.4532    2.5715    0.5845 O   0  0  0  0  0  0  0  0  0  0  0  0
   -5.0996    3.4865    2.7226 C   0  0  0  0  0  0  0  0  0  0  0  0
   -4.8796    4.5629    2.6387 H   0  0  0  0  0  0  0  0  0  0  0  0
   -6.1861    3.4241    2.8954 H   0  0  0  0  0  0  0  0  0  0  0  0
   -4.6369    3.1693    3.6708 H   0  0  0  0  0  0  0  0  0  0  0  0
   -3.3731    2.2391    1.5790 N   0  0  0  0  0  0  0  0  0  0  0  0
   -2.7599    1.4751    0.5247 C   0  0  2  0  0  0  0  0  0  0  0  0
   -1.5143    0.8067    1.0915 C   0  0  0  0  0  0  0  0  0  0  0  0
   -0.9247    1.2213    2.0872 O   0  0  0  0  0  0  0  0  0  0  0  0
   -2.4106    2.3553   -0.6653 C   0  0  0  0  0  0  0  0  0  0  0  0
   -2.8254    2.4352    2.4150 H   0  0  0  0  0  0  0  0  0  0  0  0
   -3.4836    0.7082    0.2278 H   0  0  0  0  0  0  0  0  0  0  0  0
   -1.6866    3.1298   -0.3871 H   0  0  0  0  0  0  0  0  0  0  0  0
   -1.9704    1.7677   -1.4777 H   0  0  0  0  0  0  0  0  0  0  0  0
   -3.3030    2.8584   -1.0531 H   0  0  0  0  0  0  0  0  0  0  0  0
   -1.1107   -0.2839    0.3303 N   0  0  0  0  0  0  0  0  0  0  0  0
    0.0490   -1.0750    0.6539 C   0  0  2  0  0  0  0  0  0  0  0  0
   -0.3421   -2.5436    0.5162 C   0  0  0  0  0  0  0  0  0  0  0  0
   -1.2125   -3.0728    1.2043 O   0  0  0  0  0  0  0  0  0  0  0  0
    0.6075   -0.7680    2.0511 C   0  0  2  0  0  0  0  0  0  0  0  0
   -0.3644   -1.0512    3.0566 O   0  0  0  0  0  0  0  0  0  0  0  0
    1.0192    0.6917    2.1994 C   0  0  0  0  0  0  0  0  0  0  0  0
   -1.6733   -0.5660   -0.4691 H   0  0  0  0  0  0  0  0  0  0  0  0
    0.8033   -0.8462   -0.1088 H   0  0  0  0  0  0  0  0  0  0  0  0
    1.4814   -1.3967    2.2576 H   0  0  0  0  0  0  0  0  0  0  0  0
    0.0659   -0.8848    3.9090 H   0  0  0  0  0  0  0  0  0  0  0  0
    0.1790    1.3664    2.0029 H   0  0  0  0  0  0  0  0  0  0  0  0
    1.8411    0.9439    1.5226 H   0  0  0  0  0  0  0  0  0  0  0  0
    1.3423    0.8910    3.2271 H   0  0  0  0  0  0  0  0  0  0  0  0
    0.4288   -3.2038   -0.4301 N   0  0  0  0  0  0  0  0  0  0  0  0
    0.2699   -4.6099   -0.7181 C   0  0  2  0  0  0  0  0  0  0  0  0
   -0.9483   -4.7710   -1.6178 C   0  0  0  0  0  0  0  0  0  0  0  0
   -1.8511   -3.9391   -1.6797 O   0  0  0  0  0  0  0  0  0  0  0  0
    0.1142   -5.4220    0.5582 C   0  0  0  0  0  0  0  0  0  0  0  0
    1.1323   -2.6776   -0.9401 H   0  0  0  0  0  0  0  0  0  0  0  0
    1.1686   -4.9255   -1.2592 H   0  0  0  0  0  0  0  0  0  0  0  0
   -0.7810   -5.1200    1.1140 H   0  0  0  0  0  0  0  0  0  0  0  0
    0.0225   -6.4910    0.3396 H   0  0  0  0  0  0  0  0  0  0  0  0
    0.9777   -5.2816    1.2173 H   0  0  0  0  0  0  0  0  0  0  0  0
   -0.9298   -5.9732   -2.3111 N   0  0  0  0  0  0  0  0  0  0  0  0
   -1.9815   -6.3652   -3.2201 C   0  0  0  0  0  0  0  0  0  0  0  0
   -0.1320   -6.5942   -2.2132 H   0  0  0  0  0  0  0  0  0  0  0  0
   -2.7306   -6.9622   -2.6793 H   0  0  0  0  0  0  0  0  0  0  0  0
   -2.4600   -5.4665   -3.6364 H   0  0  0  0  0  0  0  0  0  0  0  0
   -1.5548   -6.9654   -4.0372 H   0  0  0  0  0  0  0  0  0  0  0  0
  1  3  1  0  0  0  0
  1  7  1  0  0  0  0
  1  2  2  0  0  0  0
 32 33  1  0  0  0  0
 33 41  1  0  0  0  0
 33 34  2  0  0  0  0
  8  9  1  0  0  0  0
  9 17  1  0  0  0  0
  9 10  2  0  0  0  0
 18 19  1  0  0  0  0
 19 31  1  0  0  0  0
 19 20  2  0  0  0  0
 32 35  1  0  0  0  0
  8 11  1  0  0  0  0
 21 23  1  0  0  0  0
 41 42  1  0  0  0  0
 31 32  1  0  0  0  0
  7  8  1  0  0  0  0
 18 21  1  0  0  0  0
 17 18  1  0  0  0  0
 21 22  1  0  0  0  0
  3  4  1  0  0  0  0
  3  5  1  0  0  0  0
  3  6  1  0  0  0  0
 35 38  1  0  0  0  0
 35 39  1  0  0  0  0
 35 40  1  0  0  0  0
 11 14  1  0  0  0  0
 11 15  1  0  0  0  0
 11 16  1  0  0  0  0
 23 28  1  0  0  0  0
 23 29  1  0  0  0  0
 23 30  1  0  0  0  0
 42 44  1  0  0  0  0
 42 45  1  0  0  0  0
 42 46  1  0  0  0  0
 32 37  1  0  0  0  0
  8 13  1  0  0  0  0
 18 25  1  0  0  0  0
 21 26  1  0  0  0  0
 41 43  1  0  0  0  0
  7 12  1  0  0  0  0
 31 36  1  0  0  0  0
 17 24  1  0  0  0  0
 22 27  1  0  0  0  0
M  END
$$$$

  -OEChem-05262214473D

 46 45  0     1  0  0  0  0  0999 V2000
   -4.6700    2.7214    1.5150 C   0  0  0  0  0  0  0  0  0  0  0  0
   -5.4532    2.5715    0.5845 O   0  0  0  0  0  0  0  0  0  0  0  0
   -5.0996    3.4865    2.7226 C   0  0  0  0  0  0  0  0  0  0  0  0
   -4.8796    4.5629    2.6387 H   0  0  0  0  0  0  0  0  0  0  0  0
   -6.1861    3.4241    2.8954 H   0  0  0  0  0  0  0  0  0  0  0  0
   -4.6369    3.1693    3.6708 H   0  0  0  0  0  0  0  0  0  0  0  0
   -3.3731    2.2391    1.5790 N   0  0  0  0  0  0  0  0  0  0  0  0
   -2.7599    1.4751    0.5247 C   0  0  2  0  0  0  0  0  0  0  0  0
   -1.5143    0.8067    1.0915 C   0  0  0  0  0  0  0  0  0  0  0  0
   -0.9247    1.2213    2.0872 O   0  0  0  0  0  0  0  0  0  0  0  0
   -2.4106    2.3553   -0.6653 C   0  0  0  0  0  0  0  0  0  0  0  0
   -2.8254    2.4352    2.4150 H   0  0  0  0  0  0  0  0  0  0  0  0
   -3.4836    0.7082    0.2278 H   0  0  0  0  0  0  0  0  0  0  0  0
   -1.6866    3.1298   -0.3871 H   0  0  0  0  0  0  0  0  0  0  0  0
   -1.9704    1.7677   -1.4777 H   0  0  0  0  0  0  0  0  0  0  0  0
   -3.3030    2.8584   -1.0531 H   0  0  0  0  0  0  0  0  0  0  0  0
   -1.1107   -0.2839    0.3303 N   0  0  0  0  0  0  0  0  0  0  0  0
    0.0490   -1.0750    0.6539 C   0  0  2  0  0  0  0  0  0  0  0  0
   -0.3421   -2.5436    0.5162 C   0  0  0  0  0  0  0  0  0  0  0  0
   -1.3724   -3.0108    0.9971 O   0  0  0  0  0  0  0  0  0  0  0  0
    0.6075   -0.7680    2.0511 C   0  0  2  0  0  0  0  0  0  0  0  0
   -0.3644   -1.0512    3.0566 O   0  0  0  0  0  0  0  0  0  0  0  0
    1.0192    0.6917    2.1994 C   0  0  0  0  0  0  0  0  0  0  0  0
   -1.6733   -0.5660   -0.4691 H   0  0  0  0  0  0  0  0  0  0  0  0
    0.8033   -0.8462   -0.1088 H   0  0  0  0  0  0  0  0  0  0  0  0
    1.4814   -1.3967    2.2576 H   0  0  0  0  0  0  0  0  0  0  0  0
    0.0659   -0.8848    3.9090 H   0  0  0  0  0  0  0  0  0  0  0  0
    0.1790    1.3664    2.0029 H   0  0  0  0  0  0  0  0  0  0  0  0
    1.8411    0.9439    1.5226 H   0  0  0  0  0  0  0  0  0  0  0  0
    1.3423    0.8910    3.2271 H   0  0  0  0  0  0  0  0  0  0  0  0
    0.6183   -3.2793   -0.1637 N   0  0  0  0  0  0  0  0  0  0  0  0
    0.4913   -4.6994   -0.3925 C   0  0  2  0  0  0  0  0  0  0  0  0
   -0.4699   -4.9042   -1.5560 C   0  0  0  0  0  0  0  0  0  0  0  0
   -1.3022   -4.0652   -1.8941 O   0  0  0  0  0  0  0  0  0  0  0  0
   -0.0022   -5.4187    0.8532 C   0  0  0  0  0  0  0  0  0  0  0  0
    1.4427   -2.8002   -0.5140 H   0  0  0  0  0  0  0  0  0  0  0  0
    1.4857   -5.0651   -0.6708 H   0  0  0  0  0  0  0  0  0  0  0  0
   -0.9973   -5.0655    1.1474 H   0  0  0  0  0  0  0  0  0  0  0  0
   -0.0707   -6.4988    0.6868 H   0  0  0  0  0  0  0  0  0  0  0  0
    0.6747   -5.2458    1.6969 H   0  0  0  0  0  0  0  0  0  0  0  0
   -0.3180   -6.1517   -2.1450 N   0  0  0  0  0  0  0  0  0  0  0  0
   -1.1230   -6.5900   -3.2612 C   0  0  0  0  0  0  0  0  0  0  0  0
    0.4104   -6.7763   -1.8118 H   0  0  0  0  0  0  0  0  0  0  0  0
   -2.0015   -7.1368   -2.8881 H   0  0  0  0  0  0  0  0  0  0  0  0
   -1.4544   -5.7152   -3.8400 H   0  0  0  0  0  0  0  0  0  0  0  0
   -0.5261   -7.2517   -3.9061 H   0  0  0  0  0  0  0  0  0  0  0  0
  1  3  1  0  0  0  0
  1  7  1  0  0  0  0
  1  2  2  0  0  0  0
 32 33  1  0  0  0  0
 33 41  1  0  0  0  0
 33 34  2  0  0  0  0
  8  9  1  0  0  0  0
  9 17  1  0  0  0  0
  9 10  2  0  0  0  0
 18 19  1  0  0  0  0
 19 31  1  0  0  0  0
 19 20  2  0  0  0  0
 32 35  1  0  0  0  0
  8 11  1  0  0  0  0
 21 23  1  0  0  0  0
 41 42  1  0  0  0  0
 31 32  1  0  0  0  0
  7  8  1  0  0  0  0
 18 21  1  0  0  0  0
 17 18  1  0  0  0  0
 21 22  1  0  0  0  0
  3  4  1  0  0  0  0
  3  5  1  0  0  0  0
  3  6  1  0  0  0  0
 35 38  1  0  0  0  0
 35 39  1  0  0  0  0
 35 40  1  0  0  0  0
 11 14  1  0  0  0  0
 11 15  1  0  0  0  0
 11 16  1  0  0  0  0
 23 28  1  0  0  0  0
 23 29  1  0  0  0  0
 23 30  1  0  0  0  0
 42 44  1  0  0  0  0
 42 45  1  0  0  0  0
 42 46  1  0  0  0  0
 32 37  1  0  0  0  0
  8 13  1  0  0  0  0
 18 25  1  0  0  0  0
 21 26  1  0  0  0  0
 41 43  1  0  0  0  0
  7 12  1  0  0  0  0
 31 36  1  0  0  0  0
 17 24  1  0  0  0  0
 22 27  1  0  0  0  0
M  END
$$$$

  -OEChem-05262214473D

 46 45  0     1  0  0  0  0  0999 V2000
   -4.6700    2.7214    1.5150 C   0  0  0  0  0  0  0  0  0  0  0  0
   -5.4532    2.5715    0.5845 O   0  0  0  0  0  0  0  0  0  0  0  0
   -5.0996    3.4865    2.7226 C   0  0  0  0  0  0  0  0  0  0  0  0
   -4.8796    4.5629    2.6387 H   0  0  0  0  0  0  0  0  0  0  0  0
   -6.1861    3.4241    2.8954 H   0  0  0  0  0  0  0  0  0  0  0  0
   -4.6369    3.1693    3.6708 H   0  0  0  0  0  0  0  0  0  0  0  0
   -3.3731    2.2391    1.5790 N   0  0  0  0  0  0  0  0  0  0  0  0
   -2.7599    1.4751    0.5247 C   0  0  2  0  0  0  0  0  0  0  0  0
   -1.5143    0.8067    1.0915 C   0  0  0  0  0  0  0  0  0  0  0  0
   -0.9247    1.2213    2.0872 O   0  0  0  0  0  0  0  0  0  0  0  0
   -2.4106    2.3553   -0.6653 C   0  0  0  0  0  0  0  0  0  0  0  0
   -2.8254    2.4352    2.4150 H   0  0  0  0  0  0  0  0  0  0  0  0
   -3.4836    0.7082    0.2278 H   0  0  0  0  0  0  0  0  0  0  0  0
   -1.6866    3.1298   -0.3871 H   0  0  0  0  0  0  0  0  0  0  0  0
   -1.9704    1.7677   -1.4777 H   0  0  0  0  0  0  0  0  0  0  0  0
   -3.3030    2.8584   -1.0531 H   0  0  0  0  0  0  0  0  0  0  0  0
   -1.1107   -0.2839    0.3303 N   0  0  0  0  0  0  0  0  0  0  0  0
    0.0490   -1.0750    0.6539 C   0  0  2  0  0  0  0  0  0  0  0  0
   -0.3421   -2.5436    0.5162 C   0  0  0  0  0  0  0  0  0  0  0  0
   -1.4739   -2.9608    0.7530 O   0  0  0  0  0  0  0  0  0  0  0  0
    0.6075   -0.7680    2.0511 C   0  0  2  0  0  0  0  0  0  0  0  0
   -0.3644   -1.0512    3.0566 O   0  0  0  0  0  0  0  0  0  0  0  0
    1.0192    0.6917    2.1994 C   0  0  0  0  0  0  0  0  0  0  0  0
   -1.6733   -0.5660   -0.4691 H   0  0  0  0  0  0  0  0  0  0  0  0
    0.8033   -0.8462   -0.1088 H   0  0  0  0  0  0  0  0  0  0  0  0
    1.4814   -1.3967    2.2576 H   0  0  0  0  0  0  0  0  0  0  0  0
    0.0659   -0.8848    3.9090 H   0  0  0  0  0  0  0  0  0  0  0  0
    0.1790    1.3664    2.0029 H   0  0  0  0  0  0  0  0  0  0  0  0
    1.8411    0.9439    1.5226 H   0  0  0  0  0  0  0  0  0  0  0  0
    1.3423    0.8910    3.2271 H   0  0  0  0  0  0  0  0  0  0  0  0
    0.7331   -3.3389    0.1459 N   0  0  0  0  0  0  0  0  0  0  0  0
    0.6219   -4.7694   -0.0169 C   0  0  2  0  0  0  0  0  0  0  0  0
   -0.0263   -5.0399   -1.3683 C   0  0  0  0  0  0  0  0  0  0  0  0
   -0.7215   -4.2140   -1.9562 O   0  0  0  0  0  0  0  0  0  0  0  0
   -0.1880   -5.3932    1.1090 C   0  0  0  0  0  0  0  0  0  0  0  0
    1.6335   -2.8976   -0.0169 H   0  0  0  0  0  0  0  0  0  0  0  0
    1.6421   -5.1683   -0.0142 H   0  0  0  0  0  0  0  0  0  0  0  0
   -1.2133   -5.0056    1.1222 H   0  0  0  0  0  0  0  0  0  0  0  0
   -0.2473   -6.4811    0.9995 H   0  0  0  0  0  0  0  0  0  0  0  0
    0.2633   -5.1724    2.0823 H   0  0  0  0  0  0  0  0  0  0  0  0
    0.2273   -6.3273   -1.8204 N   0  0  0  0  0  0  0  0  0  0  0  0
   -0.2888   -6.8299   -3.0723 C   0  0  0  0  0  0  0  0  0  0  0  0
    0.8300   -6.9382   -1.2769 H   0  0  0  0  0  0  0  0  0  0  0  0
   -1.2493   -7.3363   -2.8966 H   0  0  0  0  0  0  0  0  0  0  0  0
   -0.4381   -5.9925   -3.7697 H   0  0  0  0  0  0  0  0  0  0  0  0
    0.4282   -7.5435   -3.5043 H   0  0  0  0  0  0  0  0  0  0  0  0
  1  3  1  0  0  0  0
  1  7  1  0  0  0  0
  1  2  2  0  0  0  0
 32 33  1  0  0  0  0
 33 41  1  0  0  0  0
 33 34  2  0  0  0  0
  8  9  1  0  0  0  0
  9 17  1  0  0  0  0
  9 10  2  0  0  0  0
 18 19  1  0  0  0  0
 19 31  1  0  0  0  0
 19 20  2  0  0  0  0
 32 35  1  0  0  0  0
  8 11  1  0  0  0  0
 21 23  1  0  0  0  0
 41 42  1  0  0  0  0
 31 32  1  0  0  0  0
  7  8  1  0  0  0  0
 18 21  1  0  0  0  0
 17 18  1  0  0  0  0
 21 22  1  0  0  0  0
  3  4  1  0  0  0  0
  3  5  1  0  0  0  0
  3  6  1  0  0  0  0
 35 38  1  0  0  0  0
 35 39  1  0  0  0  0
 35 40  1  0  0  0  0
 11 14  1  0  0  0  0
 11 15  1  0  0  0  0
 11 16  1  0  0  0  0
 23 28  1  0  0  0  0
 23 29  1  0  0  0  0
 23 30  1  0  0  0  0
 42 44  1  0  0  0  0
 42 45  1  0  0  0  0
 42 46  1  0  0  0  0
 32 37  1  0  0  0  0
  8 13  1  0  0  0  0
 18 25  1  0  0  0  0
 21 26  1  0  0  0  0
 41 43  1  0  0  0  0
  7 12  1  0  0  0  0
 31 36  1  0  0  0  0
 17 24  1  0  0  0  0
 22 27  1  0  0  0  0
M  END
$$$$

  -OEChem-05262214473D

 46 45  0     1  0  0  0  0  0999 V2000
   -4.6700    2.7214    1.5150 C   0  0  0  0  0  0  0  0  0  0  0  0
   -5.4532    2.5715    0.5845 O   0  0  0  0  0  0  0  0  0  0  0  0
   -5.0996    3.4865    2.7226 C   0  0  0  0  0  0  0  0  0  0  0  0
   -4.8796    4.5629    2.6387 H   0  0  0  0  0  0  0  0  0  0  0  0
   -6.1861    3.4241    2.8954 H   0  0  0  0  0  0  0  0  0  0  0  0
   -4.6369    3.1693    3.6708 H   0  0  0  0  0  0  0  0  0  0  0  0
   -3.3731    2.2391    1.5790 N   0  0  0  0  0  0  0  0  0  0  0  0
   -2.7599    1.4751    0.5247 C   0  0  2  0  0  0  0  0  0  0  0  0
   -1.5143    0.8067    1.0915 C   0  0  0  0  0  0  0  0  0  0  0  0
   -0.9247    1.2213    2.0872 O   0  0  0  0  0  0  0  0  0  0  0  0
   -2.4106    2.3553   -0.6653 C   0  0  0  0  0  0  0  0  0  0  0  0
   -2.8254    2.4352    2.4150 H   0  0  0  0  0  0  0  0  0  0  0  0
   -3.4836    0.7082    0.2278 H   0  0  0  0  0  0  0  0  0  0  0  0
   -1.6866    3.1298   -0.3871 H   0  0  0  0  0  0  0  0  0  0  0  0
   -1.9704    1.7677   -1.4777 H   0  0  0  0  0  0  0  0  0  0  0  0
   -3.3030    2.8584   -1.0531 H   0  0  0  0  0  0  0  0  0  0  0  0
   -1.1107   -0.2839    0.3303 N   0  0  0  0  0  0  0  0  0  0  0  0
    0.0490   -1.0750    0.6539 C   0  0  2  0  0  0  0  0  0  0  0  0
   -0.3421   -2.5436    0.5162 C   0  0  0  0  0  0  0  0  0  0  0  0
   -1.5099   -2.9265    0.4887 O   0  0  0  0  0  0  0  0  0  0  0  0
    0.6075   -0.7680    2.0511 C   0  0  2  0  0  0  0  0  0  0  0  0
   -0.3644   -1.0512    3.0566 O   0  0  0  0  0  0  0  0  0  0  0  0
    1.0192    0.6917    2.1994 C   0  0  0  0  0  0  0  0  0  0  0  0
   -1.6733   -0.5660   -0.4691 H   0  0  0  0  0  0  0  0  0  0  0  0
    0.8033   -0.8462   -0.1088 H   0  0  0  0  0  0  0  0  0  0  0  0
    1.4814   -1.3967    2.2576 H   0  0  0  0  0  0  0  0  0  0  0  0
    0.0659   -0.8848    3.9090 H   0  0  0  0  0  0  0  0  0  0  0  0
    0.1790    1.3664    2.0029 H   0  0  0  0  0  0  0  0  0  0  0  0
    1.8411    0.9439    1.5226 H   0  0  0  0  0  0  0  0  0  0  0  0
    1.3423    0.8910    3.2271 H   0  0  0  0  0  0  0  0  0  0  0  0
    0.7656   -3.3786    0.4775 N   0  0  0  0  0  0  0  0  0  0  0  0
    0.6528   -4.8152    0.3830 C   0  0  2  0  0  0  0  0  0  0  0  0
    0.3522   -5.1690   -1.0675 C   0  0  0  0  0  0  0  0  0  0  0  0
   -0.1486   -4.3754   -1.8616 O   0  0  0  0  0  0  0  0  0  0  0  0
   -0.4307   -5.3472    1.3080 C   0  0  0  0  0  0  0  0  0  0  0  0
    1.6917   -2.9632    0.5171 H   0  0  0  0  0  0  0  0  0  0  0  0
    1.6273   -5.2282    0.6658 H   0  0  0  0  0  0  0  0  0  0  0  0
   -1.4142   -4.9444    1.0401 H   0  0  0  0  0  0  0  0  0  0  0  0
   -0.4954   -6.4391    1.2564 H   0  0  0  0  0  0  0  0  0  0  0  0
   -0.2284   -5.0664    2.3472 H   0  0  0  0  0  0  0  0  0  0  0  0
    0.6692   -6.4882   -1.3594 N   0  0  0  0  0  0  0  0  0  0  0  0
    0.4644   -7.0685   -2.6660 C   0  0  0  0  0  0  0  0  0  0  0  0
    1.0983   -7.0689   -0.6449 H   0  0  0  0  0  0  0  0  0  0  0  0
   -0.5253   -7.5471   -2.7042 H   0  0  0  0  0  0  0  0  0  0  0  0
    0.5196   -6.2793   -3.4303 H   0  0  0  0  0  0  0  0  0  0  0  0
    1.2431   -7.8210   -2.8591 H   0  0  0  0  0  0  0  0  0  0  0  0
  1  3  1  0  0  0  0
  1  7  1  0  0  0  0
  1  2  2  0  0  0  0
 32 33  1  0  0  0  0
 33 41  1  0  0  0  0
 33 34  2  0  0  0  0
  8  9  1  0  0  0  0
  9 17  1  0  0  0  0
  9 10  2  0  0  0  0
 18 19  1  0  0  0  0
 19 31  1  0  0  0  0
 19 20  2  0  0  0  0
 32 35  1  0  0  0  0
  8 11  1  0  0  0  0
 21 23  1  0  0  0  0
 41 42  1  0  0  0  0
 31 32  1  0  0  0  0
  7  8  1  0  0  0  0
 18 21  1  0  0  0  0
 17 18  1  0  0  0  0
 21 22  1  0  0  0  0
  3  4  1  0  0  0  0
  3  5  1  0  0  0  0
  3  6  1  0  0  0  0
 35 38  1  0  0  0  0
 35 39  1  0  0  0  0
 35 40  1  0  0  0  0
 11 14  1  0  0  0  0
 11 15  1  0  0  0  0
 11 16  1  0  0  0  0
 23 28  1  0  0  0  0
 23 29  1  0  0  0  0
 23 30  1  0  0  0  0
 42 44  1  0  0  0  0
 42 45  1  0  0  0  0
 42 46  1  0  0  0  0
 32 37  1  0  0  0  0
  8 13  1  0  0  0  0
 18 25  1  0  0  0  0
 21 26  1  0  0  0  0
 41 43  1  0  0  0  0
  7 12  1  0  0  0  0
 31 36  1  0  0  0  0
 17 24  1  0  0  0  0
 22 27  1  0  0  0  0
M  END
$$$$

  -OEChem-05262214473D

 46 45  0     1  0  0  0  0  0999 V2000
   -4.6700    2.7214    1.5150 C   0  0  0  0  0  0  0  0  0  0  0  0
   -5.4532    2.5715    0.5845 O   0  0  0  0  0  0  0  0  0  0  0  0
   -5.0996    3.4865    2.7226 C   0  0  0  0  0  0  0  0  0  0  0  0
   -4.8796    4.5629    2.6387 H   0  0  0  0  0  0  0  0  0  0  0  0
   -6.1861    3.4241    2.8954 H   0  0  0  0  0  0  0  0  0  0  0  0
   -4.6369    3.1693    3.6708 H   0  0  0  0  0  0  0  0  0  0  0  0
   -3.3731    2.2391    1.5790 N   0  0  0  0  0  0  0  0  0  0  0  0
   -2.7599    1.4751    0.5247 C   0  0  2  0  0  0  0  0  0  0  0  0
   -1.5143    0.8067    1.0915 C   0  0  0  0  0  0  0  0  0  0  0  0
   -0.9247    1.2213    2.0872 O   0  0  0  0  0  0  0  0  0  0  0  0
   -2.4106    2.3553   -0.6653 C   0  0  0  0  0  0  0  0  0  0  0  0
   -2.8254    2.4352    2.4150 H   0  0  0  0  0  0  0  0  0  0  0  0
   -3.4836    0.7082    0.2278 H   0  0  0  0  0  0  0  0  0  0  0  0
   -1.6866    3.1298   -0.3871 H   0  0  0  0  0  0  0  0  0  0  0  0
   -1.9704    1.7677   -1.4777 H   0  0  0  0  0  0  0  0  0  0  0  0
   -3.3030    2.8584   -1.0531 H   0  0  0  0  0  0  0  0  0  0  0  0
   -1.1107   -0.2839    0.3303 N   0  0  0  0  0  0  0  0  0  0  0  0
    0.0490   -1.0750    0.6539 C   0  0  2  0  0  0  0  0  0  0  0  0
   -0.2112   -2.4962    0.1628 C   0  0  0  0  0  0  0  0  0  0  0  0
   -1.2668   -2.8402   -0.3650 O   0  0  0  0  0  0  0  0  0  0  0  0
    0.3883   -1.0482    2.1513 C   0  0  2  0  0  0  0  0  0  0  0  0
   -0.6878   -1.5803    2.9224 O   0  0  0  0  0  0  0  0  0  0  0  0
    0.6681    0.3629    2.6539 C   0  0  0  0  0  0  0  0  0  0  0  0
   -1.6733   -0.5660   -0.4691 H   0  0  0  0  0  0  0  0  0  0  0  0
    0.8812   -0.6570    0.0745 H   0  0  0  0  0  0  0  0  0  0  0  0
    1.2697   -1.6682    2.3524 H   0  0  0  0  0  0  0  0  0  0  0  0
   -0.3908   -1.5805    3.8450 H   0  0  0  0  0  0  0  0  0  0  0  0
   -0.1847    1.0272    2.4769 H   0  0  0  0  0  0  0  0  0  0  0  0
    1.5537    0.7884    2.1724 H   0  0  0  0  0  0  0  0  0  0  0  0
    0.8331    0.3530    3.7370 H   0  0  0  0  0  0  0  0  0  0  0  0
    0.8543   -3.3448    0.4282 N   0  0  0  0  0  0  0  0  0  0  0  0
    0.8336   -4.7480    0.0877 C   0  0  2  0  0  0  0  0  0  0  0  0
    1.1214   -4.8746   -1.4025 C   0  0  0  0  0  0  0  0  0  0  0  0
    0.9357   -3.9593   -2.2017 O   0  0  0  0  0  0  0  0  0  0  0  0
   -0.5027   -5.3831    0.4392 C   0  0  0  0  0  0  0  0  0  0  0  0
    1.6808   -2.9641    0.8795 H   0  0  0  0  0  0  0  0  0  0  0  0
    1.6393   -5.2236    0.6575 H   0  0  0  0  0  0  0  0  0  0  0  0
   -1.3222   -4.9195   -0.1221 H   0  0  0  0  0  0  0  0  0  0  0  0
   -0.5068   -6.4531    0.2068 H   0  0  0  0  0  0  0  0  0  0  0  0
   -0.7219   -5.2649    1.5058 H   0  0  0  0  0  0  0  0  0  0  0  0
    1.5691   -6.1438   -1.7415 N   0  0  0  0  0  0  0  0  0  0  0  0
    1.8979   -6.5182   -3.0972 C   0  0  0  0  0  0  0  0  0  0  0  0
    1.7119   -6.8350   -1.0111 H   0  0  0  0  0  0  0  0  0  0  0  0
    1.0141   -6.9599   -3.5807 H   0  0  0  0  0  0  0  0  0  0  0  0
    2.2146   -5.6260   -3.6573 H   0  0  0  0  0  0  0  0  0  0  0  0
    2.7158   -7.2537   -3.0862 H   0  0  0  0  0  0  0  0  0  0  0  0
  1  3  1  0  0  0  0
  1  7  1  0  0  0  0
  1  2  2  0  0  0  0
 32 33  1  0  0  0  0
 33 41  1  0  0  0  0
 33 34  2  0  0  0  0
  8  9  1  0  0  0  0
  9 17  1  0  0  0  0
  9 10  2  0  0  0  0
 18 19  1  0  0  0  0
 19 31  1  0  0  0  0
 19 20  2  0  0  0  0
 32 35  1  0  0  0  0
  8 11  1  0  0  0  0
 21 23  1  0  0  0  0
 41 42  1  0  0  0  0
 31 32  1  0  0  0  0
  7  8  1  0  0  0  0
 18 21  1  0  0  0  0
 17 18  1  0  0  0  0
 21 22  1  0  0  0  0
  3  4  1  0  0  0  0
  3  5  1  0  0  0  0
  3  6  1  0  0  0  0
 35 38  1  0  0  0  0
 35 39  1  0  0  0  0
 35 40  1  0  0  0  0
 11 14  1  0  0  0  0
 11 15  1  0  0  0  0
 11 16  1  0  0  0  0
 23 28  1  0  0  0  0
 23 29  1  0  0  0  0
 23 30  1  0  0  0  0
 42 44  1  0  0  0  0
 42 45  1  0  0  0  0
 42 46  1  0  0  0  0
 32 37  1  0  0  0  0
  8 13  1  0  0  0  0
 18 25  1  0  0  0  0
 21 26  1  0  0  0  0
 41 43  1  0  0  0  0
  7 12  1  0  0  0  0
 31 36  1  0  0  0  0
 17 24  1  0  0  0  0
 22 27  1  0  0  0  0
M  END
$$$$

  -OEChem-05262214473D

 46 45  0     1  0  0  0  0  0999 V2000
   -4.6700    2.7214    1.5150 C   0  0  0  0  0  0  0  0  0  0  0  0
   -5.4532    2.5715    0.5845 O   0  0  0  0  0  0  0  0  0  0  0  0
   -5.0996    3.4865    2.7226 C   0  0  0  0  0  0  0  0  0  0  0  0
   -4.8796    4.5629    2.6387 H   0  0  0  0  0  0  0  0  0  0  0  0
   -6.1861    3.4241    2.8954 H   0  0  0  0  0  0  0  0  0  0  0  0
   -4.6369    3.1693    3.6708 H   0  0  0  0  0  0  0  0  0  0  0  0
   -3.3731    2.2391    1.5790 N   0  0  0  0  0  0  0  0  0  0  0  0
   -2.7599    1.4751    0.5247 C   0  0  2  0  0  0  0  0  0  0  0  0
   -1.5143    0.8067    1.0915 C   0  0  0  0  0  0  0  0  0  0  0  0
   -0.9247    1.2213    2.0872 O   0  0  0  0  0  0  0  0  0  0  0  0
   -2.4106    2.3553   -0.6653 C   0  0  0  0  0  0  0  0  0  0  0  0
   -2.8254    2.4352    2.4150 H   0  0  0  0  0  0  0  0  0  0  0  0
   -3.4836    0.7082    0.2278 H   0  0  0  0  0  0  0  0  0  0  0  0
   -1.6866    3.1298   -0.3871 H   0  0  0  0  0  0  0  0  0  0  0  0
   -1.9704    1.7677   -1.4777 H   0  0  0  0  0  0  0  0  0  0  0  0
   -3.3030    2.8584   -1.0531 H   0  0  0  0  0  0  0  0  0  0  0  0
   -1.1107   -0.2839    0.3303 N   0  0  0  0  0  0  0  0  0  0  0  0
    0.0490   -1.0750    0.6539 C   0  0  2  0  0  0  0  0  0  0  0  0
   -0.2112   -2.4962    0.1628 C   0  0  0  0  0  0  0  0  0  0  0  0
   -1.1361   -2.7852   -0.5936 O   0  0  0  0  0  0  0  0  0  0  0  0
    0.3883   -1.0482    2.1513 C   0  0  2  0  0  0  0  0  0  0  0  0
   -0.6878   -1.5803    2.9224 O   0  0  0  0  0  0  0  0  0  0  0  0
    0.6681    0.3629    2.6539 C   0  0  0  0  0  0  0  0  0  0  0  0
   -1.6733   -0.5660   -0.4691 H   0  0  0  0  0  0  0  0  0  0  0  0
    0.8812   -0.6570    0.0745 H   0  0  0  0  0  0  0  0  0  0  0  0
    1.2697   -1.6682    2.3524 H   0  0  0  0  0  0  0  0  0  0  0  0
   -0.3908   -1.5805    3.8450 H   0  0  0  0  0  0  0  0  0  0  0  0
   -0.1847    1.0272    2.4769 H   0  0  0  0  0  0  0  0  0  0  0  0
    1.5537    0.7884    2.1724 H   0  0  0  0  0  0  0  0  0  0  0  0
    0.8331    0.3530    3.7370 H   0  0  0  0  0  0  0  0  0  0  0  0
    0.6803   -3.4095    0.7077 N   0  0  0  0  0  0  0  0  0  0  0  0
    0.6173   -4.8233    0.4202 C   0  0  2  0  0  0  0  0  0  0  0  0
    1.2407   -5.0527   -0.9503 C   0  0  0  0  0  0  0  0  0  0  0  0
    1.3335   -4.1704   -1.8012 O   0  0  0  0  0  0  0  0  0  0  0  0
   -0.8152   -5.3323    0.4578 C   0  0  0  0  0  0  0  0  0  0  0  0
    1.4053   -3.0704    1.3331 H   0  0  0  0  0  0  0  0  0  0  0  0
    1.2179   -5.3285    1.1845 H   0  0  0  0  0  0  0  0  0  0  0  0
   -1.4323   -4.8375   -0.3011 H   0  0  0  0  0  0  0  0  0  0  0  0
   -0.8586   -6.4098    0.2678 H   0  0  0  0  0  0  0  0  0  0  0  0
   -1.2718   -5.1396    1.4347 H   0  0  0  0  0  0  0  0  0  0  0  0
    1.6421   -6.3694   -1.1272 N   0  0  0  0  0  0  0  0  0  0  0  0
    2.2511   -6.8414   -2.3489 C   0  0  0  0  0  0  0  0  0  0  0  0
    1.5441   -7.0289   -0.3609 H   0  0  0  0  0  0  0  0  0  0  0  0
    1.4730   -7.2386   -3.0173 H   0  0  0  0  0  0  0  0  0  0  0  0
    2.7704   -6.0083   -2.8452 H   0  0  0  0  0  0  0  0  0  0  0  0
    2.9740   -7.6367   -2.1146 H   0  0  0  0  0  0  0  0  0  0  0  0
  1  3  1  0  0  0  0
  1  7  1  0  0  0  0
  1  2  2  0  0  0  0
 32 33  1  0  0  0  0
 33 41  1  0  0  0  0
 33 34  2  0  0  0  0
  8  9  1  0  0  0  0
  9 17  1  0  0  0  0
  9 10  2  0  0  0  0
 18 19  1  0  0  0  0
 19 31  1  0  0  0  0
 19 20  2  0  0  0  0
 32 35  1  0  0  0  0
  8 11  1  0  0  0  0
 21 23  1  0  0  0  0
 41 42  1  0  0  0  0
 31 32  1  0  0  0  0
  7  8  1  0  0  0  0
 18 21  1  0  0  0  0
 17 18  1  0  0  0  0
 21 22  1  0  0  0  0
  3  4  1  0  0  0  0
  3  5  1  0  0  0  0
  3  6  1  0  0  0  0
 35 38  1  0  0  0  0
 35 39  1  0  0  0  0
 35 40  1  0  0  0  0
 11 14  1  0  0  0  0
 11 15  1  0  0  0  0
 11 16  1  0  0  0  0
 23 28  1  0  0  0  0
 23 29  1  0  0  0  0
 23 30  1  0  0  0  0
 42 44  1  0  0  0  0
 42 45  1  0  0  0  0
 42 46  1  0  0  0  0
 32 37  1  0  0  0  0
  8 13  1  0  0  0  0
 18 25  1  0  0  0  0
 21 26  1  0  0  0  0
 41 43  1  0  0  0  0
  7 12  1  0  0  0  0
 31 36  1  0  0  0  0
 17 24  1  0  0  0  0
 22 27  1  0  0  0  0
M  END
$$$$

  -OEChem-05262214473D

 46 45  0     1  0  0  0  0  0999 V2000
   -4.6700    2.7214    1.5150 C   0  0  0  0  0  0  0  0  0  0  0  0
   -5.4532    2.5715    0.5845 O   0  0  0  0  0  0  0  0  0  0  0  0
   -5.0996    3.4865    2.7226 C   0  0  0  0  0  0  0  0  0  0  0  0
   -4.8796    4.5629    2.6387 H   0  0  0  0  0  0  0  0  0  0  0  0
   -6.1861    3.4241    2.8954 H   0  0  0  0  0  0  0  0  0  0  0  0
   -4.6369    3.1693    3.6708 H   0  0  0  0  0  0  0  0  0  0  0  0
   -3.3731    2.2391    1.5790 N   0  0  0  0  0  0  0  0  0  0  0  0
   -2.7599    1.4751    0.5247 C   0  0  2  0  0  0  0  0  0  0  0  0
   -1.5143    0.8067    1.0915 C   0  0  0  0  0  0  0  0  0  0  0  0
   -0.9247    1.2213    2.0872 O   0  0  0  0  0  0  0  0  0  0  0  0
   -2.4106    2.3553   -0.6653 C   0  0  0  0  0  0  0  0  0  0  0  0
   -2.8254    2.4352    2.4150 H   0  0  0  0  0  0  0  0  0  0  0  0
   -3.4836    0.7082    0.2278 H   0  0  0  0  0  0  0  0  0  0  0  0
   -1.6866    3.1298   -0.3871 H   0  0  0  0  0  0  0  0  0  0  0  0
   -1.9704    1.7677   -1.4777 H   0  0  0  0  0  0  0  0  0  0  0  0
   -3.3030    2.8584   -1.0531 H   0  0  0  0  0  0  0  0  0  0  0  0
   -1.1107   -0.2839    0.3303 N   0  0  0  0  0  0  0  0  0  0  0  0
    0.0490   -1.0750    0.6539 C   0  0  2  0  0  0  0  0  0  0  0  0
   -0.2112   -2.4962    0.1628 C   0  0  0  0  0  0  0  0  0  0  0  0
   -0.9502   -2.7529   -0.7854 O   0  0  0  0  0  0  0  0  0  0  0  0
    0.3883   -1.0482    2.1513 C   0  0  2  0  0  0  0  0  0  0  0  0
   -0.6878   -1.5803    2.9224 O   0  0  0  0  0  0  0  0  0  0  0  0
    0.6681    0.3629    2.6539 C   0  0  0  0  0  0  0  0  0  0  0  0
   -1.6733   -0.5660   -0.4691 H   0  0  0  0  0  0  0  0  0  0  0  0
    0.8812   -0.6570    0.0745 H   0  0  0  0  0  0  0  0  0  0  0  0
    1.2697   -1.6682    2.3524 H   0  0  0  0  0  0  0  0  0  0  0  0
   -0.3908   -1.5805    3.8450 H   0  0  0  0  0  0  0  0  0  0  0  0
   -0.1847    1.0272    2.4769 H   0  0  0  0  0  0  0  0  0  0  0  0
    1.5537    0.7884    2.1724 H   0  0  0  0  0  0  0  0  0  0  0  0
    0.8331    0.3530    3.7370 H   0  0  0  0  0  0  0  0  0  0  0  0
    0.4394   -3.4452    0.9386 N   0  0  0  0  0  0  0  0  0  0  0  0
    0.3219   -4.8633    0.6925 C   0  0  2  0  0  0  0  0  0  0  0  0
    1.2321   -5.2147   -0.4769 C   0  0  0  0  0  0  0  0  0  0  0  0
    1.6036   -4.3899   -1.3092 O   0  0  0  0  0  0  0  0  0  0  0  0
   -1.1174   -5.2564    0.3982 C   0  0  0  0  0  0  0  0  0  0  0  0
    1.0210   -3.1301    1.7095 H   0  0  0  0  0  0  0  0  0  0  0  0
    0.6750   -5.3715    1.5964 H   0  0  0  0  0  0  0  0  0  0  0  0
   -1.4886   -4.7570   -0.5041 H   0  0  0  0  0  0  0  0  0  0  0  0
   -1.2094   -6.3360    0.2401 H   0  0  0  0  0  0  0  0  0  0  0  0
   -1.7754   -4.9760    1.2278 H   0  0  0  0  0  0  0  0  0  0  0  0
    1.5458   -6.5663   -0.5062 N   0  0  0  0  0  0  0  0  0  0  0  0
    2.3849   -7.1500   -1.5266 C   0  0  0  0  0  0  0  0  0  0  0  0
    1.2093   -7.1736    0.2352 H   0  0  0  0  0  0  0  0  0  0  0  0
    1.7573   -7.5211   -2.3502 H   0  0  0  0  0  0  0  0  0  0  0  0
    3.0797   -6.3881   -1.9099 H   0  0  0  0  0  0  0  0  0  0  0  0
    2.9574   -7.9853   -1.0969 H   0  0  0  0  0  0  0  0  0  0  0  0
  1  3  1  0  0  0  0
  1  7  1  0  0  0  0
  1  2  2  0  0  0  0
 32 33  1  0  0  0  0
 33 41  1  0  0  0  0
 33 34  2  0  0  0  0
  8  9  1  0  0  0  0
  9 17  1  0  0  0  0
  9 10  2  0  0  0  0
 18 19  1  0  0  0  0
 19 31  1  0  0  0  0
 19 20  2  0  0  0  0
 32 35  1  0  0  0  0
  8 11  1  0  0  0  0
 21 23  1  0  0  0  0
 41 42  1  0  0  0  0
 31 32  1  0  0  0  0
  7  8  1  0  0  0  0
 18 21  1  0  0  0  0
 17 18  1  0  0  0  0
 21 22  1  0  0  0  0
  3  4  1  0  0  0  0
  3  5  1  0  0  0  0
  3  6  1  0  0  0  0
 35 38  1  0  0  0  0
 35 39  1  0  0  0  0
 35 40  1  0  0  0  0
 11 14  1  0  0  0  0
 11 15  1  0  0  0  0
 11 16  1  0  0  0  0
 23 28  1  0  0  0  0
 23 29  1  0  0  0  0
 23 30  1  0  0  0  0
 42 44  1  0  0  0  0
 42 45  1  0  0  0  0
 42 46  1  0  0  0  0
 32 37  1  0  0  0  0
  8 13  1  0  0  0  0
 18 25  1  0  0  0  0
 21 26  1  0  0  0  0
 41 43  1  0  0  0  0
  7 12  1  0  0  0  0
 31 36  1  0  0  0  0
 17 24  1  0  0  0  0
 22 27  1  0  0  0  0
M  END
$$$$

  -OEChem-05262214473D

 46 45  0     1  0  0  0  0  0999 V2000
   -4.6700    2.7214    1.5150 C   0  0  0  0  0  0  0  0  0  0  0  0
   -5.4532    2.5715    0.5845 O   0  0  0  0  0  0  0  0  0  0  0  0
   -5.0996    3.4865    2.7226 C   0  0  0  0  0  0  0  0  0  0  0  0
   -4.8796    4.5629    2.6387 H   0  0  0  0  0  0  0  0  0  0  0  0
   -6.1861    3.4241    2.8954 H   0  0  0  0  0  0  0  0  0  0  0  0
   -4.6369    3.1693    3.6708 H   0  0  0  0  0  0  0  0  0  0  0  0
   -3.3731    2.2391    1.5790 N   0  0  0  0  0  0  0  0  0  0  0  0
   -2.7599    1.4751    0.5247 C   0  0  2  0  0  0  0  0  0  0  0  0
   -1.5143    0.8067    1.0915 C   0  0  0  0  0  0  0  0  0  0  0  0
   -0.9247    1.2213    2.0872 O   0  0  0  0  0  0  0  0  0  0  0  0
   -2.4106    2.3553   -0.6653 C   0  0  0  0  0  0  0  0  0  0  0  0
   -2.8254    2.4352    2.4150 H   0  0  0  0  0  0  0  0  0  0  0  0
   -3.4836    0.7082    0.2278 H   0  0  0  0  0  0  0  0  0  0  0  0
   -1.6866    3.1298   -0.3871 H   0  0  0  0  0  0  0  0  0  0  0  0
   -1.9704    1.7677   -1.4777 H   0  0  0  0  0  0  0  0  0  0  0  0
   -3.3030    2.8584   -1.0531 H   0  0  0  0  0  0  0  0  0  0  0  0
   -1.1107   -0.2839    0.3303 N   0  0  0  0  0  0  0  0  0  0  0  0
    0.0490   -1.0750    0.6539 C   0  0  2  0  0  0  0  0  0  0  0  0
   -0.2112   -2.4962    0.1628 C   0  0  0  0  0  0  0  0  0  0  0  0
   -0.7217   -2.7457   -0.9273 O   0  0  0  0  0  0  0  0  0  0  0  0
    0.3883   -1.0482    2.1513 C   0  0  2  0  0  0  0  0  0  0  0  0
   -0.6878   -1.5803    2.9224 O   0  0  0  0  0  0  0  0  0  0  0  0
    0.6681    0.3629    2.6539 C   0  0  0  0  0  0  0  0  0  0  0  0
   -1.6733   -0.5660   -0.4691 H   0  0  0  0  0  0  0  0  0  0  0  0
    0.8812   -0.6570    0.0745 H   0  0  0  0  0  0  0  0  0  0  0  0
    1.2697   -1.6682    2.3524 H   0  0  0  0  0  0  0  0  0  0  0  0
   -0.3908   -1.5805    3.8450 H   0  0  0  0  0  0  0  0  0  0  0  0
   -0.1847    1.0272    2.4769 H   0  0  0  0  0  0  0  0  0  0  0  0
    1.5537    0.7884    2.1724 H   0  0  0  0  0  0  0  0  0  0  0  0
    0.8331    0.3530    3.7370 H   0  0  0  0  0  0  0  0  0  0  0  0
    0.1482   -3.4494    1.1051 N   0  0  0  0  0  0  0  0  0  0  0  0
   -0.0324   -4.8653    0.8861 C   0  0  2  0  0  0  0  0  0  0  0  0
    1.0963   -5.3496   -0.0146 C   0  0  0  0  0  0  0  0  0  0  0  0
    1.7277   -4.6027   -0.7592 O   0  0  0  0  0  0  0  0  0  0  0  0
   -1.3885   -5.1606    0.2645 C   0  0  0  0  0  0  0  0  0  0  0  0
    0.5541   -3.1391    1.9831 H   0  0  0  0  0  0  0  0  0  0  0  0
    0.0478   -5.3496    1.8654 H   0  0  0  0  0  0  0  0  0  0  0  0
   -1.4874   -4.6836   -0.7174 H   0  0  0  0  0  0  0  0  0  0  0  0
   -1.5354   -6.2367    0.1255 H   0  0  0  0  0  0  0  0  0  0  0  0
   -2.1983   -4.7851    0.8994 H   0  0  0  0  0  0  0  0  0  0  0  0
    1.2867   -6.7211    0.0790 N   0  0  0  0  0  0  0  0  0  0  0  0
    2.2903   -7.4230   -0.6866 C   0  0  0  0  0  0  0  0  0  0  0  0
    0.7301   -7.2592    0.7367 H   0  0  0  0  0  0  0  0  0  0  0  0
    1.8475   -7.7883   -1.6249 H   0  0  0  0  0  0  0  0  0  0  0  0
    3.1213   -6.7395   -0.9152 H   0  0  0  0  0  0  0  0  0  0  0  0
    2.6669   -8.2757   -0.1026 H   0  0  0  0  0  0  0  0  0  0  0  0
  1  3  1  0  0  0  0
  1  7  1  0  0  0  0
  1  2  2  0  0  0  0
 32 33  1  0  0  0  0
 33 41  1  0  0  0  0
 33 34  2  0  0  0  0
  8  9  1  0  0  0  0
  9 17  1  0  0  0  0
  9 10  2  0  0  0  0
 18 19  1  0  0  0  0
 19 31  1  0  0  0  0
 19 20  2  0  0  0  0
 32 35  1  0  0  0  0
  8 11  1  0  0  0  0
 21 23  1  0  0  0  0
 41 42  1  0  0  0  0
 31 32  1  0  0  0  0
  7  8  1  0  0  0  0
 18 21  1  0  0  0  0
 17 18  1  0  0  0  0
 21 22  1  0  0  0  0
  3  4  1  0  0  0  0
  3  5  1  0  0  0  0
  3  6  1  0  0  0  0
 35 38  1  0  0  0  0
 35 39  1  0  0  0  0
 35 40  1  0  0  0  0
 11 14  1  0  0  0  0
 11 15  1  0  0  0  0
 11 16  1  0  0  0  0
 23 28  1  0  0  0  0
 23 29  1  0  0  0  0
 23 30  1  0  0  0  0
 42 44  1  0  0  0  0
 42 45  1  0  0  0  0
 42 46  1  0  0  0  0
 32 37  1  0  0  0  0
  8 13  1  0  0  0  0
 18 25  1  0  0  0  0
 21 26  1  0  0  0  0
 41 43  1  0  0  0  0
  7 12  1  0  0  0  0
 31 36  1  0  0  0  0
 17 24  1  0  0  0  0
 22 27  1  0  0  0  0
M  END
$$$$

  -OEChem-05262214473D

 46 45  0     1  0  0  0  0  0999 V2000
   -4.6700    2.7214    1.5150 C   0  0  0  0  0  0  0  0  0  0  0  0
   -5.4532    2.5715    0.5845 O   0  0  0  0  0  0  0  0  0  0  0  0
   -5.0996    3.4865    2.7226 C   0  0  0  0  0  0  0  0  0  0  0  0
   -4.8796    4.5629    2.6387 H   0  0  0  0  0  0  0  0  0  0  0  0
   -6.1861    3.4241    2.8954 H   0  0  0  0  0  0  0  0  0  0  0  0
   -4.6369    3.1693    3.6708 H   0  0  0  0  0  0  0  0  0  0  0  0
   -3.3731    2.2391    1.5790 N   0  0  0  0  0  0  0  0  0  0  0  0
   -2.7599    1.4751    0.5247 C   0  0  2  0  0  0  0  0  0  0  0  0
   -1.5143    0.8067    1.0915 C   0  0  0  0  0  0  0  0  0  0  0  0
   -0.9247    1.2213    2.0872 O   0  0  0  0  0  0  0  0  0  0  0  0
   -2.4106    2.3553   -0.6653 C   0  0  0  0  0  0  0  0  0  0  0  0
   -2.8254    2.4352    2.4150 H   0  0  0  0  0  0  0  0  0  0  0  0
   -3.4836    0.7082    0.2278 H   0  0  0  0  0  0  0  0  0  0  0  0
   -1.6866    3.1298   -0.3871 H   0  0  0  0  0  0  0  0  0  0  0  0
   -1.9704    1.7677   -1.4777 H   0  0  0  0  0  0  0  0  0  0  0  0
   -3.3030    2.8584   -1.0531 H   0  0  0  0  0  0  0  0  0  0  0  0
   -1.1107   -0.2839    0.3303 N   0  0  0  0  0  0  0  0  0  0  0  0
    0.0490   -1.0750    0.6539 C   0  0  2  0  0  0  0  0  0  0  0  0
   -0.2112   -2.4962    0.1628 C   0  0  0  0  0  0  0  0  0  0  0  0
   -0.4663   -2.7641   -1.0095 O   0  0  0  0  0  0  0  0  0  0  0  0
    0.3883   -1.0482    2.1513 C   0  0  2  0  0  0  0  0  0  0  0  0
   -0.6878   -1.5803    2.9224 O   0  0  0  0  0  0  0  0  0  0  0  0
    0.6681    0.3629    2.6539 C   0  0  0  0  0  0  0  0  0  0  0  0
   -1.6733   -0.5660   -0.4691 H   0  0  0  0  0  0  0  0  0  0  0  0
    0.8812   -0.6570    0.0745 H   0  0  0  0  0  0  0  0  0  0  0  0
    1.2697   -1.6682    2.3524 H   0  0  0  0  0  0  0  0  0  0  0  0
   -0.3908   -1.5805    3.8450 H   0  0  0  0  0  0  0  0  0  0  0  0
   -0.1847    1.0272    2.4769 H   0  0  0  0  0  0  0  0  0  0  0  0
    1.5537    0.7884    2.1724 H   0  0  0  0  0  0  0  0  0  0  0  0
    0.8331    0.3530    3.7370 H   0  0  0  0  0  0  0  0  0  0  0  0
   -0.1736   -3.4219    1.1959 N   0  0  0  0  0  0  0  0  0  0  0  0
   -0.4214   -4.8292    0.9878 C   0  0  2  0  0  0  0  0  0  0  0  0
    0.8423   -5.4482    0.4052 C   0  0  0  0  0  0  0  0  0  0  0  0
    1.6972   -4.7943   -0.1886 O   0  0  0  0  0  0  0  0  0  0  0  0
   -1.6102   -5.0513    0.0658 C   0  0  0  0  0  0  0  0  0  0  0  0
    0.0364   -3.0969    2.1352 H   0  0  0  0  0  0  0  0  0  0  0  0
   -0.6211   -5.2643    1.9731 H   0  0  0  0  0  0  0  0  0  0  0  0
   -1.4286   -4.6221   -0.9263 H   0  0  0  0  0  0  0  0  0  0  0  0
   -1.8145   -6.1187   -0.0682 H   0  0  0  0  0  0  0  0  0  0  0  0
   -2.5118   -4.5799    0.4719 H   0  0  0  0  0  0  0  0  0  0  0  0
    0.8824   -6.8232    0.5887 N   0  0  0  0  0  0  0  0  0  0  0  0
    1.9737   -7.6417    0.1141 C   0  0  0  0  0  0  0  0  0  0  0  0
    0.1392   -7.2798    1.1093 H   0  0  0  0  0  0  0  0  0  0  0  0
    1.7375   -8.0218   -0.8907 H   0  0  0  0  0  0  0  0  0  0  0  0
    2.8925   -7.0384    0.0712 H   0  0  0  0  0  0  0  0  0  0  0  0
    2.1226   -8.4881    0.8007 H   0  0  0  0  0  0  0  0  0  0  0  0
  1  3  1  0  0  0  0
  1  7  1  0  0  0  0
  1  2  2  0  0  0  0
 32 33  1  0  0  0  0
 33 41  1  0  0  0  0
 33 34  2  0  0  0  0
  8  9  1  0  0  0  0
  9 17  1  0  0  0  0
  9 10  2  0  0  0  0
 18 19  1  0  0  0  0
 19 31  1  0  0  0  0
 19 20  2  0  0  0  0
 32 35  1  0  0  0  0
  8 11  1  0  0  0  0
 21 23  1  0  0  0  0
 41 42  1  0  0  0  0
 31 32  1  0  0  0  0
  7  8  1  0  0  0  0
 18 21  1  0  0  0  0
 17 18  1  0  0  0  0
 21 22  1  0  0  0  0
  3  4  1  0  0  0  0
  3  5  1  0  0  0  0
  3  6  1  0  0  0  0
 35 38  1  0  0  0  0
 35 39  1  0  0  0  0
 35 40  1  0  0  0  0
 11 14  1  0  0  0  0
 11 15  1  0  0  0  0
 11 16  1  0  0  0  0
 23 28  1  0  0  0  0
 23 29  1  0  0  0  0
 23 30  1  0  0  0  0
 42 44  1  0  0  0  0
 42 45  1  0  0  0  0
 42 46  1  0  0  0  0
 32 37  1  0  0  0  0
  8 13  1  0  0  0  0
 18 25  1  0  0  0  0
 21 26  1  0  0  0  0
 41 43  1  0  0  0  0
  7 12  1  0  0  0  0
 31 36  1  0  0  0  0
 17 24  1  0  0  0  0
 22 27  1  0  0  0  0
M  END
$$$$

  -OEChem-05262214473D

 46 45  0     1  0  0  0  0  0999 V2000
   -4.6700    2.7214    1.5150 C   0  0  0  0  0  0  0  0  0  0  0  0
   -5.4532    2.5715    0.5845 O   0  0  0  0  0  0  0  0  0  0  0  0
   -5.0996    3.4865    2.7226 C   0  0  0  0  0  0  0  0  0  0  0  0
   -4.8796    4.5629    2.6387 H   0  0  0  0  0  0  0  0  0  0  0  0
   -6.1861    3.4241    2.8954 H   0  0  0  0  0  0  0  0  0  0  0  0
   -4.6369    3.1693    3.6708 H   0  0  0  0  0  0  0  0  0  0  0  0
   -3.3731    2.2391    1.5790 N   0  0  0  0  0  0  0  0  0  0  0  0
   -2.7599    1.4751    0.5247 C   0  0  2  0  0  0  0  0  0  0  0  0
   -1.5143    0.8067    1.0915 C   0  0  0  0  0  0  0  0  0  0  0  0
   -0.9247    1.2213    2.0872 O   0  0  0  0  0  0  0  0  0  0  0  0
   -2.4106    2.3553   -0.6653 C   0  0  0  0  0  0  0  0  0  0  0  0
   -2.8254    2.4352    2.4150 H   0  0  0  0  0  0  0  0  0  0  0  0
   -3.4836    0.7082    0.2278 H   0  0  0  0  0  0  0  0  0  0  0  0
   -1.6866    3.1298   -0.3871 H   0  0  0  0  0  0  0  0  0  0  0  0
   -1.9704    1.7677   -1.4777 H   0  0  0  0  0  0  0  0  0  0  0  0
   -3.3030    2.8584   -1.0531 H   0  0  0  0  0  0  0  0  0  0  0  0
   -1.1107   -0.2839    0.3303 N   0  0  0  0  0  0  0  0  0  0  0  0
    0.0490   -1.0750    0.6539 C   0  0  2  0  0  0  0  0  0  0  0  0
   -0.2112   -2.4962    0.1628 C   0  0  0  0  0  0  0  0  0  0  0  0
   -0.2012   -2.8067   -1.0266 O   0  0  0  0  0  0  0  0  0  0  0  0
    0.3883   -1.0482    2.1513 C   0  0  2  0  0  0  0  0  0  0  0  0
   -0.6878   -1.5803    2.9224 O   0  0  0  0  0  0  0  0  0  0  0  0
    0.6681    0.3629    2.6539 C   0  0  0  0  0  0  0  0  0  0  0  0
   -1.6733   -0.5660   -0.4691 H   0  0  0  0  0  0  0  0  0  0  0  0
    0.8812   -0.6570    0.0745 H   0  0  0  0  0  0  0  0  0  0  0  0
    1.2697   -1.6682    2.3524 H   0  0  0  0  0  0  0  0  0  0  0  0
   -0.3908   -1.5805    3.8450 H   0  0  0  0  0  0  0  0  0  0  0  0
   -0.1847    1.0272    2.4769 H   0  0  0  0  0  0  0  0  0  0  0  0
    1.5537    0.7884    2.1724 H   0  0  0  0  0  0  0  0  0  0  0  0
    0.8331    0.3530    3.7370 H   0  0  0  0  0  0  0  0  0  0  0  0
   -0.5041   -3.3645    1.2049 N   0  0  0  0  0  0  0  0  0  0  0  0
   -0.8187   -4.7575    0.9907 C   0  0  2  0  0  0  0  0  0  0  0  0
    0.4877   -5.5037    0.7539 C   0  0  0  0  0  0  0  0  0  0  0  0
    1.5143   -4.9516    0.3637 O   0  0  0  0  0  0  0  0  0  0  0  0
   -1.7674   -4.9361   -0.1844 C   0  0  0  0  0  0  0  0  0  0  0  0
   -0.4968   -3.0063    2.1554 H   0  0  0  0  0  0  0  0  0  0  0  0
   -1.2861   -5.1215    1.9121 H   0  0  0  0  0  0  0  0  0  0  0  0
   -1.3164   -4.5769   -1.1167 H   0  0  0  0  0  0  0  0  0  0  0  0
   -2.0275   -5.9900   -0.3278 H   0  0  0  0  0  0  0  0  0  0  0  0
   -2.6944   -4.3745   -0.0258 H   0  0  0  0  0  0  0  0  0  0  0  0
    0.3605   -6.8657    0.9881 N   0  0  0  0  0  0  0  0  0  0  0  0
    1.4567   -7.7912    0.8209 C   0  0  0  0  0  0  0  0  0  0  0  0
   -0.5231   -7.2340    1.3278 H   0  0  0  0  0  0  0  0  0  0  0  0
    1.4349   -8.2059   -0.1978 H   0  0  0  0  0  0  0  0  0  0  0  0
    2.4089   -7.2646    0.9820 H   0  0  0  0  0  0  0  0  0  0  0  0
    1.3613   -8.6082    1.5513 H   0  0  0  0  0  0  0  0  0  0  0  0
  1  3  1  0  0  0  0
  1  7  1  0  0  0  0
  1  2  2  0  0  0  0
 32 33  1  0  0  0  0
 33 41  1  0  0  0  0
 33 34  2  0  0  0  0
  8  9  1  0  0  0  0
  9 17  1  0  0  0  0
  9 10  2  0  0  0  0
 18 19  1  0  0  0  0
 19 31  1  0  0  0  0
 19 20  2  0  0  0  0
 32 35  1  0  0  0  0
  8 11  1  0  0  0  0
 21 23  1  0  0  0  0
 41 42  1  0  0  0  0
 31 32  1  0  0  0  0
  7  8  1  0  0  0  0
 18 21  1  0  0  0  0
 17 18  1  0  0  0  0
 21 22  1  0  0  0  0
  3  4  1  0  0  0  0
  3  5  1  0  0  0  0
  3  6  1  0  0  0  0
 35 38  1  0  0  0  0
 35 39  1  0  0  0  0
 35 40  1  0  0  0  0
 11 14  1  0  0  0  0
 11 15  1  0  0  0  0
 11 16  1  0  0  0  0
 23 28  1  0  0  0  0
 23 29  1  0  0  0  0
 23 30  1  0  0  0  0
 42 44  1  0  0  0  0
 42 45  1  0  0  0  0
 42 46  1  0  0  0  0
 32 37  1  0  0  0  0
  8 13  1  0  0  0  0
 18 25  1  0  0  0  0
 21 26  1  0  0  0  0
 41 43  1  0  0  0  0
  7 12  1  0  0  0  0
 31 36  1  0  0  0  0
 17 24  1  0  0  0  0
 22 27  1  0  0  0  0
M  END
$$$$

  -OEChem-05262214473D

 46 45  0     1  0  0  0  0  0999 V2000
   -4.6700    2.7214    1.5150 C   0  0  0  0  0  0  0  0  0  0  0  0
   -5.4532    2.5715    0.5845 O   0  0  0  0  0  0  0  0  0  0  0  0
   -5.0996    3.4865    2.7226 C   0  0  0  0  0  0  0  0  0  0  0  0
   -4.8796    4.5629    2.6387 H   0  0  0  0  0  0  0  0  0  0  0  0
   -6.1861    3.4241    2.8954 H   0  0  0  0  0  0  0  0  0  0  0  0
   -4.6369    3.1693    3.6708 H   0  0  0  0  0  0  0  0  0  0  0  0
   -3.3731    2.2391    1.5790 N   0  0  0  0  0  0  0  0  0  0  0  0
   -2.7599    1.4751    0.5247 C   0  0  2  0  0  0  0  0  0  0  0  0
   -1.5143    0.8067    1.0915 C   0  0  0  0  0  0  0  0  0  0  0  0
   -0.9247    1.2213    2.0872 O   0  0  0  0  0  0  0  0  0  0  0  0
   -2.4106    2.3553   -0.6653 C   0  0  0  0  0  0  0  0  0  0  0  0
   -2.8254    2.4352    2.4150 H   0  0  0  0  0  0  0  0  0  0  0  0
   -3.4836    0.7082    0.2278 H   0  0  0  0  0  0  0  0  0  0  0  0
   -1.6866    3.1298   -0.3871 H   0  0  0  0  0  0  0  0  0  0  0  0
   -1.9704    1.7677   -1.4777 H   0  0  0  0  0  0  0  0  0  0  0  0
   -3.3030    2.8584   -1.0531 H   0  0  0  0  0  0  0  0  0  0  0  0
   -1.1107   -0.2839    0.3303 N   0  0  0  0  0  0  0  0  0  0  0  0
    0.0490   -1.0750    0.6539 C   0  0  2  0  0  0  0  0  0  0  0  0
   -0.2112   -2.4962    0.1628 C   0  0  0  0  0  0  0  0  0  0  0  0
    0.0554   -2.8707   -0.9773 O   0  0  0  0  0  0  0  0  0  0  0  0
    0.3883   -1.0482    2.1513 C   0  0  2  0  0  0  0  0  0  0  0  0
   -0.6878   -1.5803    2.9224 O   0  0  0  0  0  0  0  0  0  0  0  0
    0.6681    0.3629    2.6539 C   0  0  0  0  0  0  0  0  0  0  0  0
   -1.6733   -0.5660   -0.4691 H   0  0  0  0  0  0  0  0  0  0  0  0
    0.8812   -0.6570    0.0745 H   0  0  0  0  0  0  0  0  0  0  0  0
    1.2697   -1.6682    2.3524 H   0  0  0  0  0  0  0  0  0  0  0  0
   -0.3908   -1.5805    3.8450 H   0  0  0  0  0  0  0  0  0  0  0  0
   -0.1847    1.0272    2.4769 H   0  0  0  0  0  0  0  0  0  0  0  0
    1.5537    0.7884    2.1724 H   0  0  0  0  0  0  0  0  0  0  0  0
    0.8331    0.3530    3.7370 H   0  0  0  0  0  0  0  0  0  0  0  0
   -0.8206   -3.2811    1.1314 N   0  0  0  0  0  0  0  0  0  0  0  0
   -1.1972   -4.6550    0.8945 C   0  0  2  0  0  0  0  0  0  0  0  0
    0.0564   -5.5124    1.0076 C   0  0  0  0  0  0  0  0  0  0  0  0
    1.1914   -5.0640    0.8599 O   0  0  0  0  0  0  0  0  0  0  0  0
   -1.8493   -4.8227   -0.4691 C   0  0  0  0  0  0  0  0  0  0  0  0
   -1.0092   -2.8735    2.0425 H   0  0  0  0  0  0  0  0  0  0  0  0
   -1.9018   -4.9309    1.6866 H   0  0  0  0  0  0  0  0  0  0  0  0
   -1.1584   -4.5509   -1.2755 H   0  0  0  0  0  0  0  0  0  0  0  0
   -2.1600   -5.8594   -0.6355 H   0  0  0  0  0  0  0  0  0  0  0  0
   -2.7337   -4.1829   -0.5595 H   0  0  0  0  0  0  0  0  0  0  0  0
   -0.2434   -6.8456    1.2500 N   0  0  0  0  0  0  0  0  0  0  0  0
    0.7744   -7.8614    1.3855 C   0  0  0  0  0  0  0  0  0  0  0  0
   -1.2116   -7.1250    1.3771 H   0  0  0  0  0  0  0  0  0  0  0  0
    0.9602   -8.3279    0.4068 H   0  0  0  0  0  0  0  0  0  0  0  0
    1.7033   -7.4026    1.7551 H   0  0  0  0  0  0  0  0  0  0  0  0
    0.4351   -8.6275    2.0982 H   0  0  0  0  0  0  0  0  0  0  0  0
  1  3  1  0  0  0  0
  1  7  1  0  0  0  0
  1  2  2  0  0  0  0
 32 33  1  0  0  0  0
 33 41  1  0  0  0  0
 33 34  2  0  0  0  0
  8  9  1  0  0  0  0
  9 17  1  0  0  0  0
  9 10  2  0  0  0  0
 18 19  1  0  0  0  0
 19 31  1  0  0  0  0
 19 20  2  0  0  0  0
 32 35  1  0  0  0  0
  8 11  1  0  0  0  0
 21 23  1  0  0  0  0
 41 42  1  0  0  0  0
 31 32  1  0  0  0  0
  7  8  1  0  0  0  0
 18 21  1  0  0  0  0
 17 18  1  0  0  0  0
 21 22  1  0  0  0  0
  3  4  1  0  0  0  0
  3  5  1  0  0  0  0
  3  6  1  0  0  0  0
 35 38  1  0  0  0  0
 35 39  1  0  0  0  0
 35 40  1  0  0  0  0
 11 14  1  0  0  0  0
 11 15  1  0  0  0  0
 11 16  1  0  0  0  0
 23 28  1  0  0  0  0
 23 29  1  0  0  0  0
 23 30  1  0  0  0  0
 42 44  1  0  0  0  0
 42 45  1  0  0  0  0
 42 46  1  0  0  0  0
 32 37  1  0  0  0  0
  8 13  1  0  0  0  0
 18 25  1  0  0  0  0
 21 26  1  0  0  0  0
 41 43  1  0  0  0  0
  7 12  1  0  0  0  0
 31 36  1  0  0  0  0
 17 24  1  0  0  0  0
 22 27  1  0  0  0  0
M  END
$$$$

  -OEChem-05262214473D

 46 45  0     1  0  0  0  0  0999 V2000
   -4.6700    2.7214    1.5150 C   0  0  0  0  0  0  0  0  0  0  0  0
   -5.4532    2.5715    0.5845 O   0  0  0  0  0  0  0  0  0  0  0  0
   -5.0996    3.4865    2.7226 C   0  0  0  0  0  0  0  0  0  0  0  0
   -4.8796    4.5629    2.6387 H   0  0  0  0  0  0  0  0  0  0  0  0
   -6.1861    3.4241    2.8954 H   0  0  0  0  0  0  0  0  0  0  0  0
   -4.6369    3.1693    3.6708 H   0  0  0  0  0  0  0  0  0  0  0  0
   -3.3731    2.2391    1.5790 N   0  0  0  0  0  0  0  0  0  0  0  0
   -2.7599    1.4751    0.5247 C   0  0  2  0  0  0  0  0  0  0  0  0
   -1.5143    0.8067    1.0915 C   0  0  0  0  0  0  0  0  0  0  0  0
   -0.9247    1.2213    2.0872 O   0  0  0  0  0  0  0  0  0  0  0  0
   -2.4106    2.3553   -0.6653 C   0  0  0  0  0  0  0  0  0  0  0  0
   -2.8254    2.4352    2.4150 H   0  0  0  0  0  0  0  0  0  0  0  0
   -3.4836    0.7082    0.2278 H   0  0  0  0  0  0  0  0  0  0  0  0
   -1.6866    3.1298   -0.3871 H   0  0  0  0  0  0  0  0  0  0  0  0
   -1.9704    1.7677   -1.4777 H   0  0  0  0  0  0  0  0  0  0  0  0
   -3.3030    2.8584   -1.0531 H   0  0  0  0  0  0  0  0  0  0  0  0
   -1.1107   -0.2839    0.3303 N   0  0  0  0  0  0  0  0  0  0  0  0
    0.0490   -1.0750    0.6539 C   0  0  2  0  0  0  0  0  0  0  0  0
   -0.2112   -2.4962    0.1628 C   0  0  0  0  0  0  0  0  0  0  0  0
    0.2861   -2.9518   -0.8650 O   0  0  0  0  0  0  0  0  0  0  0  0
    0.3883   -1.0482    2.1513 C   0  0  2  0  0  0  0  0  0  0  0  0
   -0.6878   -1.5803    2.9224 O   0  0  0  0  0  0  0  0  0  0  0  0
    0.6681    0.3629    2.6539 C   0  0  0  0  0  0  0  0  0  0  0  0
   -1.6733   -0.5660   -0.4691 H   0  0  0  0  0  0  0  0  0  0  0  0
    0.8812   -0.6570    0.0745 H   0  0  0  0  0  0  0  0  0  0  0  0
    1.2697   -1.6682    2.3524 H   0  0  0  0  0  0  0  0  0  0  0  0
   -0.3908   -1.5805    3.8450 H   0  0  0  0  0  0  0  0  0  0  0  0
   -0.1847    1.0272    2.4769 H   0  0  0  0  0  0  0  0  0  0  0  0
    1.5537    0.7884    2.1724 H   0  0  0  0  0  0  0  0  0  0  0  0
    0.8331    0.3530    3.7370 H   0  0  0  0  0  0  0  0  0  0  0  0
   -1.1017   -3.1775    0.9804 N   0  0  0  0  0  0  0  0  0  0  0  0
   -1.5310   -4.5287    0.7058 C   0  0  2  0  0  0  0  0  0  0  0  0
   -0.4220   -5.4737    1.1491 C   0  0  0  0  0  0  0  0  0  0  0  0
    0.7505   -5.1237    1.2664 O   0  0  0  0  0  0  0  0  0  0  0  0
   -1.8503   -4.7190   -0.7688 C   0  0  0  0  0  0  0  0  0  0  0  0
   -1.4658   -2.7075    1.8040 H   0  0  0  0  0  0  0  0  0  0  0  0
   -2.4262   -4.7054    1.3120 H   0  0  0  0  0  0  0  0  0  0  0  0
   -0.9653   -4.5460   -1.3920 H   0  0  0  0  0  0  0  0  0  0  0  0
   -2.2029   -5.7358   -0.9704 H   0  0  0  0  0  0  0  0  0  0  0  0
   -2.6271   -4.0181   -1.0930 H   0  0  0  0  0  0  0  0  0  0  0  0
   -0.8881   -6.7644    1.3565 N   0  0  0  0  0  0  0  0  0  0  0  0
   -0.0265   -7.8475    1.7695 C   0  0  0  0  0  0  0  0  0  0  0  0
   -1.8795   -6.9602    1.2540 H   0  0  0  0  0  0  0  0  0  0  0  0
    0.3458   -8.3795    0.8817 H   0  0  0  0  0  0  0  0  0  0  0  0
    0.8239   -7.4430    2.3379 H   0  0  0  0  0  0  0  0  0  0  0  0
   -0.5931   -8.5450    2.4040 H   0  0  0  0  0  0  0  0  0  0  0  0
  1  3  1  0  0  0  0
  1  7  1  0  0  0  0
  1  2  2  0  0  0  0
 32 33  1  0  0  0  0
 33 41  1  0  0  0  0
 33 34  2  0  0  0  0
  8  9  1  0  0  0  0
  9 17  1  0  0  0  0
  9 10  2  0  0  0  0
 18 19  1  0  0  0  0
 19 31  1  0  0  0  0
 19 20  2  0  0  0  0
 32 35  1  0  0  0  0
  8 11  1  0  0  0  0
 21 23  1  0  0  0  0
 41 42  1  0  0  0  0
 31 32  1  0  0  0  0
  7  8  1  0  0  0  0
 18 21  1  0  0  0  0
 17 18  1  0  0  0  0
 21 22  1  0  0  0  0
  3  4  1  0  0  0  0
  3  5  1  0  0  0  0
  3  6  1  0  0  0  0
 35 38  1  0  0  0  0
 35 39  1  0  0  0  0
 35 40  1  0  0  0  0
 11 14  1  0  0  0  0
 11 15  1  0  0  0  0
 11 16  1  0  0  0  0
 23 28  1  0  0  0  0
 23 29  1  0  0  0  0
 23 30  1  0  0  0  0
 42 44  1  0  0  0  0
 42 45  1  0  0  0  0
 42 46  1  0  0  0  0
 32 37  1  0  0  0  0
  8 13  1  0  0  0  0
 18 25  1  0  0  0  0
 21 26  1  0  0  0  0
 41 43  1  0  0  0  0
  7 12  1  0  0  0  0
 31 36  1  0  0  0  0
 17 24  1  0  0  0  0
 22 27  1  0  0  0  0
M  END
$$$$

  -OEChem-05262214473D

 46 45  0     1  0  0  0  0  0999 V2000
   -4.6700    2.7214    1.5150 C   0  0  0  0  0  0  0  0  0  0  0  0
   -5.4532    2.5715    0.5845 O   0  0  0  0  0  0  0  0  0  0  0  0
   -5.0996    3.4865    2.7226 C   0  0  0  0  0  0  0  0  0  0  0  0
   -4.8796    4.5629    2.6387 H   0  0  0  0  0  0  0  0  0  0  0  0
   -6.1861    3.4241    2.8954 H   0  0  0  0  0  0  0  0  0  0  0  0
   -4.6369    3.1693    3.6708 H   0  0  0  0  0  0  0  0  0  0  0  0
   -3.3731    2.2391    1.5790 N   0  0  0  0  0  0  0  0  0  0  0  0
   -2.7599    1.4751    0.5247 C   0  0  2  0  0  0  0  0  0  0  0  0
   -1.5143    0.8067    1.0915 C   0  0  0  0  0  0  0  0  0  0  0  0
   -0.9247    1.2213    2.0872 O   0  0  0  0  0  0  0  0  0  0  0  0
   -2.4106    2.3553   -0.6653 C   0  0  0  0  0  0  0  0  0  0  0  0
   -2.8254    2.4352    2.4150 H   0  0  0  0  0  0  0  0  0  0  0  0
   -3.4836    0.7082    0.2278 H   0  0  0  0  0  0  0  0  0  0  0  0
   -1.6866    3.1298   -0.3871 H   0  0  0  0  0  0  0  0  0  0  0  0
   -1.9704    1.7677   -1.4777 H   0  0  0  0  0  0  0  0  0  0  0  0
   -3.3030    2.8584   -1.0531 H   0  0  0  0  0  0  0  0  0  0  0  0
   -1.1107   -0.2839    0.3303 N   0  0  0  0  0  0  0  0  0  0  0  0
    0.0490   -1.0750    0.6539 C   0  0  2  0  0  0  0  0  0  0  0  0
   -0.2112   -2.4962    0.1628 C   0  0  0  0  0  0  0  0  0  0  0  0
    0.4751   -3.0443   -0.6974 O   0  0  0  0  0  0  0  0  0  0  0  0
    0.3883   -1.0482    2.1513 C   0  0  2  0  0  0  0  0  0  0  0  0
   -0.6878   -1.5803    2.9224 O   0  0  0  0  0  0  0  0  0  0  0  0
    0.6681    0.3629    2.6539 C   0  0  0  0  0  0  0  0  0  0  0  0
   -1.6733   -0.5660   -0.4691 H   0  0  0  0  0  0  0  0  0  0  0  0
    0.8812   -0.6570    0.0745 H   0  0  0  0  0  0  0  0  0  0  0  0
    1.2697   -1.6682    2.3524 H   0  0  0  0  0  0  0  0  0  0  0  0
   -0.3908   -1.5805    3.8450 H   0  0  0  0  0  0  0  0  0  0  0  0
   -0.1847    1.0272    2.4769 H   0  0  0  0  0  0  0  0  0  0  0  0
    1.5537    0.7884    2.1724 H   0  0  0  0  0  0  0  0  0  0  0  0
    0.8331    0.3530    3.7370 H   0  0  0  0  0  0  0  0  0  0  0  0
   -1.3282   -3.0606    0.7622 N   0  0  0  0  0  0  0  0  0  0  0  0
   -1.7975   -4.3872    0.4376 C   0  0  2  0  0  0  0  0  0  0  0  0
   -0.9150   -5.3902    1.1687 C   0  0  0  0  0  0  0  0  0  0  0  0
    0.2217   -5.1268    1.5554 O   0  0  0  0  0  0  0  0  0  0  0  0
   -1.7704   -4.6319   -1.0631 C   0  0  0  0  0  0  0  0  0  0  0  0
   -1.8356   -2.5196    1.4563 H   0  0  0  0  0  0  0  0  0  0  0  0
   -2.8238   -4.4605    0.8137 H   0  0  0  0  0  0  0  0  0  0  0  0
   -0.7503   -4.5625   -1.4582 H   0  0  0  0  0  0  0  0  0  0  0  0
   -2.1533   -5.6277   -1.3097 H   0  0  0  0  0  0  0  0  0  0  0  0
   -2.3818   -3.8913   -1.5899 H   0  0  0  0  0  0  0  0  0  0  0  0
   -1.5298   -6.6275    1.3004 N   0  0  0  0  0  0  0  0  0  0  0  0
   -0.8916   -7.7504    1.9468 C   0  0  0  0  0  0  0  0  0  0  0  0
   -2.4813   -6.7508    0.9668 H   0  0  0  0  0  0  0  0  0  0  0  0
   -0.3664   -8.3572    1.1946 H   0  0  0  0  0  0  0  0  0  0  0  0
   -0.1693   -7.3830    2.6907 H   0  0  0  0  0  0  0  0  0  0  0  0
   -1.6530   -8.3661    2.4479 H   0  0  0  0  0  0  0  0  0  0  0  0
  1  3  1  0  0  0  0
  1  7  1  0  0  0  0
  1  2  2  0  0  0  0
 32 33  1  0  0  0  0
 33 41  1  0  0  0  0
 33 34  2  0  0  0  0
  8  9  1  0  0  0  0
  9 17  1  0  0  0  0
  9 10  2  0  0  0  0
 18 19  1  0  0  0  0
 19 31  1  0  0  0  0
 19 20  2  0  0  0  0
 32 35  1  0  0  0  0
  8 11  1  0  0  0  0
 21 23  1  0  0  0  0
 41 42  1  0  0  0  0
 31 32  1  0  0  0  0
  7  8  1  0  0  0  0
 18 21  1  0  0  0  0
 17 18  1  0  0  0  0
 21 22  1  0  0  0  0
  3  4  1  0  0  0  0
  3  5  1  0  0  0  0
  3  6  1  0  0  0  0
 35 38  1  0  0  0  0
 35 39  1  0  0  0  0
 35 40  1  0  0  0  0
 11 14  1  0  0  0  0
 11 15  1  0  0  0  0
 11 16  1  0  0  0  0
 23 28  1  0  0  0  0
 23 29  1  0  0  0  0
 23 30  1  0  0  0  0
 42 44  1  0  0  0  0
 42 45  1  0  0  0  0
 42 46  1  0  0  0  0
 32 37  1  0  0  0  0
  8 13  1  0  0  0  0
 18 25  1  0  0  0  0
 21 26  1  0  0  0  0
 41 43  1  0  0  0  0
  7 12  1  0  0  0  0
 31 36  1  0  0  0  0
 17 24  1  0  0  0  0
 22 27  1  0  0  0  0
M  END
$$$$

  -OEChem-05262214473D

 46 45  0     1  0  0  0  0  0999 V2000
   -4.6700    2.7214    1.5150 C   0  0  0  0  0  0  0  0  0  0  0  0
   -5.4532    2.5715    0.5845 O   0  0  0  0  0  0  0  0  0  0  0  0
   -5.0996    3.4865    2.7226 C   0  0  0  0  0  0  0  0  0  0  0  0
   -4.8796    4.5629    2.6387 H   0  0  0  0  0  0  0  0  0  0  0  0
   -6.1861    3.4241    2.8954 H   0  0  0  0  0  0  0  0  0  0  0  0
   -4.6369    3.1693    3.6708 H   0  0  0  0  0  0  0  0  0  0  0  0
   -3.3731    2.2391    1.5790 N   0  0  0  0  0  0  0  0  0  0  0  0
   -2.7599    1.4751    0.5247 C   0  0  2  0  0  0  0  0  0  0  0  0
   -1.5143    0.8067    1.0915 C   0  0  0  0  0  0  0  0  0  0  0  0
   -0.9247    1.2213    2.0872 O   0  0  0  0  0  0  0  0  0  0  0  0
   -2.4106    2.3553   -0.6653 C   0  0  0  0  0  0  0  0  0  0  0  0
   -2.8254    2.4352    2.4150 H   0  0  0  0  0  0  0  0  0  0  0  0
   -3.4836    0.7082    0.2278 H   0  0  0  0  0  0  0  0  0  0  0  0
   -1.6866    3.1298   -0.3871 H   0  0  0  0  0  0  0  0  0  0  0  0
   -1.9704    1.7677   -1.4777 H   0  0  0  0  0  0  0  0  0  0  0  0
   -3.3030    2.8584   -1.0531 H   0  0  0  0  0  0  0  0  0  0  0  0
   -1.1107   -0.2839    0.3303 N   0  0  0  0  0  0  0  0  0  0  0  0
    0.0490   -1.0750    0.6539 C   0  0  2  0  0  0  0  0  0  0  0  0
   -0.2112   -2.4962    0.1628 C   0  0  0  0  0  0  0  0  0  0  0  0
    0.6095   -3.1420   -0.4858 O   0  0  0  0  0  0  0  0  0  0  0  0
    0.3883   -1.0482    2.1513 C   0  0  2  0  0  0  0  0  0  0  0  0
   -0.6878   -1.5803    2.9224 O   0  0  0  0  0  0  0  0  0  0  0  0
    0.6681    0.3629    2.6539 C   0  0  0  0  0  0  0  0  0  0  0  0
   -1.6733   -0.5660   -0.4691 H   0  0  0  0  0  0  0  0  0  0  0  0
    0.8812   -0.6570    0.0745 H   0  0  0  0  0  0  0  0  0  0  0  0
    1.2697   -1.6682    2.3524 H   0  0  0  0  0  0  0  0  0  0  0  0
   -0.3908   -1.5805    3.8450 H   0  0  0  0  0  0  0  0  0  0  0  0
   -0.1847    1.0272    2.4769 H   0  0  0  0  0  0  0  0  0  0  0  0
    1.5537    0.7884    2.1724 H   0  0  0  0  0  0  0  0  0  0  0  0
    0.8331    0.3530    3.7370 H   0  0  0  0  0  0  0  0  0  0  0  0
   -1.4847   -2.9385    0.4917 N   0  0  0  0  0  0  0  0  0  0  0  0
   -1.9785   -4.2401    0.1080 C   0  0  2  0  0  0  0  0  0  0  0  0
   -1.3890   -5.2677    1.0652 C   0  0  0  0  0  0  0  0  0  0  0  0
   -0.3591   -5.0729    1.7073 O   0  0  0  0  0  0  0  0  0  0  0  0
   -1.6150   -4.5674   -1.3320 C   0  0  0  0  0  0  0  0  0  0  0  0
   -2.0933   -2.3227    1.0230 H   0  0  0  0  0  0  0  0  0  0  0  0
   -3.0672   -4.2127    0.2258 H   0  0  0  0  0  0  0  0  0  0  0  0
   -0.5280   -4.5993   -1.4695 H   0  0  0  0  0  0  0  0  0  0  0  0
   -2.0146   -5.5423   -1.6303 H   0  0  0  0  0  0  0  0  0  0  0  0
   -2.0146   -3.8112   -2.0163 H   0  0  0  0  0  0  0  0  0  0  0  0
   -2.1247   -6.4443    1.0854 N   0  0  0  0  0  0  0  0  0  0  0  0
   -1.7618   -7.5767    1.9052 C   0  0  0  0  0  0  0  0  0  0  0  0
   -2.9759   -6.5110    0.5351 H   0  0  0  0  0  0  0  0  0  0  0  0
   -1.1279   -8.2626    1.3241 H   0  0  0  0  0  0  0  0  0  0  0  0
   -1.2088   -7.2268    2.7894 H   0  0  0  0  0  0  0  0  0  0  0  0
   -2.6725   -8.1031    2.2270 H   0  0  0  0  0  0  0  0  0  0  0  0
  1  3  1  0  0  0  0
  1  7  1  0  0  0  0
  1  2  2  0  0  0  0
 32 33  1  0  0  0  0
 33 41  1  0  0  0  0
 33 34  2  0  0  0  0
  8  9  1  0  0  0  0
  9 17  1  0  0  0  0
  9 10  2  0  0  0  0
 18 19  1  0  0  0  0
 19 31  1  0  0  0  0
 19 20  2  0  0  0  0
 32 35  1  0  0  0  0
  8 11  1  0  0  0  0
 21 23  1  0  0  0  0
 41 42  1  0  0  0  0
 31 32  1  0  0  0  0
  7  8  1  0  0  0  0
 18 21  1  0  0  0  0
 17 18  1  0  0  0  0
 21 22  1  0  0  0  0
  3  4  1  0  0  0  0
  3  5  1  0  0  0  0
  3  6  1  0  0  0  0
 35 38  1  0  0  0  0
 35 39  1  0  0  0  0
 35 40  1  0  0  0  0
 11 14  1  0  0  0  0
 11 15  1  0  0  0  0
 11 16  1  0  0  0  0
 23 28  1  0  0  0  0
 23 29  1  0  0  0  0
 23 30  1  0  0  0  0
 42 44  1  0  0  0  0
 42 45  1  0  0  0  0
 42 46  1  0  0  0  0
 32 37  1  0  0  0  0
  8 13  1  0  0  0  0
 18 25  1  0  0  0  0
 21 26  1  0  0  0  0
 41 43  1  0  0  0  0
  7 12  1  0  0  0  0
 31 36  1  0  0  0  0
 17 24  1  0  0  0  0
 22 27  1  0  0  0  0
M  END
$$$$

  -OEChem-05262214473D

 46 45  0     1  0  0  0  0  0999 V2000
   -4.6700    2.7214    1.5150 C   0  0  0  0  0  0  0  0  0  0  0  0
   -5.4532    2.5715    0.5845 O   0  0  0  0  0  0  0  0  0  0  0  0
   -5.0996    3.4865    2.7226 C   0  0  0  0  0  0  0  0  0  0  0  0
   -4.8796    4.5629    2.6387 H   0  0  0  0  0  0  0  0  0  0  0  0
   -6.1861    3.4241    2.8954 H   0  0  0  0  0  0  0  0  0  0  0  0
   -4.6369    3.1693    3.6708 H   0  0  0  0  0  0  0  0  0  0  0  0
   -3.3731    2.2391    1.5790 N   0  0  0  0  0  0  0  0  0  0  0  0
   -2.7599    1.4751    0.5247 C   0  0  2  0  0  0  0  0  0  0  0  0
   -1.5143    0.8067    1.0915 C   0  0  0  0  0  0  0  0  0  0  0  0
   -0.9247    1.2213    2.0872 O   0  0  0  0  0  0  0  0  0  0  0  0
   -2.4106    2.3553   -0.6653 C   0  0  0  0  0  0  0  0  0  0  0  0
   -2.8254    2.4352    2.4150 H   0  0  0  0  0  0  0  0  0  0  0  0
   -3.4836    0.7082    0.2278 H   0  0  0  0  0  0  0  0  0  0  0  0
   -1.6866    3.1298   -0.3871 H   0  0  0  0  0  0  0  0  0  0  0  0
   -1.9704    1.7677   -1.4777 H   0  0  0  0  0  0  0  0  0  0  0  0
   -3.3030    2.8584   -1.0531 H   0  0  0  0  0  0  0  0  0  0  0  0
   -1.1107   -0.2839    0.3303 N   0  0  0  0  0  0  0  0  0  0  0  0
    0.0490   -1.0750    0.6539 C   0  0  2  0  0  0  0  0  0  0  0  0
   -0.2112   -2.4962    0.1628 C   0  0  0  0  0  0  0  0  0  0  0  0
    0.6802   -3.2382   -0.2448 O   0  0  0  0  0  0  0  0  0  0  0  0
    0.3883   -1.0482    2.1513 C   0  0  2  0  0  0  0  0  0  0  0  0
   -0.6878   -1.5803    2.9224 O   0  0  0  0  0  0  0  0  0  0  0  0
    0.6681    0.3629    2.6539 C   0  0  0  0  0  0  0  0  0  0  0  0
   -1.6733   -0.5660   -0.4691 H   0  0  0  0  0  0  0  0  0  0  0  0
    0.8812   -0.6570    0.0745 H   0  0  0  0  0  0  0  0  0  0  0  0
    1.2697   -1.6682    2.3524 H   0  0  0  0  0  0  0  0  0  0  0  0
   -0.3908   -1.5805    3.8450 H   0  0  0  0  0  0  0  0  0  0  0  0
   -0.1847    1.0272    2.4769 H   0  0  0  0  0  0  0  0  0  0  0  0
    1.5537    0.7884    2.1724 H   0  0  0  0  0  0  0  0  0  0  0  0
    0.8331    0.3530    3.7370 H   0  0  0  0  0  0  0  0  0  0  0  0
   -1.5605   -2.8195    0.1873 N   0  0  0  0  0  0  0  0  0  0  0  0
   -2.0616   -4.0976   -0.2605 C   0  0  2  0  0  0  0  0  0  0  0  0
   -1.8117   -5.1144    0.8455 C   0  0  0  0  0  0  0  0  0  0  0  0
   -0.9521   -4.9658    1.7116 O   0  0  0  0  0  0  0  0  0  0  0  0
   -1.3948   -4.5300   -1.5571 C   0  0  0  0  0  0  0  0  0  0  0  0
   -2.2214   -2.1302    0.5336 H   0  0  0  0  0  0  0  0  0  0  0  0
   -3.1401   -3.9791   -0.4117 H   0  0  0  0  0  0  0  0  0  0  0  0
   -0.3137   -4.6538   -1.4253 H   0  0  0  0  0  0  0  0  0  0  0  0
   -1.7963   -5.4855   -1.9103 H   0  0  0  0  0  0  0  0  0  0  0  0
   -1.5504   -3.7832   -2.3432 H   0  0  0  0  0  0  0  0  0  0  0  0
   -2.6323   -6.2273    0.7263 N   0  0  0  0  0  0  0  0  0  0  0  0
   -2.5779   -7.3383    1.6477 C   0  0  0  0  0  0  0  0  0  0  0  0
   -3.3296   -6.2574   -0.0117 H   0  0  0  0  0  0  0  0  0  0  0  0
   -1.8868   -8.1020    1.2616 H   0  0  0  0  0  0  0  0  0  0  0  0
   -2.2236   -6.9850    2.6273 H   0  0  0  0  0  0  0  0  0  0  0  0
   -3.5821   -7.7739    1.7562 H   0  0  0  0  0  0  0  0  0  0  0  0
  1  3  1  0  0  0  0
  1  7  1  0  0  0  0
  1  2  2  0  0  0  0
 32 33  1  0  0  0  0
 33 41  1  0  0  0  0
 33 34  2  0  0  0  0
  8  9  1  0  0  0  0
  9 17  1  0  0  0  0
  9 10  2  0  0  0  0
 18 19  1  0  0  0  0
 19 31  1  0  0  0  0
 19 20  2  0  0  0  0
 32 35  1  0  0  0  0
  8 11  1  0  0  0  0
 21 23  1  0  0  0  0
 41 42  1  0  0  0  0
 31 32  1  0  0  0  0
  7  8  1  0  0  0  0
 18 21  1  0  0  0  0
 17 18  1  0  0  0  0
 21 22  1  0  0  0  0
  3  4  1  0  0  0  0
  3  5  1  0  0  0  0
  3  6  1  0  0  0  0
 35 38  1  0  0  0  0
 35 39  1  0  0  0  0
 35 40  1  0  0  0  0
 11 14  1  0  0  0  0
 11 15  1  0  0  0  0
 11 16  1  0  0  0  0
 23 28  1  0  0  0  0
 23 29  1  0  0  0  0
 23 30  1  0  0  0  0
 42 44  1  0  0  0  0
 42 45  1  0  0  0  0
 42 46  1  0  0  0  0
 32 37  1  0  0  0  0
  8 13  1  0  0  0  0
 18 25  1  0  0  0  0
 21 26  1  0  0  0  0
 41 43  1  0  0  0  0
  7 12  1  0  0  0  0
 31 36  1  0  0  0  0
 17 24  1  0  0  0  0
 22 27  1  0  0  0  0
M  END
$$$$

  -OEChem-05262214473D

 46 45  0     1  0  0  0  0  0999 V2000
   -4.6700    2.7214    1.5150 C   0  0  0  0  0  0  0  0  0  0  0  0
   -5.4532    2.5715    0.5845 O   0  0  0  0  0  0  0  0  0  0  0  0
   -5.0996    3.4865    2.7226 C   0  0  0  0  0  0  0  0  0  0  0  0
   -4.8796    4.5629    2.6387 H   0  0  0  0  0  0  0  0  0  0  0  0
   -6.1861    3.4241    2.8954 H   0  0  0  0  0  0  0  0  0  0  0  0
   -4.6369    3.1693    3.6708 H   0  0  0  0  0  0  0  0  0  0  0  0
   -3.3731    2.2391    1.5790 N   0  0  0  0  0  0  0  0  0  0  0  0
   -2.7599    1.4751    0.5247 C   0  0  2  0  0  0  0  0  0  0  0  0
   -1.5143    0.8067    1.0915 C   0  0  0  0  0  0  0  0  0  0  0  0
   -0.9247    1.2213    2.0872 O   0  0  0  0  0  0  0  0  0  0  0  0
   -2.4106    2.3553   -0.6653 C   0  0  0  0  0  0  0  0  0  0  0  0
   -2.8254    2.4352    2.4150 H   0  0  0  0  0  0  0  0  0  0  0  0
   -3.4836    0.7082    0.2278 H   0  0  0  0  0  0  0  0  0  0  0  0
   -1.6866    3.1298   -0.3871 H   0  0  0  0  0  0  0  0  0  0  0  0
   -1.9704    1.7677   -1.4777 H   0  0  0  0  0  0  0  0  0  0  0  0
   -3.3030    2.8584   -1.0531 H   0  0  0  0  0  0  0  0  0  0  0  0
   -1.1107   -0.2839    0.3303 N   0  0  0  0  0  0  0  0  0  0  0  0
    0.0490   -1.0750    0.6539 C   0  0  2  0  0  0  0  0  0  0  0  0
   -0.2112   -2.4962    0.1628 C   0  0  0  0  0  0  0  0  0  0  0  0
    0.6824   -3.3264    0.0094 O   0  0  0  0  0  0  0  0  0  0  0  0
    0.3883   -1.0482    2.1513 C   0  0  2  0  0  0  0  0  0  0  0  0
   -0.6878   -1.5803    2.9224 O   0  0  0  0  0  0  0  0  0  0  0  0
    0.6681    0.3629    2.6539 C   0  0  0  0  0  0  0  0  0  0  0  0
   -1.6733   -0.5660   -0.4691 H   0  0  0  0  0  0  0  0  0  0  0  0
    0.8812   -0.6570    0.0745 H   0  0  0  0  0  0  0  0  0  0  0  0
    1.2697   -1.6682    2.3524 H   0  0  0  0  0  0  0  0  0  0  0  0
   -0.3908   -1.5805    3.8450 H   0  0  0  0  0  0  0  0  0  0  0  0
   -0.1847    1.0272    2.4769 H   0  0  0  0  0  0  0  0  0  0  0  0
    1.5537    0.7884    2.1724 H   0  0  0  0  0  0  0  0  0  0  0  0
    0.8331    0.3530    3.7370 H   0  0  0  0  0  0  0  0  0  0  0  0
   -1.5503   -2.7116   -0.1303 N   0  0  0  0  0  0  0  0  0  0  0  0
   -2.0412   -3.9693   -0.6428 C   0  0  2  0  0  0  0  0  0  0  0  0
   -2.1543   -4.9408    0.5246 C   0  0  0  0  0  0  0  0  0  0  0  0
   -1.5171   -4.8128    1.5680 O   0  0  0  0  0  0  0  0  0  0  0  0
   -1.1247   -4.5220   -1.7231 C   0  0  0  0  0  0  0  0  0  0  0  0
   -2.2111   -1.9551    0.0216 H   0  0  0  0  0  0  0  0  0  0  0  0
   -3.0373   -3.7755   -1.0553 H   0  0  0  0  0  0  0  0  0  0  0  0
   -0.1218   -4.7224   -1.3285 H   0  0  0  0  0  0  0  0  0  0  0  0
   -1.5131   -5.4612   -2.1307 H   0  0  0  0  0  0  0  0  0  0  0  0
   -1.0208   -3.8093   -2.5483 H   0  0  0  0  0  0  0  0  0  0  0  0
   -3.0179   -5.9913    0.2475 N   0  0  0  0  0  0  0  0  0  0  0  0
   -3.2842   -7.0514    1.1916 C   0  0  0  0  0  0  0  0  0  0  0  0
   -3.5183   -6.0070   -0.6363 H   0  0  0  0  0  0  0  0  0  0  0  0
   -2.5914   -7.8865    1.0111 H   0  0  0  0  0  0  0  0  0  0  0  0
   -3.1446   -6.6741    2.2154 H   0  0  0  0  0  0  0  0  0  0  0  0
   -4.3198   -7.4010    1.0677 H   0  0  0  0  0  0  0  0  0  0  0  0
  1  3  1  0  0  0  0
  1  7  1  0  0  0  0
  1  2  2  0  0  0  0
 32 33  1  0  0  0  0
 33 41  1  0  0  0  0
 33 34  2  0  0  0  0
  8  9  1  0  0  0  0
  9 17  1  0  0  0  0
  9 10  2  0  0  0  0
 18 19  1  0  0  0  0
 19 31  1  0  0  0  0
 19 20  2  0  0  0  0
 32 35  1  0  0  0  0
  8 11  1  0  0  0  0
 21 23  1  0  0  0  0
 41 42  1  0  0  0  0
 31 32  1  0  0  0  0
  7  8  1  0  0  0  0
 18 21  1  0  0  0  0
 17 18  1  0  0  0  0
 21 22  1  0  0  0  0
  3  4  1  0  0  0  0
  3  5  1  0  0  0  0
  3  6  1  0  0  0  0
 35 38  1  0  0  0  0
 35 39  1  0  0  0  0
 35 40  1  0  0  0  0
 11 14  1  0  0  0  0
 11 15  1  0  0  0  0
 11 16  1  0  0  0  0
 23 28  1  0  0  0  0
 23 29  1  0  0  0  0
 23 30  1  0  0  0  0
 42 44  1  0  0  0  0
 42 45  1  0  0  0  0
 42 46  1  0  0  0  0
 32 37  1  0  0  0  0
  8 13  1  0  0  0  0
 18 25  1  0  0  0  0
 21 26  1  0  0  0  0
 41 43  1  0  0  0  0
  7 12  1  0  0  0  0
 31 36  1  0  0  0  0
 17 24  1  0  0  0  0
 22 27  1  0  0  0  0
M  END
$$$$

  -OEChem-05262214473D

 46 45  0     1  0  0  0  0  0999 V2000
   -4.6700    2.7214    1.5150 C   0  0  0  0  0  0  0  0  0  0  0  0
   -5.4532    2.5715    0.5845 O   0  0  0  0  0  0  0  0  0  0  0  0
   -5.0996    3.4865    2.7226 C   0  0  0  0  0  0  0  0  0  0  0  0
   -4.8796    4.5629    2.6387 H   0  0  0  0  0  0  0  0  0  0  0  0
   -6.1861    3.4241    2.8954 H   0  0  0  0  0  0  0  0  0  0  0  0
   -4.6369    3.1693    3.6708 H   0  0  0  0  0  0  0  0  0  0  0  0
   -3.3731    2.2391    1.5790 N   0  0  0  0  0  0  0  0  0  0  0  0
   -2.7599    1.4751    0.5247 C   0  0  2  0  0  0  0  0  0  0  0  0
   -1.5143    0.8067    1.0915 C   0  0  0  0  0  0  0  0  0  0  0  0
   -0.9247    1.2213    2.0872 O   0  0  0  0  0  0  0  0  0  0  0  0
   -2.4106    2.3553   -0.6653 C   0  0  0  0  0  0  0  0  0  0  0  0
   -2.8254    2.4352    2.4150 H   0  0  0  0  0  0  0  0  0  0  0  0
   -3.4836    0.7082    0.2278 H   0  0  0  0  0  0  0  0  0  0  0  0
   -1.6866    3.1298   -0.3871 H   0  0  0  0  0  0  0  0  0  0  0  0
   -1.9704    1.7677   -1.4777 H   0  0  0  0  0  0  0  0  0  0  0  0
   -3.3030    2.8584   -1.0531 H   0  0  0  0  0  0  0  0  0  0  0  0
   -1.1107   -0.2839    0.3303 N   0  0  0  0  0  0  0  0  0  0  0  0
    0.0490   -1.0750    0.6539 C   0  0  2  0  0  0  0  0  0  0  0  0
   -0.2112   -2.4962    0.1628 C   0  0  0  0  0  0  0  0  0  0  0  0
    0.6159   -3.4006    0.2593 O   0  0  0  0  0  0  0  0  0  0  0  0
    0.3883   -1.0482    2.1513 C   0  0  2  0  0  0  0  0  0  0  0  0
   -0.6878   -1.5803    2.9224 O   0  0  0  0  0  0  0  0  0  0  0  0
    0.6681    0.3629    2.6539 C   0  0  0  0  0  0  0  0  0  0  0  0
   -1.6733   -0.5660   -0.4691 H   0  0  0  0  0  0  0  0  0  0  0  0
    0.8812   -0.6570    0.0745 H   0  0  0  0  0  0  0  0  0  0  0  0
    1.2697   -1.6682    2.3524 H   0  0  0  0  0  0  0  0  0  0  0  0
   -0.3908   -1.5805    3.8450 H   0  0  0  0  0  0  0  0  0  0  0  0
   -0.1847    1.0272    2.4769 H   0  0  0  0  0  0  0  0  0  0  0  0
    1.5537    0.7884    2.1724 H   0  0  0  0  0  0  0  0  0  0  0  0
    0.8331    0.3530    3.7370 H   0  0  0  0  0  0  0  0  0  0  0  0
   -1.4550   -2.6222   -0.4393 N   0  0  0  0  0  0  0  0  0  0  0  0
   -1.9186   -3.8639   -1.0127 C   0  0  2  0  0  0  0  0  0  0  0  0
   -2.3934   -4.7588    0.1245 C   0  0  0  0  0  0  0  0  0  0  0  0
   -2.0155   -4.6243    1.2864 O   0  0  0  0  0  0  0  0  0  0  0  0
   -0.8231   -4.5442   -1.8187 C   0  0  0  0  0  0  0  0  0  0  0  0
   -2.0631   -1.8095   -0.4783 H   0  0  0  0  0  0  0  0  0  0  0  0
   -2.7660   -3.6159   -1.6612 H   0  0  0  0  0  0  0  0  0  0  0  0
    0.0344   -4.8003   -1.1858 H   0  0  0  0  0  0  0  0  0  0  0  0
   -1.1845   -5.4710   -2.2763 H   0  0  0  0  0  0  0  0  0  0  0  0
   -0.4621   -3.8876   -2.6177 H   0  0  0  0  0  0  0  0  0  0  0  0
   -3.2553   -5.7523   -0.3183 N   0  0  0  0  0  0  0  0  0  0  0  0
   -3.8327   -6.7356    0.5682 C   0  0  0  0  0  0  0  0  0  0  0  0
   -3.5291   -5.7770   -1.2961 H   0  0  0  0  0  0  0  0  0  0  0  0
   -3.1936   -7.6307    0.5898 H   0  0  0  0  0  0  0  0  0  0  0  0
   -3.9091   -6.3152    1.5818 H   0  0  0  0  0  0  0  0  0  0  0  0
   -4.8354   -7.0097    0.2083 H   0  0  0  0  0  0  0  0  0  0  0  0
  1  3  1  0  0  0  0
  1  7  1  0  0  0  0
  1  2  2  0  0  0  0
 32 33  1  0  0  0  0
 33 41  1  0  0  0  0
 33 34  2  0  0  0  0
  8  9  1  0  0  0  0
  9 17  1  0  0  0  0
  9 10  2  0  0  0  0
 18 19  1  0  0  0  0
 19 31  1  0  0  0  0
 19 20  2  0  0  0  0
 32 35  1  0  0  0  0
  8 11  1  0  0  0  0
 21 23  1  0  0  0  0
 41 42  1  0  0  0  0
 31 32  1  0  0  0  0
  7  8  1  0  0  0  0
 18 21  1  0  0  0  0
 17 18  1  0  0  0  0
 21 22  1  0  0  0  0
  3  4  1  0  0  0  0
  3  5  1  0  0  0  0
  3  6  1  0  0  0  0
 35 38  1  0  0  0  0
 35 39  1  0  0  0  0
 35 40  1  0  0  0  0
 11 14  1  0  0  0  0
 11 15  1  0  0  0  0
 11 16  1  0  0  0  0
 23 28  1  0  0  0  0
 23 29  1  0  0  0  0
 23 30  1  0  0  0  0
 42 44  1  0  0  0  0
 42 45  1  0  0  0  0
 42 46  1  0  0  0  0
 32 37  1  0  0  0  0
  8 13  1  0  0  0  0
 18 25  1  0  0  0  0
 21 26  1  0  0  0  0
 41 43  1  0  0  0  0
  7 12  1  0  0  0  0
 31 36  1  0  0  0  0
 17 24  1  0  0  0  0
 22 27  1  0  0  0  0
M  END
$$$$

  -OEChem-05262214473D

 46 45  0     1  0  0  0  0  0999 V2000
   -4.6700    2.7214    1.5150 C   0  0  0  0  0  0  0  0  0  0  0  0
   -5.4532    2.5715    0.5845 O   0  0  0  0  0  0  0  0  0  0  0  0
   -5.0996    3.4865    2.7226 C   0  0  0  0  0  0  0  0  0  0  0  0
   -4.8796    4.5629    2.6387 H   0  0  0  0  0  0  0  0  0  0  0  0
   -6.1861    3.4241    2.8954 H   0  0  0  0  0  0  0  0  0  0  0  0
   -4.6369    3.1693    3.6708 H   0  0  0  0  0  0  0  0  0  0  0  0
   -3.3731    2.2391    1.5790 N   0  0  0  0  0  0  0  0  0  0  0  0
   -2.7599    1.4751    0.5247 C   0  0  2  0  0  0  0  0  0  0  0  0
   -1.5143    0.8067    1.0915 C   0  0  0  0  0  0  0  0  0  0  0  0
   -0.9247    1.2213    2.0872 O   0  0  0  0  0  0  0  0  0  0  0  0
   -2.4106    2.3553   -0.6653 C   0  0  0  0  0  0  0  0  0  0  0  0
   -2.8254    2.4352    2.4150 H   0  0  0  0  0  0  0  0  0  0  0  0
   -3.4836    0.7082    0.2278 H   0  0  0  0  0  0  0  0  0  0  0  0
   -1.6866    3.1298   -0.3871 H   0  0  0  0  0  0  0  0  0  0  0  0
   -1.9704    1.7677   -1.4777 H   0  0  0  0  0  0  0  0  0  0  0  0
   -3.3030    2.8584   -1.0531 H   0  0  0  0  0  0  0  0  0  0  0  0
   -1.1107   -0.2839    0.3303 N   0  0  0  0  0  0  0  0  0  0  0  0
    0.0490   -1.0750    0.6539 C   0  0  2  0  0  0  0  0  0  0  0  0
   -0.2112   -2.4962    0.1628 C   0  0  0  0  0  0  0  0  0  0  0  0
    0.4852   -3.4557    0.4879 O   0  0  0  0  0  0  0  0  0  0  0  0
    0.3883   -1.0482    2.1513 C   0  0  2  0  0  0  0  0  0  0  0  0
   -0.6878   -1.5803    2.9224 O   0  0  0  0  0  0  0  0  0  0  0  0
    0.6681    0.3629    2.6539 C   0  0  0  0  0  0  0  0  0  0  0  0
   -1.6733   -0.5660   -0.4691 H   0  0  0  0  0  0  0  0  0  0  0  0
    0.8812   -0.6570    0.0745 H   0  0  0  0  0  0  0  0  0  0  0  0
    1.2697   -1.6682    2.3524 H   0  0  0  0  0  0  0  0  0  0  0  0
   -0.3908   -1.5805    3.8450 H   0  0  0  0  0  0  0  0  0  0  0  0
   -0.1847    1.0272    2.4769 H   0  0  0  0  0  0  0  0  0  0  0  0
    1.5537    0.7884    2.1724 H   0  0  0  0  0  0  0  0  0  0  0  0
    0.8331    0.3530    3.7370 H   0  0  0  0  0  0  0  0  0  0  0  0
   -1.2810   -2.5575   -0.7188 N   0  0  0  0  0  0  0  0  0  0  0  0
   -1.7023   -3.7886   -1.3452 C   0  0  2  0  0  0  0  0  0  0  0  0
   -2.5127   -4.5807   -0.3277 C   0  0  0  0  0  0  0  0  0  0  0  0
   -2.4133   -4.4131    0.8860 O   0  0  0  0  0  0  0  0  0  0  0  0
   -0.5105   -4.5950   -1.8373 C   0  0  0  0  0  0  0  0  0  0  0  0
   -1.7876   -1.7032   -0.9318 H   0  0  0  0  0  0  0  0  0  0  0  0
   -2.3445   -3.5109   -2.1881 H   0  0  0  0  0  0  0  0  0  0  0  0
    0.1445   -4.8823   -1.0068 H   0  0  0  0  0  0  0  0  0  0  0  0
   -0.8328   -5.5143   -2.3374 H   0  0  0  0  0  0  0  0  0  0  0  0
    0.0878   -4.0129   -2.5465 H   0  0  0  0  0  0  0  0  0  0  0  0
   -3.3284   -5.5267   -0.9326 N   0  0  0  0  0  0  0  0  0  0  0  0
   -4.1859   -6.4123   -0.1801 C   0  0  0  0  0  0  0  0  0  0  0  0
   -3.3614   -5.5830   -1.9463 H   0  0  0  0  0  0  0  0  0  0  0  0
   -3.6525   -7.3520    0.0264 H   0  0  0  0  0  0  0  0  0  0  0  0
   -4.4649   -5.9328    0.7697 H   0  0  0  0  0  0  0  0  0  0  0  0
   -5.0936   -6.6267   -0.7632 H   0  0  0  0  0  0  0  0  0  0  0  0
  1  3  1  0  0  0  0
  1  7  1  0  0  0  0
  1  2  2  0  0  0  0
 32 33  1  0  0  0  0
 33 41  1  0  0  0  0
 33 34  2  0  0  0  0
  8  9  1  0  0  0  0
  9 17  1  0  0  0  0
  9 10  2  0  0  0  0
 18 19  1  0  0  0  0
 19 31  1  0  0  0  0
 19 20  2  0  0  0  0
 32 35  1  0  0  0  0
  8 11  1  0  0  0  0
 21 23  1  0  0  0  0
 41 42  1  0  0  0  0
 31 32  1  0  0  0  0
  7  8  1  0  0  0  0
 18 21  1  0  0  0  0
 17 18  1  0  0  0  0
 21 22  1  0  0  0  0
  3  4  1  0  0  0  0
  3  5  1  0  0  0  0
  3  6  1  0  0  0  0
 35 38  1  0  0  0  0
 35 39  1  0  0  0  0
 35 40  1  0  0  0  0
 11 14  1  0  0  0  0
 11 15  1  0  0  0  0
 11 16  1  0  0  0  0
 23 28  1  0  0  0  0
 23 29  1  0  0  0  0
 23 30  1  0  0  0  0
 42 44  1  0  0  0  0
 42 45  1  0  0  0  0
 42 46  1  0  0  0  0
 32 37  1  0  0  0  0
  8 13  1  0  0  0  0
 18 25  1  0  0  0  0
 21 26  1  0  0  0  0
 41 43  1  0  0  0  0
  7 12  1  0  0  0  0
 31 36  1  0  0  0  0
 17 24  1  0  0  0  0
 22 27  1  0  0  0  0
M  END
$$$$

  -OEChem-05262214473D

 46 45  0     1  0  0  0  0  0999 V2000
   -4.6700    2.7214    1.5150 C   0  0  0  0  0  0  0  0  0  0  0  0
   -5.4532    2.5715    0.5845 O   0  0  0  0  0  0  0  0  0  0  0  0
   -5.0996    3.4865    2.7226 C   0  0  0  0  0  0  0  0  0  0  0  0
   -4.8796    4.5629    2.6387 H   0  0  0  0  0  0  0  0  0  0  0  0
   -6.1861    3.4241    2.8954 H   0  0  0  0  0  0  0  0  0  0  0  0
   -4.6369    3.1693    3.6708 H   0  0  0  0  0  0  0  0  0  0  0  0
   -3.3731    2.2391    1.5790 N   0  0  0  0  0  0  0  0  0  0  0  0
   -2.7599    1.4751    0.5247 C   0  0  2  0  0  0  0  0  0  0  0  0
   -1.5143    0.8067    1.0915 C   0  0  0  0  0  0  0  0  0  0  0  0
   -0.9247    1.2213    2.0872 O   0  0  0  0  0  0  0  0  0  0  0  0
   -2.4106    2.3553   -0.6653 C   0  0  0  0  0  0  0  0  0  0  0  0
   -2.8254    2.4352    2.4150 H   0  0  0  0  0  0  0  0  0  0  0  0
   -3.4836    0.7082    0.2278 H   0  0  0  0  0  0  0  0  0  0  0  0
   -1.6866    3.1298   -0.3871 H   0  0  0  0  0  0  0  0  0  0  0  0
   -1.9704    1.7677   -1.4777 H   0  0  0  0  0  0  0  0  0  0  0  0
   -3.3030    2.8584   -1.0531 H   0  0  0  0  0  0  0  0  0  0  0  0
   -1.1107   -0.2839    0.3303 N   0  0  0  0  0  0  0  0  0  0  0  0
    0.0490   -1.0750    0.6539 C   0  0  2  0  0  0  0  0  0  0  0  0
   -0.2112   -2.4962    0.1628 C   0  0  0  0  0  0  0  0  0  0  0  0
    0.2993   -3.4879    0.6797 O   0  0  0  0  0  0  0  0  0  0  0  0
    0.3883   -1.0482    2.1513 C   0  0  2  0  0  0  0  0  0  0  0  0
   -0.6878   -1.5803    2.9224 O   0  0  0  0  0  0  0  0  0  0  0  0
    0.6681    0.3629    2.6539 C   0  0  0  0  0  0  0  0  0  0  0  0
   -1.6733   -0.5660   -0.4691 H   0  0  0  0  0  0  0  0  0  0  0  0
    0.8812   -0.6570    0.0745 H   0  0  0  0  0  0  0  0  0  0  0  0
    1.2697   -1.6682    2.3524 H   0  0  0  0  0  0  0  0  0  0  0  0
   -0.3908   -1.5805    3.8450 H   0  0  0  0  0  0  0  0  0  0  0  0
   -0.1847    1.0272    2.4769 H   0  0  0  0  0  0  0  0  0  0  0  0
    1.5537    0.7884    2.1724 H   0  0  0  0  0  0  0  0  0  0  0  0
    0.8331    0.3530    3.7370 H   0  0  0  0  0  0  0  0  0  0  0  0
   -1.0402   -2.5218   -0.9497 N   0  0  0  0  0  0  0  0  0  0  0  0
   -1.4069   -3.7486   -1.6175 C   0  0  2  0  0  0  0  0  0  0  0  0
   -2.5041   -4.4187   -0.8011 C   0  0  0  0  0  0  0  0  0  0  0  0
   -2.6834   -4.1936    0.3940 O   0  0  0  0  0  0  0  0  0  0  0  0
   -0.2084   -4.6709   -1.7778 C   0  0  0  0  0  0  0  0  0  0  0  0
   -1.4033   -1.6435   -1.3082 H   0  0  0  0  0  0  0  0  0  0  0  0
   -1.8016   -3.4680   -2.6001 H   0  0  0  0  0  0  0  0  0  0  0  0
    0.2008   -4.9628   -0.8037 H   0  0  0  0  0  0  0  0  0  0  0  0
   -0.4820   -5.5882   -2.3096 H   0  0  0  0  0  0  0  0  0  0  0  0
    0.5914   -4.1765   -2.3397 H   0  0  0  0  0  0  0  0  0  0  0  0
   -3.2320   -5.3297   -1.5536 N   0  0  0  0  0  0  0  0  0  0  0  0
   -4.3197   -6.1037   -1.0023 C   0  0  0  0  0  0  0  0  0  0  0  0
   -3.0266   -5.4384   -2.5424 H   0  0  0  0  0  0  0  0  0  0  0  0
   -3.9368   -7.0694   -0.6407 H   0  0  0  0  0  0  0  0  0  0  0  0
   -4.7742   -5.5530   -0.1655 H   0  0  0  0  0  0  0  0  0  0  0  0
   -5.0770   -6.2781   -1.7809 H   0  0  0  0  0  0  0  0  0  0  0  0
  1  3  1  0  0  0  0
  1  7  1  0  0  0  0
  1  2  2  0  0  0  0
 32 33  1  0  0  0  0
 33 41  1  0  0  0  0
 33 34  2  0  0  0  0
  8  9  1  0  0  0  0
  9 17  1  0  0  0  0
  9 10  2  0  0  0  0
 18 19  1  0  0  0  0
 19 31  1  0  0  0  0
 19 20  2  0  0  0  0
 32 35  1  0  0  0  0
  8 11  1  0  0  0  0
 21 23  1  0  0  0  0
 41 42  1  0  0  0  0
 31 32  1  0  0  0  0
  7  8  1  0  0  0  0
 18 21  1  0  0  0  0
 17 18  1  0  0  0  0
 21 22  1  0  0  0  0
  3  4  1  0  0  0  0
  3  5  1  0  0  0  0
  3  6  1  0  0  0  0
 35 38  1  0  0  0  0
 35 39  1  0  0  0  0
 35 40  1  0  0  0  0
 11 14  1  0  0  0  0
 11 15  1  0  0  0  0
 11 16  1  0  0  0  0
 23 28  1  0  0  0  0
 23 29  1  0  0  0  0
 23 30  1  0  0  0  0
 42 44  1  0  0  0  0
 42 45  1  0  0  0  0
 42 46  1  0  0  0  0
 32 37  1  0  0  0  0
  8 13  1  0  0  0  0
 18 25  1  0  0  0  0
 21 26  1  0  0  0  0
 41 43  1  0  0  0  0
  7 12  1  0  0  0  0
 31 36  1  0  0  0  0
 17 24  1  0  0  0  0
 22 27  1  0  0  0  0
M  END
$$$$

  -OEChem-05262214473D

 46 45  0     1  0  0  0  0  0999 V2000
   -4.6700    2.7214    1.5150 C   0  0  0  0  0  0  0  0  0  0  0  0
   -5.4532    2.5715    0.5845 O   0  0  0  0  0  0  0  0  0  0  0  0
   -5.0996    3.4865    2.7226 C   0  0  0  0  0  0  0  0  0  0  0  0
   -4.8796    4.5629    2.6387 H   0  0  0  0  0  0  0  0  0  0  0  0
   -6.1861    3.4241    2.8954 H   0  0  0  0  0  0  0  0  0  0  0  0
   -4.6369    3.1693    3.6708 H   0  0  0  0  0  0  0  0  0  0  0  0
   -3.3731    2.2391    1.5790 N   0  0  0  0  0  0  0  0  0  0  0  0
   -2.7599    1.4751    0.5247 C   0  0  2  0  0  0  0  0  0  0  0  0
   -1.5143    0.8067    1.0915 C   0  0  0  0  0  0  0  0  0  0  0  0
   -0.9247    1.2213    2.0872 O   0  0  0  0  0  0  0  0  0  0  0  0
   -2.4106    2.3553   -0.6653 C   0  0  0  0  0  0  0  0  0  0  0  0
   -2.8254    2.4352    2.4150 H   0  0  0  0  0  0  0  0  0  0  0  0
   -3.4836    0.7082    0.2278 H   0  0  0  0  0  0  0  0  0  0  0  0
   -1.6866    3.1298   -0.3871 H   0  0  0  0  0  0  0  0  0  0  0  0
   -1.9704    1.7677   -1.4777 H   0  0  0  0  0  0  0  0  0  0  0  0
   -3.3030    2.8584   -1.0531 H   0  0  0  0  0  0  0  0  0  0  0  0
   -1.1107   -0.2839    0.3303 N   0  0  0  0  0  0  0  0  0  0  0  0
    0.0490   -1.0750    0.6539 C   0  0  2  0  0  0  0  0  0  0  0  0
   -0.2112   -2.4962    0.1628 C   0  0  0  0  0  0  0  0  0  0  0  0
    0.0708   -3.4951    0.8215 O   0  0  0  0  0  0  0  0  0  0  0  0
    0.3883   -1.0482    2.1513 C   0  0  2  0  0  0  0  0  0  0  0  0
   -0.6878   -1.5803    2.9224 O   0  0  0  0  0  0  0  0  0  0  0  0
    0.6681    0.3629    2.6539 C   0  0  0  0  0  0  0  0  0  0  0  0
   -1.6733   -0.5660   -0.4691 H   0  0  0  0  0  0  0  0  0  0  0  0
    0.8812   -0.6570    0.0745 H   0  0  0  0  0  0  0  0  0  0  0  0
    1.2697   -1.6682    2.3524 H   0  0  0  0  0  0  0  0  0  0  0  0
   -0.3908   -1.5805    3.8450 H   0  0  0  0  0  0  0  0  0  0  0  0
   -0.1847    1.0272    2.4769 H   0  0  0  0  0  0  0  0  0  0  0  0
    1.5537    0.7884    2.1724 H   0  0  0  0  0  0  0  0  0  0  0  0
    0.8331    0.3530    3.7370 H   0  0  0  0  0  0  0  0  0  0  0  0
   -0.7490   -2.5176   -1.1162 N   0  0  0  0  0  0  0  0  0  0  0  0
   -1.0526   -3.7465   -1.8111 C   0  0  2  0  0  0  0  0  0  0  0  0
   -2.3683   -4.2838   -1.2634 C   0  0  0  0  0  0  0  0  0  0  0  0
   -2.8075   -3.9808   -0.1560 O   0  0  0  0  0  0  0  0  0  0  0  0
    0.0627   -4.7667   -1.6441 C   0  0  0  0  0  0  0  0  0  0  0  0
   -0.9364   -1.6345   -1.5818 H   0  0  0  0  0  0  0  0  0  0  0  0
   -1.1744   -3.4899   -2.8691 H   0  0  0  0  0  0  0  0  0  0  0  0
    0.1995   -5.0362   -0.5905 H   0  0  0  0  0  0  0  0  0  0  0  0
   -0.1559   -5.6874   -2.1950 H   0  0  0  0  0  0  0  0  0  0  0  0
    1.0143   -4.3674   -2.0113 H   0  0  0  0  0  0  0  0  0  0  0  0
   -2.9729   -5.1749   -2.1389 N   0  0  0  0  0  0  0  0  0  0  0  0
   -4.2251   -5.8308   -1.8424 C   0  0  0  0  0  0  0  0  0  0  0  0
   -2.5474   -5.3528   -3.0439 H   0  0  0  0  0  0  0  0  0  0  0  0
   -4.0270   -6.8023   -1.3660 H   0  0  0  0  0  0  0  0  0  0  0  0
   -4.8158   -5.2017   -1.1603 H   0  0  0  0  0  0  0  0  0  0  0  0
   -4.7866   -5.9876   -2.7752 H   0  0  0  0  0  0  0  0  0  0  0  0
  1  3  1  0  0  0  0
  1  7  1  0  0  0  0
  1  2  2  0  0  0  0
 32 33  1  0  0  0  0
 33 41  1  0  0  0  0
 33 34  2  0  0  0  0
  8  9  1  0  0  0  0
  9 17  1  0  0  0  0
  9 10  2  0  0  0  0
 18 19  1  0  0  0  0
 19 31  1  0  0  0  0
 19 20  2  0  0  0  0
 32 35  1  0  0  0  0
  8 11  1  0  0  0  0
 21 23  1  0  0  0  0
 41 42  1  0  0  0  0
 31 32  1  0  0  0  0
  7  8  1  0  0  0  0
 18 21  1  0  0  0  0
 17 18  1  0  0  0  0
 21 22  1  0  0  0  0
  3  4  1  0  0  0  0
  3  5  1  0  0  0  0
  3  6  1  0  0  0  0
 35 38  1  0  0  0  0
 35 39  1  0  0  0  0
 35 40  1  0  0  0  0
 11 14  1  0  0  0  0
 11 15  1  0  0  0  0
 11 16  1  0  0  0  0
 23 28  1  0  0  0  0
 23 29  1  0  0  0  0
 23 30  1  0  0  0  0
 42 44  1  0  0  0  0
 42 45  1  0  0  0  0
 42 46  1  0  0  0  0
 32 37  1  0  0  0  0
  8 13  1  0  0  0  0
 18 25  1  0  0  0  0
 21 26  1  0  0  0  0
 41 43  1  0  0  0  0
  7 12  1  0  0  0  0
 31 36  1  0  0  0  0
 17 24  1  0  0  0  0
 22 27  1  0  0  0  0
M  END
$$$$

  -OEChem-05262214473D

 46 45  0     1  0  0  0  0  0999 V2000
   -4.6700    2.7214    1.5150 C   0  0  0  0  0  0  0  0  0  0  0  0
   -5.4532    2.5715    0.5845 O   0  0  0  0  0  0  0  0  0  0  0  0
   -5.0996    3.4865    2.7226 C   0  0  0  0  0  0  0  0  0  0  0  0
   -4.8796    4.5629    2.6387 H   0  0  0  0  0  0  0  0  0  0  0  0
   -6.1861    3.4241    2.8954 H   0  0  0  0  0  0  0  0  0  0  0  0
   -4.6369    3.1693    3.6708 H   0  0  0  0  0  0  0  0  0  0  0  0
   -3.3731    2.2391    1.5790 N   0  0  0  0  0  0  0  0  0  0  0  0
   -2.7599    1.4751    0.5247 C   0  0  2  0  0  0  0  0  0  0  0  0
   -1.5143    0.8067    1.0915 C   0  0  0  0  0  0  0  0  0  0  0  0
   -0.9247    1.2213    2.0872 O   0  0  0  0  0  0  0  0  0  0  0  0
   -2.4106    2.3553   -0.6653 C   0  0  0  0  0  0  0  0  0  0  0  0
   -2.8254    2.4352    2.4150 H   0  0  0  0  0  0  0  0  0  0  0  0
   -3.4836    0.7082    0.2278 H   0  0  0  0  0  0  0  0  0  0  0  0
   -1.6866    3.1298   -0.3871 H   0  0  0  0  0  0  0  0  0  0  0  0
   -1.9704    1.7677   -1.4777 H   0  0  0  0  0  0  0  0  0  0  0  0
   -3.3030    2.8584   -1.0531 H   0  0  0  0  0  0  0  0  0  0  0  0
   -1.1107   -0.2839    0.3303 N   0  0  0  0  0  0  0  0  0  0  0  0
    0.0490   -1.0750    0.6539 C   0  0  2  0  0  0  0  0  0  0  0  0
   -0.2112   -2.4962    0.1628 C   0  0  0  0  0  0  0  0  0  0  0  0
   -0.1847   -3.4768    0.9038 O   0  0  0  0  0  0  0  0  0  0  0  0
    0.3883   -1.0482    2.1513 C   0  0  2  0  0  0  0  0  0  0  0  0
   -0.6878   -1.5803    2.9224 O   0  0  0  0  0  0  0  0  0  0  0  0
    0.6681    0.3629    2.6539 C   0  0  0  0  0  0  0  0  0  0  0  0
   -1.6733   -0.5660   -0.4691 H   0  0  0  0  0  0  0  0  0  0  0  0
    0.8812   -0.6570    0.0745 H   0  0  0  0  0  0  0  0  0  0  0  0
    1.2697   -1.6682    2.3524 H   0  0  0  0  0  0  0  0  0  0  0  0
   -0.3908   -1.5805    3.8450 H   0  0  0  0  0  0  0  0  0  0  0  0
   -0.1847    1.0272    2.4769 H   0  0  0  0  0  0  0  0  0  0  0  0
    1.5537    0.7884    2.1724 H   0  0  0  0  0  0  0  0  0  0  0  0
    0.8331    0.3530    3.7370 H   0  0  0  0  0  0  0  0  0  0  0  0
   -0.4272   -2.5451   -1.2071 N   0  0  0  0  0  0  0  0  0  0  0  0
   -0.6636   -3.7826   -1.9128 C   0  0  2  0  0  0  0  0  0  0  0  0
   -2.1143   -4.1852   -1.6832 C   0  0  0  0  0  0  0  0  0  0  0  0
   -2.7770   -3.7892   -0.7266 O   0  0  0  0  0  0  0  0  0  0  0  0
    0.2844   -4.8760   -1.4453 C   0  0  0  0  0  0  0  0  0  0  0  0
   -0.4187   -1.6767   -1.7339 H   0  0  0  0  0  0  0  0  0  0  0  0
   -0.5055   -3.5751   -2.9768 H   0  0  0  0  0  0  0  0  0  0  0  0
    0.1408   -5.0977   -0.3815 H   0  0  0  0  0  0  0  0  0  0  0  0
    0.1231   -5.8055   -2.0013 H   0  0  0  0  0  0  0  0  0  0  0  0
    1.3278   -4.5726   -1.5837 H   0  0  0  0  0  0  0  0  0  0  0  0
   -2.5686   -5.0728   -2.6486 N   0  0  0  0  0  0  0  0  0  0  0  0
   -3.9085   -5.6121   -2.6431 C   0  0  0  0  0  0  0  0  0  0  0  0
   -1.9565   -5.3322   -3.4166 H   0  0  0  0  0  0  0  0  0  0  0  0
   -3.9170   -6.5687   -2.1002 H   0  0  0  0  0  0  0  0  0  0  0  0
   -4.5870   -4.9028   -2.1466 H   0  0  0  0  0  0  0  0  0  0  0  0
   -4.2422   -5.7752   -3.6785 H   0  0  0  0  0  0  0  0  0  0  0  0
  1  3  1  0  0  0  0
  1  7  1  0  0  0  0
  1  2  2  0  0  0  0
 32 33  1  0  0  0  0
 33 41  1  0  0  0  0
 33 34  2  0  0  0  0
  8  9  1  0  0  0  0
  9 17  1  0  0  0  0
  9 10  2  0  0  0  0
 18 19  1  0  0  0  0
 19 31  1  0  0  0  0
 19 20  2  0  0  0  0
 32 35  1  0  0  0  0
  8 11  1  0  0  0  0
 21 23  1  0  0  0  0
 41 42  1  0  0  0  0
 31 32  1  0  0  0  0
  7  8  1  0  0  0  0
 18 21  1  0  0  0  0
 17 18  1  0  0  0  0
 21 22  1  0  0  0  0
  3  4  1  0  0  0  0
  3  5  1  0  0  0  0
  3  6  1  0  0  0  0
 35 38  1  0  0  0  0
 35 39  1  0  0  0  0
 35 40  1  0  0  0  0
 11 14  1  0  0  0  0
 11 15  1  0  0  0  0
 11 16  1  0  0  0  0
 23 28  1  0  0  0  0
 23 29  1  0  0  0  0
 23 30  1  0  0  0  0
 42 44  1  0  0  0  0
 42 45  1  0  0  0  0
 42 46  1  0  0  0  0
 32 37  1  0  0  0  0
  8 13  1  0  0  0  0
 18 25  1  0  0  0  0
 21 26  1  0  0  0  0
 41 43  1  0  0  0  0
  7 12  1  0  0  0  0
 31 36  1  0  0  0  0
 17 24  1  0  0  0  0
 22 27  1  0  0  0  0
M  END
$$$$

  -OEChem-05262214473D

 46 45  0     1  0  0  0  0  0999 V2000
   -4.6700    2.7214    1.5150 C   0  0  0  0  0  0  0  0  0  0  0  0
   -5.4532    2.5715    0.5845 O   0  0  0  0  0  0  0  0  0  0  0  0
   -5.0996    3.4865    2.7226 C   0  0  0  0  0  0  0  0  0  0  0  0
   -4.8796    4.5629    2.6387 H   0  0  0  0  0  0  0  0  0  0  0  0
   -6.1861    3.4241    2.8954 H   0  0  0  0  0  0  0  0  0  0  0  0
   -4.6369    3.1693    3.6708 H   0  0  0  0  0  0  0  0  0  0  0  0
   -3.3731    2.2391    1.5790 N   0  0  0  0  0  0  0  0  0  0  0  0
   -2.7599    1.4751    0.5247 C   0  0  2  0  0  0  0  0  0  0  0  0
   -1.5143    0.8067    1.0915 C   0  0  0  0  0  0  0  0  0  0  0  0
   -0.9247    1.2213    2.0872 O   0  0  0  0  0  0  0  0  0  0  0  0
   -2.4106    2.3553   -0.6653 C   0  0  0  0  0  0  0  0  0  0  0  0
   -2.8254    2.4352    2.4150 H   0  0  0  0  0  0  0  0  0  0  0  0
   -3.4836    0.7082    0.2278 H   0  0  0  0  0  0  0  0  0  0  0  0
   -1.6866    3.1298   -0.3871 H   0  0  0  0  0  0  0  0  0  0  0  0
   -1.9704    1.7677   -1.4777 H   0  0  0  0  0  0  0  0  0  0  0  0
   -3.3030    2.8584   -1.0531 H   0  0  0  0  0  0  0  0  0  0  0  0
   -1.1107   -0.2839    0.3303 N   0  0  0  0  0  0  0  0  0  0  0  0
    0.0490   -1.0750    0.6539 C   0  0  2  0  0  0  0  0  0  0  0  0
   -0.2112   -2.4962    0.1628 C   0  0  0  0  0  0  0  0  0  0  0  0
   -0.4497   -3.4341    0.9209 O   0  0  0  0  0  0  0  0  0  0  0  0
    0.3883   -1.0482    2.1513 C   0  0  2  0  0  0  0  0  0  0  0  0
   -0.6878   -1.5803    2.9224 O   0  0  0  0  0  0  0  0  0  0  0  0
    0.6681    0.3629    2.6539 C   0  0  0  0  0  0  0  0  0  0  0  0
   -1.6733   -0.5660   -0.4691 H   0  0  0  0  0  0  0  0  0  0  0  0
    0.8812   -0.6570    0.0745 H   0  0  0  0  0  0  0  0  0  0  0  0
    1.2697   -1.6682    2.3524 H   0  0  0  0  0  0  0  0  0  0  0  0
   -0.3908   -1.5805    3.8450 H   0  0  0  0  0  0  0  0  0  0  0  0
   -0.1847    1.0272    2.4769 H   0  0  0  0  0  0  0  0  0  0  0  0
    1.5537    0.7884    2.1724 H   0  0  0  0  0  0  0  0  0  0  0  0
    0.8331    0.3530    3.7370 H   0  0  0  0  0  0  0  0  0  0  0  0
   -0.0967   -2.6025   -1.2160 N   0  0  0  0  0  0  0  0  0  0  0  0
   -0.2663   -3.8544   -1.9157 C   0  0  2  0  0  0  0  0  0  0  0  0
   -1.7596   -4.1297   -2.0319 C   0  0  0  0  0  0  0  0  0  0  0  0
   -2.5941   -3.6319   -1.2789 O   0  0  0  0  0  0  0  0  0  0  0  0
    0.4416   -4.9912   -1.1951 C   0  0  0  0  0  0  0  0  0  0  0  0
    0.1145   -1.7673   -1.7542 H   0  0  0  0  0  0  0  0  0  0  0  0
    0.1594   -3.7179   -2.9158 H   0  0  0  0  0  0  0  0  0  0  0  0
    0.0286   -5.1429   -0.1912 H   0  0  0  0  0  0  0  0  0  0  0  0
    0.3361   -5.9341   -1.7418 H   0  0  0  0  0  0  0  0  0  0  0  0
    1.5104   -4.7780   -1.0861 H   0  0  0  0  0  0  0  0  0  0  0  0
   -2.0468   -5.0304   -3.0480 N   0  0  0  0  0  0  0  0  0  0  0  0
   -3.3914   -5.4625   -3.3498 C   0  0  0  0  0  0  0  0  0  0  0  0
   -1.2942   -5.3780   -3.6350 H   0  0  0  0  0  0  0  0  0  0  0  0
   -3.6144   -6.3847   -2.7931 H   0  0  0  0  0  0  0  0  0  0  0  0
   -4.1033   -4.6766   -3.0574 H   0  0  0  0  0  0  0  0  0  0  0  0
   -3.4809   -5.6552   -4.4291 H   0  0  0  0  0  0  0  0  0  0  0  0
  1  3  1  0  0  0  0
  1  7  1  0  0  0  0
  1  2  2  0  0  0  0
 32 33  1  0  0  0  0
 33 41  1  0  0  0  0
 33 34  2  0  0  0  0
  8  9  1  0  0  0  0
  9 17  1  0  0  0  0
  9 10  2  0  0  0  0
 18 19  1  0  0  0  0
 19 31  1  0  0  0  0
 19 20  2  0  0  0  0
 32 35  1  0  0  0  0
  8 11  1  0  0  0  0
 21 23  1  0  0  0  0
 41 42  1  0  0  0  0
 31 32  1  0  0  0  0
  7  8  1  0  0  0  0
 18 21  1  0  0  0  0
 17 18  1  0  0  0  0
 21 22  1  0  0  0  0
  3  4  1  0  0  0  0
  3  5  1  0  0  0  0
  3  6  1  0  0  0  0
 35 38  1  0  0  0  0
 35 39  1  0  0  0  0
 35 40  1  0  0  0  0
 11 14  1  0  0  0  0
 11 15  1  0  0  0  0
 11 16  1  0  0  0  0
 23 28  1  0  0  0  0
 23 29  1  0  0  0  0
 23 30  1  0  0  0  0
 42 44  1  0  0  0  0
 42 45  1  0  0  0  0
 42 46  1  0  0  0  0
 32 37  1  0  0  0  0
  8 13  1  0  0  0  0
 18 25  1  0  0  0  0
 21 26  1  0  0  0  0
 41 43  1  0  0  0  0
  7 12  1  0  0  0  0
 31 36  1  0  0  0  0
 17 24  1  0  0  0  0
 22 27  1  0  0  0  0
M  END
$$$$

  -OEChem-05262214473D

 46 45  0     1  0  0  0  0  0999 V2000
   -4.6700    2.7214    1.5150 C   0  0  0  0  0  0  0  0  0  0  0  0
   -5.4532    2.5715    0.5845 O   0  0  0  0  0  0  0  0  0  0  0  0
   -5.0996    3.4865    2.7226 C   0  0  0  0  0  0  0  0  0  0  0  0
   -4.8796    4.5629    2.6387 H   0  0  0  0  0  0  0  0  0  0  0  0
   -6.1861    3.4241    2.8954 H   0  0  0  0  0  0  0  0  0  0  0  0
   -4.6369    3.1693    3.6708 H   0  0  0  0  0  0  0  0  0  0  0  0
   -3.3731    2.2391    1.5790 N   0  0  0  0  0  0  0  0  0  0  0  0
   -2.7599    1.4751    0.5247 C   0  0  2  0  0  0  0  0  0  0  0  0
   -1.5143    0.8067    1.0915 C   0  0  0  0  0  0  0  0  0  0  0  0
   -0.9247    1.2213    2.0872 O   0  0  0  0  0  0  0  0  0  0  0  0
   -2.4106    2.3553   -0.6653 C   0  0  0  0  0  0  0  0  0  0  0  0
   -2.8254    2.4352    2.4150 H   0  0  0  0  0  0  0  0  0  0  0  0
   -3.4836    0.7082    0.2278 H   0  0  0  0  0  0  0  0  0  0  0  0
   -1.6866    3.1298   -0.3871 H   0  0  0  0  0  0  0  0  0  0  0  0
   -1.9704    1.7677   -1.4777 H   0  0  0  0  0  0  0  0  0  0  0  0
   -3.3030    2.8584   -1.0531 H   0  0  0  0  0  0  0  0  0  0  0  0
   -1.1107   -0.2839    0.3303 N   0  0  0  0  0  0  0  0  0  0  0  0
    0.0490   -1.0750    0.6539 C   0  0  2  0  0  0  0  0  0  0  0  0
   -0.2112   -2.4962    0.1628 C   0  0  0  0  0  0  0  0  0  0  0  0
   -0.7063   -3.3701    0.8716 O   0  0  0  0  0  0  0  0  0  0  0  0
    0.3883   -1.0482    2.1513 C   0  0  2  0  0  0  0  0  0  0  0  0
   -0.6878   -1.5803    2.9224 O   0  0  0  0  0  0  0  0  0  0  0  0
    0.6681    0.3629    2.6539 C   0  0  0  0  0  0  0  0  0  0  0  0
   -1.6733   -0.5660   -0.4691 H   0  0  0  0  0  0  0  0  0  0  0  0
    0.8812   -0.6570    0.0745 H   0  0  0  0  0  0  0  0  0  0  0  0
    1.2697   -1.6682    2.3524 H   0  0  0  0  0  0  0  0  0  0  0  0
   -0.3908   -1.5805    3.8450 H   0  0  0  0  0  0  0  0  0  0  0  0
   -0.1847    1.0272    2.4769 H   0  0  0  0  0  0  0  0  0  0  0  0
    1.5537    0.7884    2.1724 H   0  0  0  0  0  0  0  0  0  0  0  0
    0.8331    0.3530    3.7370 H   0  0  0  0  0  0  0  0  0  0  0  0
    0.2198   -2.6859   -1.1425 N   0  0  0  0  0  0  0  0  0  0  0  0
    0.1122   -3.9569   -1.8195 C   0  0  2  0  0  0  0  0  0  0  0  0
   -1.3284   -4.1210   -2.2856 C   0  0  0  0  0  0  0  0  0  0  0  0
   -2.2712   -3.5195   -1.7752 O   0  0  0  0  0  0  0  0  0  0  0  0
    0.5235   -5.1046   -0.9104 C   0  0  0  0  0  0  0  0  0  0  0  0
    0.6269   -1.9001   -1.6412 H   0  0  0  0  0  0  0  0  0  0  0  0
    0.7751   -3.9086   -2.6903 H   0  0  0  0  0  0  0  0  0  0  0  0
   -0.1294   -5.1689   -0.0323 H   0  0  0  0  0  0  0  0  0  0  0  0
    0.4686   -6.0647   -1.4341 H   0  0  0  0  0  0  0  0  0  0  0  0
    1.5498   -4.9696   -0.5523 H   0  0  0  0  0  0  0  0  0  0  0  0
   -1.4429   -5.0504   -3.3099 N   0  0  0  0  0  0  0  0  0  0  0  0
   -2.7092   -5.3923   -3.9145 C   0  0  0  0  0  0  0  0  0  0  0  0
   -0.6057   -5.4870   -3.6843 H   0  0  0  0  0  0  0  0  0  0  0  0
   -3.1397   -6.2627   -3.3977 H   0  0  0  0  0  0  0  0  0  0  0  0
   -3.3978   -4.5386   -3.8305 H   0  0  0  0  0  0  0  0  0  0  0  0
   -2.5547   -5.6358   -4.9760 H   0  0  0  0  0  0  0  0  0  0  0  0
  1  3  1  0  0  0  0
  1  7  1  0  0  0  0
  1  2  2  0  0  0  0
 32 33  1  0  0  0  0
 33 41  1  0  0  0  0
 33 34  2  0  0  0  0
  8  9  1  0  0  0  0
  9 17  1  0  0  0  0
  9 10  2  0  0  0  0
 18 19  1  0  0  0  0
 19 31  1  0  0  0  0
 19 20  2  0  0  0  0
 32 35  1  0  0  0  0
  8 11  1  0  0  0  0
 21 23  1  0  0  0  0
 41 42  1  0  0  0  0
 31 32  1  0  0  0  0
  7  8  1  0  0  0  0
 18 21  1  0  0  0  0
 17 18  1  0  0  0  0
 21 22  1  0  0  0  0
  3  4  1  0  0  0  0
  3  5  1  0  0  0  0
  3  6  1  0  0  0  0
 35 38  1  0  0  0  0
 35 39  1  0  0  0  0
 35 40  1  0  0  0  0
 11 14  1  0  0  0  0
 11 15  1  0  0  0  0
 11 16  1  0  0  0  0
 23 28  1  0  0  0  0
 23 29  1  0  0  0  0
 23 30  1  0  0  0  0
 42 44  1  0  0  0  0
 42 45  1  0  0  0  0
 42 46  1  0  0  0  0
 32 37  1  0  0  0  0
  8 13  1  0  0  0  0
 18 25  1  0  0  0  0
 21 26  1  0  0  0  0
 41 43  1  0  0  0  0
  7 12  1  0  0  0  0
 31 36  1  0  0  0  0
 17 24  1  0  0  0  0
 22 27  1  0  0  0  0
M  END
$$$$

  -OEChem-05262214473D

 46 45  0     1  0  0  0  0  0999 V2000
   -4.6700    2.7214    1.5150 C   0  0  0  0  0  0  0  0  0  0  0  0
   -5.4532    2.5715    0.5845 O   0  0  0  0  0  0  0  0  0  0  0  0
   -5.0996    3.4865    2.7226 C   0  0  0  0  0  0  0  0  0  0  0  0
   -4.8796    4.5629    2.6387 H   0  0  0  0  0  0  0  0  0  0  0  0
   -6.1861    3.4241    2.8954 H   0  0  0  0  0  0  0  0  0  0  0  0
   -4.6369    3.1693    3.6708 H   0  0  0  0  0  0  0  0  0  0  0  0
   -3.3731    2.2391    1.5790 N   0  0  0  0  0  0  0  0  0  0  0  0
   -2.7599    1.4751    0.5247 C   0  0  2  0  0  0  0  0  0  0  0  0
   -1.5143    0.8067    1.0915 C   0  0  0  0  0  0  0  0  0  0  0  0
   -0.9247    1.2213    2.0872 O   0  0  0  0  0  0  0  0  0  0  0  0
   -2.4106    2.3553   -0.6653 C   0  0  0  0  0  0  0  0  0  0  0  0
   -2.8254    2.4352    2.4150 H   0  0  0  0  0  0  0  0  0  0  0  0
   -3.4836    0.7082    0.2278 H   0  0  0  0  0  0  0  0  0  0  0  0
   -1.6866    3.1298   -0.3871 H   0  0  0  0  0  0  0  0  0  0  0  0
   -1.9704    1.7677   -1.4777 H   0  0  0  0  0  0  0  0  0  0  0  0
   -3.3030    2.8584   -1.0531 H   0  0  0  0  0  0  0  0  0  0  0  0
   -1.1107   -0.2839    0.3303 N   0  0  0  0  0  0  0  0  0  0  0  0
    0.0490   -1.0750    0.6539 C   0  0  2  0  0  0  0  0  0  0  0  0
   -0.2112   -2.4962    0.1628 C   0  0  0  0  0  0  0  0  0  0  0  0
   -0.9370   -3.2891    0.7593 O   0  0  0  0  0  0  0  0  0  0  0  0
    0.3883   -1.0482    2.1513 C   0  0  2  0  0  0  0  0  0  0  0  0
   -0.6878   -1.5803    2.9224 O   0  0  0  0  0  0  0  0  0  0  0  0
    0.6681    0.3629    2.6539 C   0  0  0  0  0  0  0  0  0  0  0  0
   -1.6733   -0.5660   -0.4691 H   0  0  0  0  0  0  0  0  0  0  0  0
    0.8812   -0.6570    0.0745 H   0  0  0  0  0  0  0  0  0  0  0  0
    1.2697   -1.6682    2.3524 H   0  0  0  0  0  0  0  0  0  0  0  0
   -0.3908   -1.5805    3.8450 H   0  0  0  0  0  0  0  0  0  0  0  0
   -0.1847    1.0272    2.4769 H   0  0  0  0  0  0  0  0  0  0  0  0
    1.5537    0.7884    2.1724 H   0  0  0  0  0  0  0  0  0  0  0  0
    0.8331    0.3530    3.7370 H   0  0  0  0  0  0  0  0  0  0  0  0
    0.5010   -2.7895   -0.9915 N   0  0  0  0  0  0  0  0  0  0  0  0
    0.4461   -4.0832   -1.6308 C   0  0  2  0  0  0  0  0  0  0  0  0
   -0.8500   -4.1597   -2.4271 C   0  0  0  0  0  0  0  0  0  0  0  0
   -1.8303   -3.4598   -2.1817 O   0  0  0  0  0  0  0  0  0  0  0  0
    0.5245   -5.2083   -0.6107 C   0  0  0  0  0  0  0  0  0  0  0  0
    1.0835   -2.0661   -1.4028 H   0  0  0  0  0  0  0  0  0  0  0  0
    1.2996   -4.1340   -2.3156 H   0  0  0  0  0  0  0  0  0  0  0  0
   -0.3225   -5.1738    0.0841 H   0  0  0  0  0  0  0  0  0  0  0  0
    0.5115   -6.1883   -1.0991 H   0  0  0  0  0  0  0  0  0  0  0  0
    1.4432   -5.1344   -0.0188 H   0  0  0  0  0  0  0  0  0  0  0  0
   -0.7981   -5.1317   -3.4163 N   0  0  0  0  0  0  0  0  0  0  0  0
   -1.9083   -5.4062   -4.2985 C   0  0  0  0  0  0  0  0  0  0  0  0
    0.0623   -5.6518   -3.5612 H   0  0  0  0  0  0  0  0  0  0  0  0
   -2.5254   -6.2111   -3.8726 H   0  0  0  0  0  0  0  0  0  0  0  0
   -2.5184   -4.4982   -4.4134 H   0  0  0  0  0  0  0  0  0  0  0  0
   -1.5266   -5.7183   -5.2818 H   0  0  0  0  0  0  0  0  0  0  0  0
  1  3  1  0  0  0  0
  1  7  1  0  0  0  0
  1  2  2  0  0  0  0
 32 33  1  0  0  0  0
 33 41  1  0  0  0  0
 33 34  2  0  0  0  0
  8  9  1  0  0  0  0
  9 17  1  0  0  0  0
  9 10  2  0  0  0  0
 18 19  1  0  0  0  0
 19 31  1  0  0  0  0
 19 20  2  0  0  0  0
 32 35  1  0  0  0  0
  8 11  1  0  0  0  0
 21 23  1  0  0  0  0
 41 42  1  0  0  0  0
 31 32  1  0  0  0  0
  7  8  1  0  0  0  0
 18 21  1  0  0  0  0
 17 18  1  0  0  0  0
 21 22  1  0  0  0  0
  3  4  1  0  0  0  0
  3  5  1  0  0  0  0
  3  6  1  0  0  0  0
 35 38  1  0  0  0  0
 35 39  1  0  0  0  0
 35 40  1  0  0  0  0
 11 14  1  0  0  0  0
 11 15  1  0  0  0  0
 11 16  1  0  0  0  0
 23 28  1  0  0  0  0
 23 29  1  0  0  0  0
 23 30  1  0  0  0  0
 42 44  1  0  0  0  0
 42 45  1  0  0  0  0
 42 46  1  0  0  0  0
 32 37  1  0  0  0  0
  8 13  1  0  0  0  0
 18 25  1  0  0  0  0
 21 26  1  0  0  0  0
 41 43  1  0  0  0  0
  7 12  1  0  0  0  0
 31 36  1  0  0  0  0
 17 24  1  0  0  0  0
 22 27  1  0  0  0  0
M  END
$$$$

  -OEChem-05262214473D

 46 45  0     1  0  0  0  0  0999 V2000
   -4.6700    2.7214    1.5150 C   0  0  0  0  0  0  0  0  0  0  0  0
   -5.4532    2.5715    0.5845 O   0  0  0  0  0  0  0  0  0  0  0  0
   -5.0996    3.4865    2.7226 C   0  0  0  0  0  0  0  0  0  0  0  0
   -4.8796    4.5629    2.6387 H   0  0  0  0  0  0  0  0  0  0  0  0
   -6.1861    3.4241    2.8954 H   0  0  0  0  0  0  0  0  0  0  0  0
   -4.6369    3.1693    3.6708 H   0  0  0  0  0  0  0  0  0  0  0  0
   -3.3731    2.2391    1.5790 N   0  0  0  0  0  0  0  0  0  0  0  0
   -2.7599    1.4751    0.5247 C   0  0  2  0  0  0  0  0  0  0  0  0
   -1.5143    0.8067    1.0915 C   0  0  0  0  0  0  0  0  0  0  0  0
   -0.9247    1.2213    2.0872 O   0  0  0  0  0  0  0  0  0  0  0  0
   -2.4106    2.3553   -0.6653 C   0  0  0  0  0  0  0  0  0  0  0  0
   -2.8254    2.4352    2.4150 H   0  0  0  0  0  0  0  0  0  0  0  0
   -3.4836    0.7082    0.2278 H   0  0  0  0  0  0  0  0  0  0  0  0
   -1.6866    3.1298   -0.3871 H   0  0  0  0  0  0  0  0  0  0  0  0
   -1.9704    1.7677   -1.4777 H   0  0  0  0  0  0  0  0  0  0  0  0
   -3.3030    2.8584   -1.0531 H   0  0  0  0  0  0  0  0  0  0  0  0
   -1.1107   -0.2839    0.3303 N   0  0  0  0  0  0  0  0  0  0  0  0
    0.0490   -1.0750    0.6539 C   0  0  2  0  0  0  0  0  0  0  0  0
   -0.2112   -2.4962    0.1628 C   0  0  0  0  0  0  0  0  0  0  0  0
   -1.1260   -3.1966    0.5916 O   0  0  0  0  0  0  0  0  0  0  0  0
    0.3883   -1.0482    2.1513 C   0  0  2  0  0  0  0  0  0  0  0  0
   -0.6878   -1.5803    2.9224 O   0  0  0  0  0  0  0  0  0  0  0  0
    0.6681    0.3629    2.6539 C   0  0  0  0  0  0  0  0  0  0  0  0
   -1.6733   -0.5660   -0.4691 H   0  0  0  0  0  0  0  0  0  0  0  0
    0.8812   -0.6570    0.0745 H   0  0  0  0  0  0  0  0  0  0  0  0
    1.2697   -1.6682    2.3524 H   0  0  0  0  0  0  0  0  0  0  0  0
   -0.3908   -1.5805    3.8450 H   0  0  0  0  0  0  0  0  0  0  0  0
   -0.1847    1.0272    2.4769 H   0  0  0  0  0  0  0  0  0  0  0  0
    1.5537    0.7884    2.1724 H   0  0  0  0  0  0  0  0  0  0  0  0
    0.8331    0.3530    3.7370 H   0  0  0  0  0  0  0  0  0  0  0  0
    0.7275   -2.9064   -0.7733 N   0  0  0  0  0  0  0  0  0  0  0  0
    0.7126   -4.2247   -1.3626 C   0  0  2  0  0  0  0  0  0  0  0  0
   -0.3569   -4.2431   -2.4467 C   0  0  0  0  0  0  0  0  0  0  0  0
   -1.3014   -3.4567   -2.4707 O   0  0  0  0  0  0  0  0  0  0  0  0
    0.4446   -5.2954   -0.3164 C   0  0  0  0  0  0  0  0  0  0  0  0
    1.4533   -2.2540   -1.0550 H   0  0  0  0  0  0  0  0  0  0  0  0
    1.6971   -4.3790   -1.8174 H   0  0  0  0  0  0  0  0  0  0  0  0
   -0.5375   -5.1573    0.1503 H   0  0  0  0  0  0  0  0  0  0  0  0
    0.4620   -6.2965   -0.7598 H   0  0  0  0  0  0  0  0  0  0  0  0
    1.1979   -5.2612    0.4781 H   0  0  0  0  0  0  0  0  0  0  0  0
   -0.1564   -5.2685   -3.3602 N   0  0  0  0  0  0  0  0  0  0  0  0
   -1.0432   -5.5034   -4.4758 C   0  0  0  0  0  0  0  0  0  0  0  0
    0.6640   -5.8612   -3.2740 H   0  0  0  0  0  0  0  0  0  0  0  0
   -1.8132   -6.2333   -4.1855 H   0  0  0  0  0  0  0  0  0  0  0  0
   -1.5252   -4.5582   -4.7661 H   0  0  0  0  0  0  0  0  0  0  0  0
   -0.4666   -5.8972   -5.3257 H   0  0  0  0  0  0  0  0  0  0  0  0
  1  3  1  0  0  0  0
  1  7  1  0  0  0  0
  1  2  2  0  0  0  0
 32 33  1  0  0  0  0
 33 41  1  0  0  0  0
 33 34  2  0  0  0  0
  8  9  1  0  0  0  0
  9 17  1  0  0  0  0
  9 10  2  0  0  0  0
 18 19  1  0  0  0  0
 19 31  1  0  0  0  0
 19 20  2  0  0  0  0
 32 35  1  0  0  0  0
  8 11  1  0  0  0  0
 21 23  1  0  0  0  0
 41 42  1  0  0  0  0
 31 32  1  0  0  0  0
  7  8  1  0  0  0  0
 18 21  1  0  0  0  0
 17 18  1  0  0  0  0
 21 22  1  0  0  0  0
  3  4  1  0  0  0  0
  3  5  1  0  0  0  0
  3  6  1  0  0  0  0
 35 38  1  0  0  0  0
 35 39  1  0  0  0  0
 35 40  1  0  0  0  0
 11 14  1  0  0  0  0
 11 15  1  0  0  0  0
 11 16  1  0  0  0  0
 23 28  1  0  0  0  0
 23 29  1  0  0  0  0
 23 30  1  0  0  0  0
 42 44  1  0  0  0  0
 42 45  1  0  0  0  0
 42 46  1  0  0  0  0
 32 37  1  0  0  0  0
  8 13  1  0  0  0  0
 18 25  1  0  0  0  0
 21 26  1  0  0  0  0
 41 43  1  0  0  0  0
  7 12  1  0  0  0  0
 31 36  1  0  0  0  0
 17 24  1  0  0  0  0
 22 27  1  0  0  0  0
M  END
$$$$

  -OEChem-05262214473D

 46 45  0     1  0  0  0  0  0999 V2000
   -4.6700    2.7214    1.5150 C   0  0  0  0  0  0  0  0  0  0  0  0
   -5.4532    2.5715    0.5845 O   0  0  0  0  0  0  0  0  0  0  0  0
   -5.0996    3.4865    2.7226 C   0  0  0  0  0  0  0  0  0  0  0  0
   -4.8796    4.5629    2.6387 H   0  0  0  0  0  0  0  0  0  0  0  0
   -6.1861    3.4241    2.8954 H   0  0  0  0  0  0  0  0  0  0  0  0
   -4.6369    3.1693    3.6708 H   0  0  0  0  0  0  0  0  0  0  0  0
   -3.3731    2.2391    1.5790 N   0  0  0  0  0  0  0  0  0  0  0  0
   -2.7599    1.4751    0.5247 C   0  0  2  0  0  0  0  0  0  0  0  0
   -1.5143    0.8067    1.0915 C   0  0  0  0  0  0  0  0  0  0  0  0
   -0.9247    1.2213    2.0872 O   0  0  0  0  0  0  0  0  0  0  0  0
   -2.4106    2.3553   -0.6653 C   0  0  0  0  0  0  0  0  0  0  0  0
   -2.8254    2.4352    2.4150 H   0  0  0  0  0  0  0  0  0  0  0  0
   -3.4836    0.7082    0.2278 H   0  0  0  0  0  0  0  0  0  0  0  0
   -1.6866    3.1298   -0.3871 H   0  0  0  0  0  0  0  0  0  0  0  0
   -1.9704    1.7677   -1.4777 H   0  0  0  0  0  0  0  0  0  0  0  0
   -3.3030    2.8584   -1.0531 H   0  0  0  0  0  0  0  0  0  0  0  0
   -1.1107   -0.2839    0.3303 N   0  0  0  0  0  0  0  0  0  0  0  0
    0.0490   -1.0750    0.6539 C   0  0  2  0  0  0  0  0  0  0  0  0
   -0.2112   -2.4962    0.1628 C   0  0  0  0  0  0  0  0  0  0  0  0
   -1.2604   -3.0989    0.3801 O   0  0  0  0  0  0  0  0  0  0  0  0
    0.3883   -1.0482    2.1513 C   0  0  2  0  0  0  0  0  0  0  0  0
   -0.6878   -1.5803    2.9224 O   0  0  0  0  0  0  0  0  0  0  0  0
    0.6681    0.3629    2.6539 C   0  0  0  0  0  0  0  0  0  0  0  0
   -1.6733   -0.5660   -0.4691 H   0  0  0  0  0  0  0  0  0  0  0  0
    0.8812   -0.6570    0.0745 H   0  0  0  0  0  0  0  0  0  0  0  0
    1.2697   -1.6682    2.3524 H   0  0  0  0  0  0  0  0  0  0  0  0
   -0.3908   -1.5805    3.8450 H   0  0  0  0  0  0  0  0  0  0  0  0
   -0.1847    1.0272    2.4769 H   0  0  0  0  0  0  0  0  0  0  0  0
    1.5537    0.7884    2.1724 H   0  0  0  0  0  0  0  0  0  0  0  0
    0.8331    0.3530    3.7370 H   0  0  0  0  0  0  0  0  0  0  0  0
    0.8839   -3.0285   -0.5028 N   0  0  0  0  0  0  0  0  0  0  0  0
    0.8935   -4.3717   -1.0330 C   0  0  2  0  0  0  0  0  0  0  0  0
    0.1171   -4.3657   -2.3432 C   0  0  0  0  0  0  0  0  0  0  0  0
   -0.7207   -3.5106   -2.6225 O   0  0  0  0  0  0  0  0  0  0  0  0
    0.2892   -5.3599   -0.0475 C   0  0  0  0  0  0  0  0  0  0  0  0
    1.7110   -2.4509   -0.6217 H   0  0  0  0  0  0  0  0  0  0  0  0
    1.9406   -4.6267   -1.2295 H   0  0  0  0  0  0  0  0  0  0  0  0
   -0.7598   -5.1205    0.1617 H   0  0  0  0  0  0  0  0  0  0  0  0
    0.3233   -6.3819   -0.4392 H   0  0  0  0  0  0  0  0  0  0  0  0
    0.8306   -5.3413    0.9045 H   0  0  0  0  0  0  0  0  0  0  0  0
    0.4385   -5.4517   -3.1453 N   0  0  0  0  0  0  0  0  0  0  0  0
   -0.1730   -5.6770   -4.4342 C   0  0  0  0  0  0  0  0  0  0  0  0
    1.1586   -6.1009   -2.8423 H   0  0  0  0  0  0  0  0  0  0  0  0
   -1.0516   -6.3280   -4.3150 H   0  0  0  0  0  0  0  0  0  0  0  0
   -0.4857   -4.7144   -4.8648 H   0  0  0  0  0  0  0  0  0  0  0  0
    0.5529   -6.1602   -5.1048 H   0  0  0  0  0  0  0  0  0  0  0  0
  1  3  1  0  0  0  0
  1  7  1  0  0  0  0
  1  2  2  0  0  0  0
 32 33  1  0  0  0  0
 33 41  1  0  0  0  0
 33 34  2  0  0  0  0
  8  9  1  0  0  0  0
  9 17  1  0  0  0  0
  9 10  2  0  0  0  0
 18 19  1  0  0  0  0
 19 31  1  0  0  0  0
 19 20  2  0  0  0  0
 32 35  1  0  0  0  0
  8 11  1  0  0  0  0
 21 23  1  0  0  0  0
 41 42  1  0  0  0  0
 31 32  1  0  0  0  0
  7  8  1  0  0  0  0
 18 21  1  0  0  0  0
 17 18  1  0  0  0  0
 21 22  1  0  0  0  0
  3  4  1  0  0  0  0
  3  5  1  0  0  0  0
  3  6  1  0  0  0  0
 35 38  1  0  0  0  0
 35 39  1  0  0  0  0
 35 40  1  0  0  0  0
 11 14  1  0  0  0  0
 11 15  1  0  0  0  0
 11 16  1  0  0  0  0
 23 28  1  0  0  0  0
 23 29  1  0  0  0  0
 23 30  1  0  0  0  0
 42 44  1  0  0  0  0
 42 45  1  0  0  0  0
 42 46  1  0  0  0  0
 32 37  1  0  0  0  0
  8 13  1  0  0  0  0
 18 25  1  0  0  0  0
 21 26  1  0  0  0  0
 41 43  1  0  0  0  0
  7 12  1  0  0  0  0
 31 36  1  0  0  0  0
 17 24  1  0  0  0  0
 22 27  1  0  0  0  0
M  END
$$$$

  -OEChem-05262214473D

 46 45  0     1  0  0  0  0  0999 V2000
   -4.6700    2.7214    1.5150 C   0  0  0  0  0  0  0  0  0  0  0  0
   -5.4532    2.5715    0.5845 O   0  0  0  0  0  0  0  0  0  0  0  0
   -5.0996    3.4865    2.7226 C   0  0  0  0  0  0  0  0  0  0  0  0
   -4.8796    4.5629    2.6387 H   0  0  0  0  0  0  0  0  0  0  0  0
   -6.1861    3.4241    2.8954 H   0  0  0  0  0  0  0  0  0  0  0  0
   -4.6369    3.1693    3.6708 H   0  0  0  0  0  0  0  0  0  0  0  0
   -3.3731    2.2391    1.5790 N   0  0  0  0  0  0  0  0  0  0  0  0
   -2.7599    1.4751    0.5247 C   0  0  2  0  0  0  0  0  0  0  0  0
   -1.5143    0.8067    1.0915 C   0  0  0  0  0  0  0  0  0  0  0  0
   -0.9247    1.2213    2.0872 O   0  0  0  0  0  0  0  0  0  0  0  0
   -2.4106    2.3553   -0.6653 C   0  0  0  0  0  0  0  0  0  0  0  0
   -2.8254    2.4352    2.4150 H   0  0  0  0  0  0  0  0  0  0  0  0
   -3.4836    0.7082    0.2278 H   0  0  0  0  0  0  0  0  0  0  0  0
   -1.6866    3.1298   -0.3871 H   0  0  0  0  0  0  0  0  0  0  0  0
   -1.9704    1.7677   -1.4777 H   0  0  0  0  0  0  0  0  0  0  0  0
   -3.3030    2.8584   -1.0531 H   0  0  0  0  0  0  0  0  0  0  0  0
   -1.1107   -0.2839    0.3303 N   0  0  0  0  0  0  0  0  0  0  0  0
    0.0490   -1.0750    0.6539 C   0  0  2  0  0  0  0  0  0  0  0  0
   -0.2112   -2.4962    0.1628 C   0  0  0  0  0  0  0  0  0  0  0  0
   -1.3311   -3.0026    0.1390 O   0  0  0  0  0  0  0  0  0  0  0  0
    0.3883   -1.0482    2.1513 C   0  0  2  0  0  0  0  0  0  0  0  0
   -0.6878   -1.5803    2.9224 O   0  0  0  0  0  0  0  0  0  0  0  0
    0.6681    0.3629    2.6539 C   0  0  0  0  0  0  0  0  0  0  0  0
   -1.6733   -0.5660   -0.4691 H   0  0  0  0  0  0  0  0  0  0  0  0
    0.8812   -0.6570    0.0745 H   0  0  0  0  0  0  0  0  0  0  0  0
    1.2697   -1.6682    2.3524 H   0  0  0  0  0  0  0  0  0  0  0  0
   -0.3908   -1.5805    3.8450 H   0  0  0  0  0  0  0  0  0  0  0  0
   -0.1847    1.0272    2.4769 H   0  0  0  0  0  0  0  0  0  0  0  0
    1.5537    0.7884    2.1724 H   0  0  0  0  0  0  0  0  0  0  0  0
    0.8331    0.3530    3.7370 H   0  0  0  0  0  0  0  0  0  0  0  0
    0.9597   -3.1476   -0.1984 N   0  0  0  0  0  0  0  0  0  0  0  0
    0.9766   -4.5142   -0.6645 C   0  0  2  0  0  0  0  0  0  0  0  0
    0.5397   -4.5190   -2.1235 C   0  0  0  0  0  0  0  0  0  0  0  0
   -0.1276   -3.6177   -2.6268 O   0  0  0  0  0  0  0  0  0  0  0  0
    0.0690   -5.3973    0.1776 C   0  0  0  0  0  0  0  0  0  0  0  0
    1.8391   -2.6434   -0.1324 H   0  0  0  0  0  0  0  0  0  0  0  0
    2.0134   -4.8603   -0.5920 H   0  0  0  0  0  0  0  0  0  0  0  0
   -0.9741   -5.0660    0.1175 H   0  0  0  0  0  0  0  0  0  0  0  0
    0.1049   -6.4386   -0.1592 H   0  0  0  0  0  0  0  0  0  0  0  0
    0.3664   -5.3693    1.2314 H   0  0  0  0  0  0  0  0  0  0  0  0
    0.9460   -5.6687   -2.7862 N   0  0  0  0  0  0  0  0  0  0  0  0
    0.6431   -5.9154   -4.1766 C   0  0  0  0  0  0  0  0  0  0  0  0
    1.5123   -6.3546   -2.2955 H   0  0  0  0  0  0  0  0  0  0  0  0
   -0.2927   -6.4885   -4.2525 H   0  0  0  0  0  0  0  0  0  0  0  0
    0.5291   -4.9562   -4.7027 H   0  0  0  0  0  0  0  0  0  0  0  0
    1.4625   -6.4894   -4.6340 H   0  0  0  0  0  0  0  0  0  0  0  0
  1  3  1  0  0  0  0
  1  7  1  0  0  0  0
  1  2  2  0  0  0  0
 32 33  1  0  0  0  0
 33 41  1  0  0  0  0
 33 34  2  0  0  0  0
  8  9  1  0  0  0  0
  9 17  1  0  0  0  0
  9 10  2  0  0  0  0
 18 19  1  0  0  0  0
 19 31  1  0  0  0  0
 19 20  2  0  0  0  0
 32 35  1  0  0  0  0
  8 11  1  0  0  0  0
 21 23  1  0  0  0  0
 41 42  1  0  0  0  0
 31 32  1  0  0  0  0
  7  8  1  0  0  0  0
 18 21  1  0  0  0  0
 17 18  1  0  0  0  0
 21 22  1  0  0  0  0
  3  4  1  0  0  0  0
  3  5  1  0  0  0  0
  3  6  1  0  0  0  0
 35 38  1  0  0  0  0
 35 39  1  0  0  0  0
 35 40  1  0  0  0  0
 11 14  1  0  0  0  0
 11 15  1  0  0  0  0
 11 16  1  0  0  0  0
 23 28  1  0  0  0  0
 23 29  1  0  0  0  0
 23 30  1  0  0  0  0
 42 44  1  0  0  0  0
 42 45  1  0  0  0  0
 42 46  1  0  0  0  0
 32 37  1  0  0  0  0
  8 13  1  0  0  0  0
 18 25  1  0  0  0  0
 21 26  1  0  0  0  0
 41 43  1  0  0  0  0
  7 12  1  0  0  0  0
 31 36  1  0  0  0  0
 17 24  1  0  0  0  0
 22 27  1  0  0  0  0
M  END
$$$$

  -OEChem-05262214473D

 46 45  0     1  0  0  0  0  0999 V2000
   -4.6700    2.7214    1.5150 C   0  0  0  0  0  0  0  0  0  0  0  0
   -5.4532    2.5715    0.5845 O   0  0  0  0  0  0  0  0  0  0  0  0
   -5.0996    3.4865    2.7226 C   0  0  0  0  0  0  0  0  0  0  0  0
   -4.8796    4.5629    2.6387 H   0  0  0  0  0  0  0  0  0  0  0  0
   -6.1861    3.4241    2.8954 H   0  0  0  0  0  0  0  0  0  0  0  0
   -4.6369    3.1693    3.6708 H   0  0  0  0  0  0  0  0  0  0  0  0
   -3.3731    2.2391    1.5790 N   0  0  0  0  0  0  0  0  0  0  0  0
   -2.7599    1.4751    0.5247 C   0  0  2  0  0  0  0  0  0  0  0  0
   -1.5143    0.8067    1.0915 C   0  0  0  0  0  0  0  0  0  0  0  0
   -0.9247    1.2213    2.0872 O   0  0  0  0  0  0  0  0  0  0  0  0
   -2.4106    2.3553   -0.6653 C   0  0  0  0  0  0  0  0  0  0  0  0
   -2.8254    2.4352    2.4150 H   0  0  0  0  0  0  0  0  0  0  0  0
   -3.4836    0.7082    0.2278 H   0  0  0  0  0  0  0  0  0  0  0  0
   -1.6866    3.1298   -0.3871 H   0  0  0  0  0  0  0  0  0  0  0  0
   -1.9704    1.7677   -1.4777 H   0  0  0  0  0  0  0  0  0  0  0  0
   -3.3030    2.8584   -1.0531 H   0  0  0  0  0  0  0  0  0  0  0  0
   -1.1107   -0.2839    0.3303 N   0  0  0  0  0  0  0  0  0  0  0  0
    0.0490   -1.0750    0.6539 C   0  0  2  0  0  0  0  0  0  0  0  0
   -0.2112   -2.4962    0.1628 C   0  0  0  0  0  0  0  0  0  0  0  0
   -1.3333   -2.9144   -0.1151 O   0  0  0  0  0  0  0  0  0  0  0  0
    0.3883   -1.0482    2.1513 C   0  0  2  0  0  0  0  0  0  0  0  0
   -0.6878   -1.5803    2.9224 O   0  0  0  0  0  0  0  0  0  0  0  0
    0.6681    0.3629    2.6539 C   0  0  0  0  0  0  0  0  0  0  0  0
   -1.6733   -0.5660   -0.4691 H   0  0  0  0  0  0  0  0  0  0  0  0
    0.8812   -0.6570    0.0745 H   0  0  0  0  0  0  0  0  0  0  0  0
    1.2697   -1.6682    2.3524 H   0  0  0  0  0  0  0  0  0  0  0  0
   -0.3908   -1.5805    3.8450 H   0  0  0  0  0  0  0  0  0  0  0  0
   -0.1847    1.0272    2.4769 H   0  0  0  0  0  0  0  0  0  0  0  0
    1.5537    0.7884    2.1724 H   0  0  0  0  0  0  0  0  0  0  0  0
    0.8331    0.3530    3.7370 H   0  0  0  0  0  0  0  0  0  0  0  0
    0.9496   -3.2554    0.1192 N   0  0  0  0  0  0  0  0  0  0  0  0
    0.9562   -4.6426   -0.2822 C   0  0  2  0  0  0  0  0  0  0  0  0
    0.8823   -4.6926   -1.8026 C   0  0  0  0  0  0  0  0  0  0  0  0
    0.4373   -3.7707   -2.4832 O   0  0  0  0  0  0  0  0  0  0  0  0
   -0.2011   -5.4052    0.3436 C   0  0  0  0  0  0  0  0  0  0  0  0
    1.8288   -2.8185    0.3797 H   0  0  0  0  0  0  0  0  0  0  0  0
    1.9107   -5.0639    0.0516 H   0  0  0  0  0  0  0  0  0  0  0  0
   -1.1660   -4.9974    0.0207 H   0  0  0  0  0  0  0  0  0  0  0  0
   -0.1782   -6.4629    0.0611 H   0  0  0  0  0  0  0  0  0  0  0  0
   -0.1631   -5.3432    1.4365 H   0  0  0  0  0  0  0  0  0  0  0  0
    1.3317   -5.9048   -2.3074 N   0  0  0  0  0  0  0  0  0  0  0  0
    1.3495   -6.2023   -3.7206 C   0  0  0  0  0  0  0  0  0  0  0  0
    1.7010   -6.6050   -1.6709 H   0  0  0  0  0  0  0  0  0  0  0  0
    0.4119   -6.7041   -4.0020 H   0  0  0  0  0  0  0  0  0  0  0  0
    1.4502   -5.2671   -4.2908 H   0  0  0  0  0  0  0  0  0  0  0  0
    2.2002   -6.8624   -3.9455 H   0  0  0  0  0  0  0  0  0  0  0  0
  1  3  1  0  0  0  0
  1  7  1  0  0  0  0
  1  2  2  0  0  0  0
 32 33  1  0  0  0  0
 33 41  1  0  0  0  0
 33 34  2  0  0  0  0
  8  9  1  0  0  0  0
  9 17  1  0  0  0  0
  9 10  2  0  0  0  0
 18 19  1  0  0  0  0
 19 31  1  0  0  0  0
 19 20  2  0  0  0  0
 32 35  1  0  0  0  0
  8 11  1  0  0  0  0
 21 23  1  0  0  0  0
 41 42  1  0  0  0  0
 31 32  1  0  0  0  0
  7  8  1  0  0  0  0
 18 21  1  0  0  0  0
 17 18  1  0  0  0  0
 21 22  1  0  0  0  0
  3  4  1  0  0  0  0
  3  5  1  0  0  0  0
  3  6  1  0  0  0  0
 35 38  1  0  0  0  0
 35 39  1  0  0  0  0
 35 40  1  0  0  0  0
 11 14  1  0  0  0  0
 11 15  1  0  0  0  0
 11 16  1  0  0  0  0
 23 28  1  0  0  0  0
 23 29  1  0  0  0  0
 23 30  1  0  0  0  0
 42 44  1  0  0  0  0
 42 45  1  0  0  0  0
 42 46  1  0  0  0  0
 32 37  1  0  0  0  0
  8 13  1  0  0  0  0
 18 25  1  0  0  0  0
 21 26  1  0  0  0  0
 41 43  1  0  0  0  0
  7 12  1  0  0  0  0
 31 36  1  0  0  0  0
 17 24  1  0  0  0  0
 22 27  1  0  0  0  0
M  END
$$$$

  -OEChem-05262214473D

 46 45  0     1  0  0  0  0  0999 V2000
   -4.6700    2.7214    1.5150 C   0  0  0  0  0  0  0  0  0  0  0  0
   -5.4532    2.5715    0.5845 O   0  0  0  0  0  0  0  0  0  0  0  0
   -5.0996    3.4865    2.7226 C   0  0  0  0  0  0  0  0  0  0  0  0
   -4.8796    4.5629    2.6387 H   0  0  0  0  0  0  0  0  0  0  0  0
   -6.1861    3.4241    2.8954 H   0  0  0  0  0  0  0  0  0  0  0  0
   -4.6369    3.1693    3.6708 H   0  0  0  0  0  0  0  0  0  0  0  0
   -3.3731    2.2391    1.5790 N   0  0  0  0  0  0  0  0  0  0  0  0
   -2.7599    1.4751    0.5247 C   0  0  2  0  0  0  0  0  0  0  0  0
   -1.5143    0.8067    1.0915 C   0  0  0  0  0  0  0  0  0  0  0  0
   -0.9247    1.2213    2.0872 O   0  0  0  0  0  0  0  0  0  0  0  0
   -2.4106    2.3553   -0.6653 C   0  0  0  0  0  0  0  0  0  0  0  0
   -2.8254    2.4352    2.4150 H   0  0  0  0  0  0  0  0  0  0  0  0
   -3.4836    0.7082    0.2278 H   0  0  0  0  0  0  0  0  0  0  0  0
   -1.6866    3.1298   -0.3871 H   0  0  0  0  0  0  0  0  0  0  0  0
   -1.9704    1.7677   -1.4777 H   0  0  0  0  0  0  0  0  0  0  0  0
   -3.3030    2.8584   -1.0531 H   0  0  0  0  0  0  0  0  0  0  0  0
   -1.1107   -0.2839    0.3303 N   0  0  0  0  0  0  0  0  0  0  0  0
    0.0490   -1.0750    0.6539 C   0  0  2  0  0  0  0  0  0  0  0  0
   -0.0373   -2.3692   -0.1500 C   0  0  0  0  0  0  0  0  0  0  0  0
   -0.9832   -2.6383   -0.8875 O   0  0  0  0  0  0  0  0  0  0  0  0
    0.1787   -1.3525    2.1587 C   0  0  2  0  0  0  0  0  0  0  0  0
   -0.9504   -2.0821    2.6366 O   0  0  0  0  0  0  0  0  0  0  0  0
    0.2835   -0.0697    2.9746 C   0  0  0  0  0  0  0  0  0  0  0  0
   -1.6733   -0.5660   -0.4691 H   0  0  0  0  0  0  0  0  0  0  0  0
    0.9194   -0.5080    0.3019 H   0  0  0  0  0  0  0  0  0  0  0  0
    1.0675   -1.9625    2.3574 H   0  0  0  0  0  0  0  0  0  0  0  0
   -0.7824   -2.2657    3.5734 H   0  0  0  0  0  0  0  0  0  0  0  0
   -0.5836    0.5796    2.8124 H   0  0  0  0  0  0  0  0  0  0  0  0
    1.1928    0.4861    2.7268 H   0  0  0  0  0  0  0  0  0  0  0  0
    0.3000   -0.3025    4.0450 H   0  0  0  0  0  0  0  0  0  0  0  0
    1.0414   -3.2081    0.0915 N   0  0  0  0  0  0  0  0  0  0  0  0
    1.1700   -4.5064   -0.5274 C   0  0  2  0  0  0  0  0  0  0  0  0
    1.6662   -4.3009   -1.9526 C   0  0  0  0  0  0  0  0  0  0  0  0
    1.5244   -3.2455   -2.5666 O   0  0  0  0  0  0  0  0  0  0  0  0
   -0.1516   -5.2586   -0.5152 C   0  0  0  0  0  0  0  0  0  0  0  0
    1.7689   -2.8968    0.7286 H   0  0  0  0  0  0  0  0  0  0  0  0
    1.9234   -5.0571    0.0463 H   0  0  0  0  0  0  0  0  0  0  0  0
   -0.9189   -4.7221   -1.0851 H   0  0  0  0  0  0  0  0  0  0  0  0
   -0.0457   -6.2540   -0.9591 H   0  0  0  0  0  0  0  0  0  0  0  0
   -0.5218   -5.3794    0.5086 H   0  0  0  0  0  0  0  0  0  0  0  0
    2.2476   -5.4485   -2.4734 N   0  0  0  0  0  0  0  0  0  0  0  0
    2.7841   -5.5117   -3.8128 C   0  0  0  0  0  0  0  0  0  0  0  0
    2.3399   -6.2724   -1.8865 H   0  0  0  0  0  0  0  0  0  0  0  0
    2.0090   -5.8782   -4.5020 H   0  0  0  0  0  0  0  0  0  0  0  0
    3.1079   -4.5081   -4.1257 H   0  0  0  0  0  0  0  0  0  0  0  0
    3.6445   -6.1968   -3.8311 H   0  0  0  0  0  0  0  0  0  0  0  0
  1  3  1  0  0  0  0
  1  7  1  0  0  0  0
  1  2  2  0  0  0  0
 32 33  1  0  0  0  0
 33 41  1  0  0  0  0
 33 34  2  0  0  0  0
  8  9  1  0  0  0  0
  9 17  1  0  0  0  0
  9 10  2  0  0  0  0
 18 19  1  0  0  0  0
 19 31  1  0  0  0  0
 19 20  2  0  0  0  0
 32 35  1  0  0  0  0
  8 11  1  0  0  0  0
 21 23  1  0  0  0  0
 41 42  1  0  0  0  0
 31 32  1  0  0  0  0
  7  8  1  0  0  0  0
 18 21  1  0  0  0  0
 17 18  1  0  0  0  0
 21 22  1  0  0  0  0
  3  4  1  0  0  0  0
  3  5  1  0  0  0  0
  3  6  1  0  0  0  0
 35 38  1  0  0  0  0
 35 39  1  0  0  0  0
 35 40  1  0  0  0  0
 11 14  1  0  0  0  0
 11 15  1  0  0  0  0
 11 16  1  0  0  0  0
 23 28  1  0  0  0  0
 23 29  1  0  0  0  0
 23 30  1  0  0  0  0
 42 44  1  0  0  0  0
 42 45  1  0  0  0  0
 42 46  1  0  0  0  0
 32 37  1  0  0  0  0
  8 13  1  0  0  0  0
 18 25  1  0  0  0  0
 21 26  1  0  0  0  0
 41 43  1  0  0  0  0
  7 12  1  0  0  0  0
 31 36  1  0  0  0  0
 17 24  1  0  0  0  0
 22 27  1  0  0  0  0
M  END
$$$$

  -OEChem-05262214473D

 46 45  0     1  0  0  0  0  0999 V2000
   -4.6700    2.7214    1.5150 C   0  0  0  0  0  0  0  0  0  0  0  0
   -5.4532    2.5715    0.5845 O   0  0  0  0  0  0  0  0  0  0  0  0
   -5.0996    3.4865    2.7226 C   0  0  0  0  0  0  0  0  0  0  0  0
   -4.8796    4.5629    2.6387 H   0  0  0  0  0  0  0  0  0  0  0  0
   -6.1861    3.4241    2.8954 H   0  0  0  0  0  0  0  0  0  0  0  0
   -4.6369    3.1693    3.6708 H   0  0  0  0  0  0  0  0  0  0  0  0
   -3.3731    2.2391    1.5790 N   0  0  0  0  0  0  0  0  0  0  0  0
   -2.7599    1.4751    0.5247 C   0  0  2  0  0  0  0  0  0  0  0  0
   -1.5143    0.8067    1.0915 C   0  0  0  0  0  0  0  0  0  0  0  0
   -0.9247    1.2213    2.0872 O   0  0  0  0  0  0  0  0  0  0  0  0
   -2.4106    2.3553   -0.6653 C   0  0  0  0  0  0  0  0  0  0  0  0
   -2.8254    2.4352    2.4150 H   0  0  0  0  0  0  0  0  0  0  0  0
   -3.4836    0.7082    0.2278 H   0  0  0  0  0  0  0  0  0  0  0  0
   -1.6866    3.1298   -0.3871 H   0  0  0  0  0  0  0  0  0  0  0  0
   -1.9704    1.7677   -1.4777 H   0  0  0  0  0  0  0  0  0  0  0  0
   -3.3030    2.8584   -1.0531 H   0  0  0  0  0  0  0  0  0  0  0  0
   -1.1107   -0.2839    0.3303 N   0  0  0  0  0  0  0  0  0  0  0  0
    0.0490   -1.0750    0.6539 C   0  0  2  0  0  0  0  0  0  0  0  0
   -0.0373   -2.3692   -0.1500 C   0  0  0  0  0  0  0  0  0  0  0  0
   -0.8271   -2.5303   -1.0781 O   0  0  0  0  0  0  0  0  0  0  0  0
    0.1787   -1.3525    2.1587 C   0  0  2  0  0  0  0  0  0  0  0  0
   -0.9504   -2.0821    2.6366 O   0  0  0  0  0  0  0  0  0  0  0  0
    0.2835   -0.0697    2.9746 C   0  0  0  0  0  0  0  0  0  0  0  0
   -1.6733   -0.5660   -0.4691 H   0  0  0  0  0  0  0  0  0  0  0  0
    0.9194   -0.5080    0.3019 H   0  0  0  0  0  0  0  0  0  0  0  0
    1.0675   -1.9625    2.3574 H   0  0  0  0  0  0  0  0  0  0  0  0
   -0.7824   -2.2657    3.5734 H   0  0  0  0  0  0  0  0  0  0  0  0
   -0.5836    0.5796    2.8124 H   0  0  0  0  0  0  0  0  0  0  0  0
    1.1928    0.4861    2.7268 H   0  0  0  0  0  0  0  0  0  0  0  0
    0.3000   -0.3025    4.0450 H   0  0  0  0  0  0  0  0  0  0  0  0
    0.8362   -3.3382    0.3230 N   0  0  0  0  0  0  0  0  0  0  0  0
    0.9166   -4.6599   -0.2532 C   0  0  2  0  0  0  0  0  0  0  0  0
    1.7357   -4.5657   -1.5337 C   0  0  0  0  0  0  0  0  0  0  0  0
    1.8785   -3.5196   -2.1632 O   0  0  0  0  0  0  0  0  0  0  0  0
   -0.4666   -5.2265   -0.5331 C   0  0  0  0  0  0  0  0  0  0  0  0
    1.4428   -3.1088    1.1049 H   0  0  0  0  0  0  0  0  0  0  0  0
    1.4430   -5.2897    0.4723 H   0  0  0  0  0  0  0  0  0  0  0  0
   -1.0093   -4.6088   -1.2579 H   0  0  0  0  0  0  0  0  0  0  0  0
   -0.4047   -6.2399   -0.9434 H   0  0  0  0  0  0  0  0  0  0  0  0
   -1.0646   -5.2657    0.3838 H   0  0  0  0  0  0  0  0  0  0  0  0
    2.2527   -5.7962   -1.9142 N   0  0  0  0  0  0  0  0  0  0  0  0
    3.0550   -5.9711   -3.1023 C   0  0  0  0  0  0  0  0  0  0  0  0
    2.1000   -6.6071   -1.3219 H   0  0  0  0  0  0  0  0  0  0  0  0
    2.4062   -6.2502   -3.9457 H   0  0  0  0  0  0  0  0  0  0  0  0
    3.5746   -5.0300   -3.3355 H   0  0  0  0  0  0  0  0  0  0  0  0
    3.7956   -6.7661   -2.9308 H   0  0  0  0  0  0  0  0  0  0  0  0
  1  3  1  0  0  0  0
  1  7  1  0  0  0  0
  1  2  2  0  0  0  0
 32 33  1  0  0  0  0
 33 41  1  0  0  0  0
 33 34  2  0  0  0  0
  8  9  1  0  0  0  0
  9 17  1  0  0  0  0
  9 10  2  0  0  0  0
 18 19  1  0  0  0  0
 19 31  1  0  0  0  0
 19 20  2  0  0  0  0
 32 35  1  0  0  0  0
  8 11  1  0  0  0  0
 21 23  1  0  0  0  0
 41 42  1  0  0  0  0
 31 32  1  0  0  0  0
  7  8  1  0  0  0  0
 18 21  1  0  0  0  0
 17 18  1  0  0  0  0
 21 22  1  0  0  0  0
  3  4  1  0  0  0  0
  3  5  1  0  0  0  0
  3  6  1  0  0  0  0
 35 38  1  0  0  0  0
 35 39  1  0  0  0  0
 35 40  1  0  0  0  0
 11 14  1  0  0  0  0
 11 15  1  0  0  0  0
 11 16  1  0  0  0  0
 23 28  1  0  0  0  0
 23 29  1  0  0  0  0
 23 30  1  0  0  0  0
 42 44  1  0  0  0  0
 42 45  1  0  0  0  0
 42 46  1  0  0  0  0
 32 37  1  0  0  0  0
  8 13  1  0  0  0  0
 18 25  1  0  0  0  0
 21 26  1  0  0  0  0
 41 43  1  0  0  0  0
  7 12  1  0  0  0  0
 31 36  1  0  0  0  0
 17 24  1  0  0  0  0
 22 27  1  0  0  0  0
M  END
$$$$

  -OEChem-05262214473D

 46 45  0     1  0  0  0  0  0999 V2000
   -4.6700    2.7214    1.5150 C   0  0  0  0  0  0  0  0  0  0  0  0
   -5.4532    2.5715    0.5845 O   0  0  0  0  0  0  0  0  0  0  0  0
   -5.0996    3.4865    2.7226 C   0  0  0  0  0  0  0  0  0  0  0  0
   -4.8796    4.5629    2.6387 H   0  0  0  0  0  0  0  0  0  0  0  0
   -6.1861    3.4241    2.8954 H   0  0  0  0  0  0  0  0  0  0  0  0
   -4.6369    3.1693    3.6708 H   0  0  0  0  0  0  0  0  0  0  0  0
   -3.3731    2.2391    1.5790 N   0  0  0  0  0  0  0  0  0  0  0  0
   -2.7599    1.4751    0.5247 C   0  0  2  0  0  0  0  0  0  0  0  0
   -1.5143    0.8067    1.0915 C   0  0  0  0  0  0  0  0  0  0  0  0
   -0.9247    1.2213    2.0872 O   0  0  0  0  0  0  0  0  0  0  0  0
   -2.4106    2.3553   -0.6653 C   0  0  0  0  0  0  0  0  0  0  0  0
   -2.8254    2.4352    2.4150 H   0  0  0  0  0  0  0  0  0  0  0  0
   -3.4836    0.7082    0.2278 H   0  0  0  0  0  0  0  0  0  0  0  0
   -1.6866    3.1298   -0.3871 H   0  0  0  0  0  0  0  0  0  0  0  0
   -1.9704    1.7677   -1.4777 H   0  0  0  0  0  0  0  0  0  0  0  0
   -3.3030    2.8584   -1.0531 H   0  0  0  0  0  0  0  0  0  0  0  0
   -1.1107   -0.2839    0.3303 N   0  0  0  0  0  0  0  0  0  0  0  0
    0.0490   -1.0750    0.6539 C   0  0  2  0  0  0  0  0  0  0  0  0
   -0.0373   -2.3692   -0.1500 C   0  0  0  0  0  0  0  0  0  0  0  0
   -0.6197   -2.4501   -1.2296 O   0  0  0  0  0  0  0  0  0  0  0  0
    0.1787   -1.3525    2.1587 C   0  0  2  0  0  0  0  0  0  0  0  0
   -0.9504   -2.0821    2.6366 O   0  0  0  0  0  0  0  0  0  0  0  0
    0.2835   -0.0697    2.9746 C   0  0  0  0  0  0  0  0  0  0  0  0
   -1.6733   -0.5660   -0.4691 H   0  0  0  0  0  0  0  0  0  0  0  0
    0.9194   -0.5080    0.3019 H   0  0  0  0  0  0  0  0  0  0  0  0
    1.0675   -1.9625    2.3574 H   0  0  0  0  0  0  0  0  0  0  0  0
   -0.7824   -2.2657    3.5734 H   0  0  0  0  0  0  0  0  0  0  0  0
   -0.5836    0.5796    2.8124 H   0  0  0  0  0  0  0  0  0  0  0  0
    1.1928    0.4861    2.7268 H   0  0  0  0  0  0  0  0  0  0  0  0
    0.3000   -0.3025    4.0450 H   0  0  0  0  0  0  0  0  0  0  0  0
    0.5695   -3.4325    0.5034 N   0  0  0  0  0  0  0  0  0  0  0  0
    0.5907   -4.7696   -0.0416 C   0  0  2  0  0  0  0  0  0  0  0  0
    1.6747   -4.8249   -1.1100 C   0  0  0  0  0  0  0  0  0  0  0  0
    2.0945   -3.8268   -1.6919 O   0  0  0  0  0  0  0  0  0  0  0  0
   -0.7626   -5.1528   -0.6201 C   0  0  0  0  0  0  0  0  0  0  0  0
    1.0163   -3.2637    1.3999 H   0  0  0  0  0  0  0  0  0  0  0  0
    0.8538   -5.4426    0.7817 H   0  0  0  0  0  0  0  0  0  0  0  0
   -1.0432   -4.4895   -1.4463 H   0  0  0  0  0  0  0  0  0  0  0  0
   -0.7530   -6.1770   -1.0071 H   0  0  0  0  0  0  0  0  0  0  0  0
   -1.5460   -5.0837    0.1424 H   0  0  0  0  0  0  0  0  0  0  0  0
    2.0875   -6.1246   -1.3678 N   0  0  0  0  0  0  0  0  0  0  0  0
    3.0980   -6.4413   -2.3499 C   0  0  0  0  0  0  0  0  0  0  0  0
    1.6987   -6.8895   -0.8242 H   0  0  0  0  0  0  0  0  0  0  0  0
    2.6170   -6.6556   -3.3157 H   0  0  0  0  0  0  0  0  0  0  0  0
    3.7808   -5.5862   -2.4622 H   0  0  0  0  0  0  0  0  0  0  0  0
    3.6663   -7.3234   -2.0197 H   0  0  0  0  0  0  0  0  0  0  0  0
  1  3  1  0  0  0  0
  1  7  1  0  0  0  0
  1  2  2  0  0  0  0
 32 33  1  0  0  0  0
 33 41  1  0  0  0  0
 33 34  2  0  0  0  0
  8  9  1  0  0  0  0
  9 17  1  0  0  0  0
  9 10  2  0  0  0  0
 18 19  1  0  0  0  0
 19 31  1  0  0  0  0
 19 20  2  0  0  0  0
 32 35  1  0  0  0  0
  8 11  1  0  0  0  0
 21 23  1  0  0  0  0
 41 42  1  0  0  0  0
 31 32  1  0  0  0  0
  7  8  1  0  0  0  0
 18 21  1  0  0  0  0
 17 18  1  0  0  0  0
 21 22  1  0  0  0  0
  3  4  1  0  0  0  0
  3  5  1  0  0  0  0
  3  6  1  0  0  0  0
 35 38  1  0  0  0  0
 35 39  1  0  0  0  0
 35 40  1  0  0  0  0
 11 14  1  0  0  0  0
 11 15  1  0  0  0  0
 11 16  1  0  0  0  0
 23 28  1  0  0  0  0
 23 29  1  0  0  0  0
 23 30  1  0  0  0  0
 42 44  1  0  0  0  0
 42 45  1  0  0  0  0
 42 46  1  0  0  0  0
 32 37  1  0  0  0  0
  8 13  1  0  0  0  0
 18 25  1  0  0  0  0
 21 26  1  0  0  0  0
 41 43  1  0  0  0  0
  7 12  1  0  0  0  0
 31 36  1  0  0  0  0
 17 24  1  0  0  0  0
 22 27  1  0  0  0  0
M  END
$$$$

  -OEChem-05262214473D

 46 45  0     1  0  0  0  0  0999 V2000
   -4.6700    2.7214    1.5150 C   0  0  0  0  0  0  0  0  0  0  0  0
   -5.4532    2.5715    0.5845 O   0  0  0  0  0  0  0  0  0  0  0  0
   -5.0996    3.4865    2.7226 C   0  0  0  0  0  0  0  0  0  0  0  0
   -4.8796    4.5629    2.6387 H   0  0  0  0  0  0  0  0  0  0  0  0
   -6.1861    3.4241    2.8954 H   0  0  0  0  0  0  0  0  0  0  0  0
   -4.6369    3.1693    3.6708 H   0  0  0  0  0  0  0  0  0  0  0  0
   -3.3731    2.2391    1.5790 N   0  0  0  0  0  0  0  0  0  0  0  0
   -2.7599    1.4751    0.5247 C   0  0  2  0  0  0  0  0  0  0  0  0
   -1.5143    0.8067    1.0915 C   0  0  0  0  0  0  0  0  0  0  0  0
   -0.9247    1.2213    2.0872 O   0  0  0  0  0  0  0  0  0  0  0  0
   -2.4106    2.3553   -0.6653 C   0  0  0  0  0  0  0  0  0  0  0  0
   -2.8254    2.4352    2.4150 H   0  0  0  0  0  0  0  0  0  0  0  0
   -3.4836    0.7082    0.2278 H   0  0  0  0  0  0  0  0  0  0  0  0
   -1.6866    3.1298   -0.3871 H   0  0  0  0  0  0  0  0  0  0  0  0
   -1.9704    1.7677   -1.4777 H   0  0  0  0  0  0  0  0  0  0  0  0
   -3.3030    2.8584   -1.0531 H   0  0  0  0  0  0  0  0  0  0  0  0
   -1.1107   -0.2839    0.3303 N   0  0  0  0  0  0  0  0  0  0  0  0
    0.0490   -1.0750    0.6539 C   0  0  2  0  0  0  0  0  0  0  0  0
   -0.0373   -2.3692   -0.1500 C   0  0  0  0  0  0  0  0  0  0  0  0
   -0.3752   -2.4031   -1.3315 O   0  0  0  0  0  0  0  0  0  0  0  0
    0.1787   -1.3525    2.1587 C   0  0  2  0  0  0  0  0  0  0  0  0
   -0.9504   -2.0821    2.6366 O   0  0  0  0  0  0  0  0  0  0  0  0
    0.2835   -0.0697    2.9746 C   0  0  0  0  0  0  0  0  0  0  0  0
   -1.6733   -0.5660   -0.4691 H   0  0  0  0  0  0  0  0  0  0  0  0
    0.9194   -0.5080    0.3019 H   0  0  0  0  0  0  0  0  0  0  0  0
    1.0675   -1.9625    2.3574 H   0  0  0  0  0  0  0  0  0  0  0  0
   -0.7824   -2.2657    3.5734 H   0  0  0  0  0  0  0  0  0  0  0  0
   -0.5836    0.5796    2.8124 H   0  0  0  0  0  0  0  0  0  0  0  0
    1.1928    0.4861    2.7268 H   0  0  0  0  0  0  0  0  0  0  0  0
    0.3000   -0.3025    4.0450 H   0  0  0  0  0  0  0  0  0  0  0  0
    0.2595   -3.4845    0.6205 N   0  0  0  0  0  0  0  0  0  0  0  0
    0.2145   -4.8280    0.0927 C   0  0  2  0  0  0  0  0  0  0  0  0
    1.4875   -5.0607   -0.7103 C   0  0  0  0  0  0  0  0  0  0  0  0
    2.1579   -4.1461   -1.1847 O   0  0  0  0  0  0  0  0  0  0  0  0
   -1.0193   -5.0425   -0.7701 C   0  0  0  0  0  0  0  0  0  0  0  0
    0.5184   -3.3508    1.5936 H   0  0  0  0  0  0  0  0  0  0  0  0
    0.1959   -5.5054    0.9534 H   0  0  0  0  0  0  0  0  0  0  0  0
   -1.0184   -4.3724   -1.6375 H   0  0  0  0  0  0  0  0  0  0  0  0
   -1.0668   -6.0698   -1.1461 H   0  0  0  0  0  0  0  0  0  0  0  0
   -1.9332   -4.8457   -0.1991 H   0  0  0  0  0  0  0  0  0  0  0  0
    1.7632   -6.4113   -0.8715 N   0  0  0  0  0  0  0  0  0  0  0  0
    2.9103   -6.8904   -1.6067 C   0  0  0  0  0  0  0  0  0  0  0  0
    1.1633   -7.1002   -0.4275 H   0  0  0  0  0  0  0  0  0  0  0  0
    2.6271   -7.0667   -2.6550 H   0  0  0  0  0  0  0  0  0  0  0  0
    3.7124   -6.1388   -1.5652 H   0  0  0  0  0  0  0  0  0  0  0  0
    3.2654   -7.8308   -1.1599 H   0  0  0  0  0  0  0  0  0  0  0  0
  1  3  1  0  0  0  0
  1  7  1  0  0  0  0
  1  2  2  0  0  0  0
 32 33  1  0  0  0  0
 33 41  1  0  0  0  0
 33 34  2  0  0  0  0
  8  9  1  0  0  0  0
  9 17  1  0  0  0  0
  9 10  2  0  0  0  0
 18 19  1  0  0  0  0
 19 31  1  0  0  0  0
 19 20  2  0  0  0  0
 32 35  1  0  0  0  0
  8 11  1  0  0  0  0
 21 23  1  0  0  0  0
 41 42  1  0  0  0  0
 31 32  1  0  0  0  0
  7  8  1  0  0  0  0
 18 21  1  0  0  0  0
 17 18  1  0  0  0  0
 21 22  1  0  0  0  0
  3  4  1  0  0  0  0
  3  5  1  0  0  0  0
  3  6  1  0  0  0  0
 35 38  1  0  0  0  0
 35 39  1  0  0  0  0
 35 40  1  0  0  0  0
 11 14  1  0  0  0  0
 11 15  1  0  0  0  0
 11 16  1  0  0  0  0
 23 28  1  0  0  0  0
 23 29  1  0  0  0  0
 23 30  1  0  0  0  0
 42 44  1  0  0  0  0
 42 45  1  0  0  0  0
 42 46  1  0  0  0  0
 32 37  1  0  0  0  0
  8 13  1  0  0  0  0
 18 25  1  0  0  0  0
 21 26  1  0  0  0  0
 41 43  1  0  0  0  0
  7 12  1  0  0  0  0
 31 36  1  0  0  0  0
 17 24  1  0  0  0  0
 22 27  1  0  0  0  0
M  END
$$$$

  -OEChem-05262214473D

 46 45  0     1  0  0  0  0  0999 V2000
   -4.6700    2.7214    1.5150 C   0  0  0  0  0  0  0  0  0  0  0  0
   -5.4532    2.5715    0.5845 O   0  0  0  0  0  0  0  0  0  0  0  0
   -5.0996    3.4865    2.7226 C   0  0  0  0  0  0  0  0  0  0  0  0
   -4.8796    4.5629    2.6387 H   0  0  0  0  0  0  0  0  0  0  0  0
   -6.1861    3.4241    2.8954 H   0  0  0  0  0  0  0  0  0  0  0  0
   -4.6369    3.1693    3.6708 H   0  0  0  0  0  0  0  0  0  0  0  0
   -3.3731    2.2391    1.5790 N   0  0  0  0  0  0  0  0  0  0  0  0
   -2.7599    1.4751    0.5247 C   0  0  2  0  0  0  0  0  0  0  0  0
   -1.5143    0.8067    1.0915 C   0  0  0  0  0  0  0  0  0  0  0  0
   -0.9247    1.2213    2.0872 O   0  0  0  0  0  0  0  0  0  0  0  0
   -2.4106    2.3553   -0.6653 C   0  0  0  0  0  0  0  0  0  0  0  0
   -2.8254    2.4352    2.4150 H   0  0  0  0  0  0  0  0  0  0  0  0
   -3.4836    0.7082    0.2278 H   0  0  0  0  0  0  0  0  0  0  0  0
   -1.6866    3.1298   -0.3871 H   0  0  0  0  0  0  0  0  0  0  0  0
   -1.9704    1.7677   -1.4777 H   0  0  0  0  0  0  0  0  0  0  0  0
   -3.3030    2.8584   -1.0531 H   0  0  0  0  0  0  0  0  0  0  0  0
   -1.1107   -0.2839    0.3303 N   0  0  0  0  0  0  0  0  0  0  0  0
    0.0490   -1.0750    0.6539 C   0  0  2  0  0  0  0  0  0  0  0  0
   -0.0373   -2.3692   -0.1500 C   0  0  0  0  0  0  0  0  0  0  0  0
   -0.1103   -2.3925   -1.3769 O   0  0  0  0  0  0  0  0  0  0  0  0
    0.1787   -1.3525    2.1587 C   0  0  2  0  0  0  0  0  0  0  0  0
   -0.9504   -2.0821    2.6366 O   0  0  0  0  0  0  0  0  0  0  0  0
    0.2835   -0.0697    2.9746 C   0  0  0  0  0  0  0  0  0  0  0  0
   -1.6733   -0.5660   -0.4691 H   0  0  0  0  0  0  0  0  0  0  0  0
    0.9194   -0.5080    0.3019 H   0  0  0  0  0  0  0  0  0  0  0  0
    1.0675   -1.9625    2.3574 H   0  0  0  0  0  0  0  0  0  0  0  0
   -0.7824   -2.2657    3.5734 H   0  0  0  0  0  0  0  0  0  0  0  0
   -0.5836    0.5796    2.8124 H   0  0  0  0  0  0  0  0  0  0  0  0
    1.1928    0.4861    2.7268 H   0  0  0  0  0  0  0  0  0  0  0  0
    0.3000   -0.3025    4.0450 H   0  0  0  0  0  0  0  0  0  0  0  0
   -0.0729   -3.4908    0.6663 N   0  0  0  0  0  0  0  0  0  0  0  0
   -0.1864   -4.8311    0.1408 C   0  0  2  0  0  0  0  0  0  0  0  0
    1.1867   -5.2571   -0.3618 C   0  0  0  0  0  0  0  0  0  0  0  0
    2.0642   -4.4557   -0.6762 O   0  0  0  0  0  0  0  0  0  0  0  0
   -1.2193   -4.9031   -0.9730 C   0  0  0  0  0  0  0  0  0  0  0  0
   -0.0169   -3.3642    1.6726 H   0  0  0  0  0  0  0  0  0  0  0  0
   -0.4858   -5.4739    0.9758 H   0  0  0  0  0  0  0  0  0  0  0  0
   -0.9364   -4.2655   -1.8184 H   0  0  0  0  0  0  0  0  0  0  0  0
   -1.3248   -5.9254   -1.3508 H   0  0  0  0  0  0  0  0  0  0  0  0
   -2.1998   -4.5681   -0.6175 H   0  0  0  0  0  0  0  0  0  0  0  0
    1.3020   -6.6367   -0.4590 N   0  0  0  0  0  0  0  0  0  0  0  0
    2.5046   -7.2878   -0.9236 C   0  0  0  0  0  0  0  0  0  0  0  0
    0.5303   -7.2250   -0.1587 H   0  0  0  0  0  0  0  0  0  0  0  0
    2.4357   -7.4555   -2.0085 H   0  0  0  0  0  0  0  0  0  0  0  0
    3.3741   -6.6502   -0.7057 H   0  0  0  0  0  0  0  0  0  0  0  0
    2.6203   -8.2536   -0.4100 H   0  0  0  0  0  0  0  0  0  0  0  0
  1  3  1  0  0  0  0
  1  7  1  0  0  0  0
  1  2  2  0  0  0  0
 32 33  1  0  0  0  0
 33 41  1  0  0  0  0
 33 34  2  0  0  0  0
  8  9  1  0  0  0  0
  9 17  1  0  0  0  0
  9 10  2  0  0  0  0
 18 19  1  0  0  0  0
 19 31  1  0  0  0  0
 19 20  2  0  0  0  0
 32 35  1  0  0  0  0
  8 11  1  0  0  0  0
 21 23  1  0  0  0  0
 41 42  1  0  0  0  0
 31 32  1  0  0  0  0
  7  8  1  0  0  0  0
 18 21  1  0  0  0  0
 17 18  1  0  0  0  0
 21 22  1  0  0  0  0
  3  4  1  0  0  0  0
  3  5  1  0  0  0  0
  3  6  1  0  0  0  0
 35 38  1  0  0  0  0
 35 39  1  0  0  0  0
 35 40  1  0  0  0  0
 11 14  1  0  0  0  0
 11 15  1  0  0  0  0
 11 16  1  0  0  0  0
 23 28  1  0  0  0  0
 23 29  1  0  0  0  0
 23 30  1  0  0  0  0
 42 44  1  0  0  0  0
 42 45  1  0  0  0  0
 42 46  1  0  0  0  0
 32 37  1  0  0  0  0
  8 13  1  0  0  0  0
 18 25  1  0  0  0  0
 21 26  1  0  0  0  0
 41 43  1  0  0  0  0
  7 12  1  0  0  0  0
 31 36  1  0  0  0  0
 17 24  1  0  0  0  0
 22 27  1  0  0  0  0
M  END
$$$$

  -OEChem-05262214473D

 46 45  0     1  0  0  0  0  0999 V2000
   -4.6700    2.7214    1.5150 C   0  0  0  0  0  0  0  0  0  0  0  0
   -5.4532    2.5715    0.5845 O   0  0  0  0  0  0  0  0  0  0  0  0
   -5.0996    3.4865    2.7226 C   0  0  0  0  0  0  0  0  0  0  0  0
   -4.8796    4.5629    2.6387 H   0  0  0  0  0  0  0  0  0  0  0  0
   -6.1861    3.4241    2.8954 H   0  0  0  0  0  0  0  0  0  0  0  0
   -4.6369    3.1693    3.6708 H   0  0  0  0  0  0  0  0  0  0  0  0
   -3.3731    2.2391    1.5790 N   0  0  0  0  0  0  0  0  0  0  0  0
   -2.7599    1.4751    0.5247 C   0  0  2  0  0  0  0  0  0  0  0  0
   -1.5143    0.8067    1.0915 C   0  0  0  0  0  0  0  0  0  0  0  0
   -0.9247    1.2213    2.0872 O   0  0  0  0  0  0  0  0  0  0  0  0
   -2.4106    2.3553   -0.6653 C   0  0  0  0  0  0  0  0  0  0  0  0
   -2.8254    2.4352    2.4150 H   0  0  0  0  0  0  0  0  0  0  0  0
   -3.4836    0.7082    0.2278 H   0  0  0  0  0  0  0  0  0  0  0  0
   -1.6866    3.1298   -0.3871 H   0  0  0  0  0  0  0  0  0  0  0  0
   -1.9704    1.7677   -1.4777 H   0  0  0  0  0  0  0  0  0  0  0  0
   -3.3030    2.8584   -1.0531 H   0  0  0  0  0  0  0  0  0  0  0  0
   -1.1107   -0.2839    0.3303 N   0  0  0  0  0  0  0  0  0  0  0  0
    0.0490   -1.0750    0.6539 C   0  0  2  0  0  0  0  0  0  0  0  0
   -0.0373   -2.3692   -0.1500 C   0  0  0  0  0  0  0  0  0  0  0  0
    0.1571   -2.4191   -1.3628 O   0  0  0  0  0  0  0  0  0  0  0  0
    0.1787   -1.3525    2.1587 C   0  0  2  0  0  0  0  0  0  0  0  0
   -0.9504   -2.0821    2.6366 O   0  0  0  0  0  0  0  0  0  0  0  0
    0.2835   -0.0697    2.9746 C   0  0  0  0  0  0  0  0  0  0  0  0
   -1.6733   -0.5660   -0.4691 H   0  0  0  0  0  0  0  0  0  0  0  0
    0.9194   -0.5080    0.3019 H   0  0  0  0  0  0  0  0  0  0  0  0
    1.0675   -1.9625    2.3574 H   0  0  0  0  0  0  0  0  0  0  0  0
   -0.7824   -2.2657    3.5734 H   0  0  0  0  0  0  0  0  0  0  0  0
   -0.5836    0.5796    2.8124 H   0  0  0  0  0  0  0  0  0  0  0  0
    1.1928    0.4861    2.7268 H   0  0  0  0  0  0  0  0  0  0  0  0
    0.3000   -0.3025    4.0450 H   0  0  0  0  0  0  0  0  0  0  0  0
   -0.4048   -3.4509    0.6377 N   0  0  0  0  0  0  0  0  0  0  0  0
   -0.5846   -4.7788    0.0993 C   0  0  2  0  0  0  0  0  0  0  0  0
    0.7929   -5.4006   -0.0884 C   0  0  0  0  0  0  0  0  0  0  0  0
    1.8199   -4.7345   -0.2011 O   0  0  0  0  0  0  0  0  0  0  0  0
   -1.3490   -4.7442   -1.2149 C   0  0  0  0  0  0  0  0  0  0  0  0
   -0.5531   -3.3030    1.6317 H   0  0  0  0  0  0  0  0  0  0  0  0
   -1.1450   -5.3501    0.8474 H   0  0  0  0  0  0  0  0  0  0  0  0
   -0.8030   -4.1760   -1.9768 H   0  0  0  0  0  0  0  0  0  0  0  0
   -1.5094   -5.7538   -1.6073 H   0  0  0  0  0  0  0  0  0  0  0  0
   -2.3276   -4.2697   -1.0842 H   0  0  0  0  0  0  0  0  0  0  0  0
    0.7352   -6.7855   -0.1586 N   0  0  0  0  0  0  0  0  0  0  0  0
    1.9086   -7.6062   -0.3469 C   0  0  0  0  0  0  0  0  0  0  0  0
   -0.1570   -7.2553   -0.0362 H   0  0  0  0  0  0  0  0  0  0  0  0
    2.0560   -7.7955   -1.4204 H   0  0  0  0  0  0  0  0  0  0  0  0
    2.7890   -7.0854    0.0577 H   0  0  0  0  0  0  0  0  0  0  0  0
    1.7749   -8.5631    0.1790 H   0  0  0  0  0  0  0  0  0  0  0  0
  1  3  1  0  0  0  0
  1  7  1  0  0  0  0
  1  2  2  0  0  0  0
 32 33  1  0  0  0  0
 33 41  1  0  0  0  0
 33 34  2  0  0  0  0
  8  9  1  0  0  0  0
  9 17  1  0  0  0  0
  9 10  2  0  0  0  0
 18 19  1  0  0  0  0
 19 31  1  0  0  0  0
 19 20  2  0  0  0  0
 32 35  1  0  0  0  0
  8 11  1  0  0  0  0
 21 23  1  0  0  0  0
 41 42  1  0  0  0  0
 31 32  1  0  0  0  0
  7  8  1  0  0  0  0
 18 21  1  0  0  0  0
 17 18  1  0  0  0  0
 21 22  1  0  0  0  0
  3  4  1  0  0  0  0
  3  5  1  0  0  0  0
  3  6  1  0  0  0  0
 35 38  1  0  0  0  0
 35 39  1  0  0  0  0
 35 40  1  0  0  0  0
 11 14  1  0  0  0  0
 11 15  1  0  0  0  0
 11 16  1  0  0  0  0
 23 28  1  0  0  0  0
 23 29  1  0  0  0  0
 23 30  1  0  0  0  0
 42 44  1  0  0  0  0
 42 45  1  0  0  0  0
 42 46  1  0  0  0  0
 32 37  1  0  0  0  0
  8 13  1  0  0  0  0
 18 25  1  0  0  0  0
 21 26  1  0  0  0  0
 41 43  1  0  0  0  0
  7 12  1  0  0  0  0
 31 36  1  0  0  0  0
 17 24  1  0  0  0  0
 22 27  1  0  0  0  0
M  END
$$$$

  -OEChem-05262214473D

 46 45  0     1  0  0  0  0  0999 V2000
   -4.6700    2.7214    1.5150 C   0  0  0  0  0  0  0  0  0  0  0  0
   -5.4532    2.5715    0.5845 O   0  0  0  0  0  0  0  0  0  0  0  0
   -5.0996    3.4865    2.7226 C   0  0  0  0  0  0  0  0  0  0  0  0
   -4.8796    4.5629    2.6387 H   0  0  0  0  0  0  0  0  0  0  0  0
   -6.1861    3.4241    2.8954 H   0  0  0  0  0  0  0  0  0  0  0  0
   -4.6369    3.1693    3.6708 H   0  0  0  0  0  0  0  0  0  0  0  0
   -3.3731    2.2391    1.5790 N   0  0  0  0  0  0  0  0  0  0  0  0
   -2.7599    1.4751    0.5247 C   0  0  2  0  0  0  0  0  0  0  0  0
   -1.5143    0.8067    1.0915 C   0  0  0  0  0  0  0  0  0  0  0  0
   -0.9247    1.2213    2.0872 O   0  0  0  0  0  0  0  0  0  0  0  0
   -2.4106    2.3553   -0.6653 C   0  0  0  0  0  0  0  0  0  0  0  0
   -2.8254    2.4352    2.4150 H   0  0  0  0  0  0  0  0  0  0  0  0
   -3.4836    0.7082    0.2278 H   0  0  0  0  0  0  0  0  0  0  0  0
   -1.6866    3.1298   -0.3871 H   0  0  0  0  0  0  0  0  0  0  0  0
   -1.9704    1.7677   -1.4777 H   0  0  0  0  0  0  0  0  0  0  0  0
   -3.3030    2.8584   -1.0531 H   0  0  0  0  0  0  0  0  0  0  0  0
   -1.1107   -0.2839    0.3303 N   0  0  0  0  0  0  0  0  0  0  0  0
    0.0490   -1.0750    0.6539 C   0  0  2  0  0  0  0  0  0  0  0  0
   -0.0373   -2.3692   -0.1500 C   0  0  0  0  0  0  0  0  0  0  0  0
    0.4086   -2.4810   -1.2902 O   0  0  0  0  0  0  0  0  0  0  0  0
    0.1787   -1.3525    2.1587 C   0  0  2  0  0  0  0  0  0  0  0  0
   -0.9504   -2.0821    2.6366 O   0  0  0  0  0  0  0  0  0  0  0  0
    0.2835   -0.0697    2.9746 C   0  0  0  0  0  0  0  0  0  0  0  0
   -1.6733   -0.5660   -0.4691 H   0  0  0  0  0  0  0  0  0  0  0  0
    0.9194   -0.5080    0.3019 H   0  0  0  0  0  0  0  0  0  0  0  0
    1.0675   -1.9625    2.3574 H   0  0  0  0  0  0  0  0  0  0  0  0
   -0.7824   -2.2657    3.5734 H   0  0  0  0  0  0  0  0  0  0  0  0
   -0.5836    0.5796    2.8124 H   0  0  0  0  0  0  0  0  0  0  0  0
    1.1928    0.4861    2.7268 H   0  0  0  0  0  0  0  0  0  0  0  0
    0.3000   -0.3025    4.0450 H   0  0  0  0  0  0  0  0  0  0  0  0
   -0.7136   -3.3676    0.5366 N   0  0  0  0  0  0  0  0  0  0  0  0
   -0.9529   -4.6746   -0.0289 C   0  0  2  0  0  0  0  0  0  0  0  0
    0.3330   -5.4817    0.0914 C   0  0  0  0  0  0  0  0  0  0  0  0
    1.4416   -4.9636    0.2083 O   0  0  0  0  0  0  0  0  0  0  0  0
   -1.3995   -4.5766   -1.4793 C   0  0  0  0  0  0  0  0  0  0  0  0
   -1.0537   -3.1714    1.4735 H   0  0  0  0  0  0  0  0  0  0  0  0
   -1.7366   -5.1426    0.5768 H   0  0  0  0  0  0  0  0  0  0  0  0
   -0.6272   -4.1101   -2.1017 H   0  0  0  0  0  0  0  0  0  0  0  0
   -1.6080   -5.5666   -1.8980 H   0  0  0  0  0  0  0  0  0  0  0  0
   -2.3079   -3.9709   -1.5673 H   0  0  0  0  0  0  0  0  0  0  0  0
    0.1015   -6.8476    0.0093 N   0  0  0  0  0  0  0  0  0  0  0  0
    1.1630   -7.8242    0.0840 C   0  0  0  0  0  0  0  0  0  0  0  0
   -0.8520   -7.1890   -0.0683 H   0  0  0  0  0  0  0  0  0  0  0  0
    1.5138   -8.0635   -0.9308 H   0  0  0  0  0  0  0  0  0  0  0  0
    1.9969   -7.4148    0.6730 H   0  0  0  0  0  0  0  0  0  0  0  0
    0.7869   -8.7381    0.5669 H   0  0  0  0  0  0  0  0  0  0  0  0
  1  3  1  0  0  0  0
  1  7  1  0  0  0  0
  1  2  2  0  0  0  0
 32 33  1  0  0  0  0
 33 41  1  0  0  0  0
 33 34  2  0  0  0  0
  8  9  1  0  0  0  0
  9 17  1  0  0  0  0
  9 10  2  0  0  0  0
 18 19  1  0  0  0  0
 19 31  1  0  0  0  0
 19 20  2  0  0  0  0
 32 35  1  0  0  0  0
  8 11  1  0  0  0  0
 21 23  1  0  0  0  0
 41 42  1  0  0  0  0
 31 32  1  0  0  0  0
  7  8  1  0  0  0  0
 18 21  1  0  0  0  0
 17 18  1  0  0  0  0
 21 22  1  0  0  0  0
  3  4  1  0  0  0  0
  3  5  1  0  0  0  0
  3  6  1  0  0  0  0
 35 38  1  0  0  0  0
 35 39  1  0  0  0  0
 35 40  1  0  0  0  0
 11 14  1  0  0  0  0
 11 15  1  0  0  0  0
 11 16  1  0  0  0  0
 23 28  1  0  0  0  0
 23 29  1  0  0  0  0
 23 30  1  0  0  0  0
 42 44  1  0  0  0  0
 42 45  1  0  0  0  0
 42 46  1  0  0  0  0
 32 37  1  0  0  0  0
  8 13  1  0  0  0  0
 18 25  1  0  0  0  0
 21 26  1  0  0  0  0
 41 43  1  0  0  0  0
  7 12  1  0  0  0  0
 31 36  1  0  0  0  0
 17 24  1  0  0  0  0
 22 27  1  0  0  0  0
M  END
$$$$

  -OEChem-05262214473D

 46 45  0     1  0  0  0  0  0999 V2000
   -4.6700    2.7214    1.5150 C   0  0  0  0  0  0  0  0  0  0  0  0
   -5.4532    2.5715    0.5845 O   0  0  0  0  0  0  0  0  0  0  0  0
   -5.0996    3.4865    2.7226 C   0  0  0  0  0  0  0  0  0  0  0  0
   -4.8796    4.5629    2.6387 H   0  0  0  0  0  0  0  0  0  0  0  0
   -6.1861    3.4241    2.8954 H   0  0  0  0  0  0  0  0  0  0  0  0
   -4.6369    3.1693    3.6708 H   0  0  0  0  0  0  0  0  0  0  0  0
   -3.3731    2.2391    1.5790 N   0  0  0  0  0  0  0  0  0  0  0  0
   -2.7599    1.4751    0.5247 C   0  0  2  0  0  0  0  0  0  0  0  0
   -1.5143    0.8067    1.0915 C   0  0  0  0  0  0  0  0  0  0  0  0
   -0.9247    1.2213    2.0872 O   0  0  0  0  0  0  0  0  0  0  0  0
   -2.4106    2.3553   -0.6653 C   0  0  0  0  0  0  0  0  0  0  0  0
   -2.8254    2.4352    2.4150 H   0  0  0  0  0  0  0  0  0  0  0  0
   -3.4836    0.7082    0.2278 H   0  0  0  0  0  0  0  0  0  0  0  0
   -1.6866    3.1298   -0.3871 H   0  0  0  0  0  0  0  0  0  0  0  0
   -1.9704    1.7677   -1.4777 H   0  0  0  0  0  0  0  0  0  0  0  0
   -3.3030    2.8584   -1.0531 H   0  0  0  0  0  0  0  0  0  0  0  0
   -1.1107   -0.2839    0.3303 N   0  0  0  0  0  0  0  0  0  0  0  0
    0.0490   -1.0750    0.6539 C   0  0  2  0  0  0  0  0  0  0  0  0
   -0.0373   -2.3692   -0.1500 C   0  0  0  0  0  0  0  0  0  0  0  0
    0.6271   -2.5740   -1.1638 O   0  0  0  0  0  0  0  0  0  0  0  0
    0.1787   -1.3525    2.1587 C   0  0  2  0  0  0  0  0  0  0  0  0
   -0.9504   -2.0821    2.6366 O   0  0  0  0  0  0  0  0  0  0  0  0
    0.2835   -0.0697    2.9746 C   0  0  0  0  0  0  0  0  0  0  0  0
   -1.6733   -0.5660   -0.4691 H   0  0  0  0  0  0  0  0  0  0  0  0
    0.9194   -0.5080    0.3019 H   0  0  0  0  0  0  0  0  0  0  0  0
    1.0675   -1.9625    2.3574 H   0  0  0  0  0  0  0  0  0  0  0  0
   -0.7824   -2.2657    3.5734 H   0  0  0  0  0  0  0  0  0  0  0  0
   -0.5836    0.5796    2.8124 H   0  0  0  0  0  0  0  0  0  0  0  0
    1.1928    0.4861    2.7268 H   0  0  0  0  0  0  0  0  0  0  0  0
    0.3000   -0.3025    4.0450 H   0  0  0  0  0  0  0  0  0  0  0  0
   -0.9784   -3.2464    0.3700 N   0  0  0  0  0  0  0  0  0  0  0  0
   -1.2664   -4.5255   -0.2352 C   0  0  2  0  0  0  0  0  0  0  0  0
   -0.1618   -5.4946    0.1652 C   0  0  0  0  0  0  0  0  0  0  0  0
    0.9551   -5.1273    0.5241 O   0  0  0  0  0  0  0  0  0  0  0  0
   -1.3674   -4.4116   -1.7483 C   0  0  0  0  0  0  0  0  0  0  0  0
   -1.4846   -2.9783    1.2089 H   0  0  0  0  0  0  0  0  0  0  0  0
   -2.2203   -4.8655    0.1825 H   0  0  0  0  0  0  0  0  0  0  0  0
   -0.4209   -4.0722   -2.1848 H   0  0  0  0  0  0  0  0  0  0  0  0
   -1.6139   -5.3767   -2.2033 H   0  0  0  0  0  0  0  0  0  0  0  0
   -2.1421   -3.6920   -2.0341 H   0  0  0  0  0  0  0  0  0  0  0  0
   -0.5560   -6.8187    0.0333 N   0  0  0  0  0  0  0  0  0  0  0  0
    0.3184   -7.9267    0.3397 C   0  0  0  0  0  0  0  0  0  0  0  0
   -1.5073   -7.0307   -0.2528 H   0  0  0  0  0  0  0  0  0  0  0  0
    0.8460   -8.2413   -0.5729 H   0  0  0  0  0  0  0  0  0  0  0  0
    1.0518   -7.6160    1.0984 H   0  0  0  0  0  0  0  0  0  0  0  0
   -0.2766   -8.7668    0.7272 H   0  0  0  0  0  0  0  0  0  0  0  0
  1  3  1  0  0  0  0
  1  7  1  0  0  0  0
  1  2  2  0  0  0  0
 32 33  1  0  0  0  0
 33 41  1  0  0  0  0
 33 34  2  0  0  0  0
  8  9  1  0  0  0  0
  9 17  1  0  0  0  0
  9 10  2  0  0  0  0
 18 19  1  0  0  0  0
 19 31  1  0  0  0  0
 19 20  2  0  0  0  0
 32 35  1  0  0  0  0
  8 11  1  0  0  0  0
 21 23  1  0  0  0  0
 41 42  1  0  0  0  0
 31 32  1  0  0  0  0
  7  8  1  0  0  0  0
 18 21  1  0  0  0  0
 17 18  1  0  0  0  0
 21 22  1  0  0  0  0
  3  4  1  0  0  0  0
  3  5  1  0  0  0  0
  3  6  1  0  0  0  0
 35 38  1  0  0  0  0
 35 39  1  0  0  0  0
 35 40  1  0  0  0  0
 11 14  1  0  0  0  0
 11 15  1  0  0  0  0
 11 16  1  0  0  0  0
 23 28  1  0  0  0  0
 23 29  1  0  0  0  0
 23 30  1  0  0  0  0
 42 44  1  0  0  0  0
 42 45  1  0  0  0  0
 42 46  1  0  0  0  0
 32 37  1  0  0  0  0
  8 13  1  0  0  0  0
 18 25  1  0  0  0  0
 21 26  1  0  0  0  0
 41 43  1  0  0  0  0
  7 12  1  0  0  0  0
 31 36  1  0  0  0  0
 17 24  1  0  0  0  0
 22 27  1  0  0  0  0
M  END
$$$$

  -OEChem-05262214473D

 46 45  0     1  0  0  0  0  0999 V2000
   -4.6700    2.7214    1.5150 C   0  0  0  0  0  0  0  0  0  0  0  0
   -5.4532    2.5715    0.5845 O   0  0  0  0  0  0  0  0  0  0  0  0
   -5.0996    3.4865    2.7226 C   0  0  0  0  0  0  0  0  0  0  0  0
   -4.8796    4.5629    2.6387 H   0  0  0  0  0  0  0  0  0  0  0  0
   -6.1861    3.4241    2.8954 H   0  0  0  0  0  0  0  0  0  0  0  0
   -4.6369    3.1693    3.6708 H   0  0  0  0  0  0  0  0  0  0  0  0
   -3.3731    2.2391    1.5790 N   0  0  0  0  0  0  0  0  0  0  0  0
   -2.7599    1.4751    0.5247 C   0  0  2  0  0  0  0  0  0  0  0  0
   -1.5143    0.8067    1.0915 C   0  0  0  0  0  0  0  0  0  0  0  0
   -0.9247    1.2213    2.0872 O   0  0  0  0  0  0  0  0  0  0  0  0
   -2.4106    2.3553   -0.6653 C   0  0  0  0  0  0  0  0  0  0  0  0
   -2.8254    2.4352    2.4150 H   0  0  0  0  0  0  0  0  0  0  0  0
   -3.4836    0.7082    0.2278 H   0  0  0  0  0  0  0  0  0  0  0  0
   -1.6866    3.1298   -0.3871 H   0  0  0  0  0  0  0  0  0  0  0  0
   -1.9704    1.7677   -1.4777 H   0  0  0  0  0  0  0  0  0  0  0  0
   -3.3030    2.8584   -1.0531 H   0  0  0  0  0  0  0  0  0  0  0  0
   -1.1107   -0.2839    0.3303 N   0  0  0  0  0  0  0  0  0  0  0  0
    0.0490   -1.0750    0.6539 C   0  0  2  0  0  0  0  0  0  0  0  0
   -0.0373   -2.3692   -0.1500 C   0  0  0  0  0  0  0  0  0  0  0  0
    0.7978   -2.6918   -0.9925 O   0  0  0  0  0  0  0  0  0  0  0  0
    0.1787   -1.3525    2.1587 C   0  0  2  0  0  0  0  0  0  0  0  0
   -0.9504   -2.0821    2.6366 O   0  0  0  0  0  0  0  0  0  0  0  0
    0.2835   -0.0697    2.9746 C   0  0  0  0  0  0  0  0  0  0  0  0
   -1.6733   -0.5660   -0.4691 H   0  0  0  0  0  0  0  0  0  0  0  0
    0.9194   -0.5080    0.3019 H   0  0  0  0  0  0  0  0  0  0  0  0
    1.0675   -1.9625    2.3574 H   0  0  0  0  0  0  0  0  0  0  0  0
   -0.7824   -2.2657    3.5734 H   0  0  0  0  0  0  0  0  0  0  0  0
   -0.5836    0.5796    2.8124 H   0  0  0  0  0  0  0  0  0  0  0  0
    1.1928    0.4861    2.7268 H   0  0  0  0  0  0  0  0  0  0  0  0
    0.3000   -0.3025    4.0450 H   0  0  0  0  0  0  0  0  0  0  0  0
   -1.1811   -3.0957    0.1491 N   0  0  0  0  0  0  0  0  0  0  0  0
   -1.5035   -4.3419   -0.5054 C   0  0  2  0  0  0  0  0  0  0  0  0
   -0.6576   -5.4385    0.1282 C   0  0  0  0  0  0  0  0  0  0  0  0
    0.3936   -5.2145    0.7247 O   0  0  0  0  0  0  0  0  0  0  0  0
   -1.2548   -4.2606   -2.0035 C   0  0  0  0  0  0  0  0  0  0  0  0
   -1.8164   -2.7370    0.8560 H   0  0  0  0  0  0  0  0  0  0  0  0
   -2.5633   -4.5376   -0.3086 H   0  0  0  0  0  0  0  0  0  0  0  0
   -0.1983   -4.0650   -2.2203 H   0  0  0  0  0  0  0  0  0  0  0  0
   -1.5267   -5.1968   -2.5022 H   0  0  0  0  0  0  0  0  0  0  0  0
   -1.8415   -3.4520   -2.4527 H   0  0  0  0  0  0  0  0  0  0  0  0
   -1.1924   -6.7008   -0.0882 N   0  0  0  0  0  0  0  0  0  0  0  0
   -0.5675   -7.9068    0.4028 C   0  0  0  0  0  0  0  0  0  0  0  0
   -2.0781   -6.7912   -0.5772 H   0  0  0  0  0  0  0  0  0  0  0  0
    0.0981   -8.3167   -0.3712 H   0  0  0  0  0  0  0  0  0  0  0  0
    0.0180   -7.6752    1.3047 H   0  0  0  0  0  0  0  0  0  0  0  0
   -1.3428   -8.6472    0.6490 H   0  0  0  0  0  0  0  0  0  0  0  0
  1  3  1  0  0  0  0
  1  7  1  0  0  0  0
  1  2  2  0  0  0  0
 32 33  1  0  0  0  0
 33 41  1  0  0  0  0
 33 34  2  0  0  0  0
  8  9  1  0  0  0  0
  9 17  1  0  0  0  0
  9 10  2  0  0  0  0
 18 19  1  0  0  0  0
 19 31  1  0  0  0  0
 19 20  2  0  0  0  0
 32 35  1  0  0  0  0
  8 11  1  0  0  0  0
 21 23  1  0  0  0  0
 41 42  1  0  0  0  0
 31 32  1  0  0  0  0
  7  8  1  0  0  0  0
 18 21  1  0  0  0  0
 17 18  1  0  0  0  0
 21 22  1  0  0  0  0
  3  4  1  0  0  0  0
  3  5  1  0  0  0  0
  3  6  1  0  0  0  0
 35 38  1  0  0  0  0
 35 39  1  0  0  0  0
 35 40  1  0  0  0  0
 11 14  1  0  0  0  0
 11 15  1  0  0  0  0
 11 16  1  0  0  0  0
 23 28  1  0  0  0  0
 23 29  1  0  0  0  0
 23 30  1  0  0  0  0
 42 44  1  0  0  0  0
 42 45  1  0  0  0  0
 42 46  1  0  0  0  0
 32 37  1  0  0  0  0
  8 13  1  0  0  0  0
 18 25  1  0  0  0  0
 21 26  1  0  0  0  0
 41 43  1  0  0  0  0
  7 12  1  0  0  0  0
 31 36  1  0  0  0  0
 17 24  1  0  0  0  0
 22 27  1  0  0  0  0
M  END
$$$$

  -OEChem-05262214473D

 46 45  0     1  0  0  0  0  0999 V2000
   -4.6700    2.7214    1.5150 C   0  0  0  0  0  0  0  0  0  0  0  0
   -5.4532    2.5715    0.5845 O   0  0  0  0  0  0  0  0  0  0  0  0
   -5.0996    3.4865    2.7226 C   0  0  0  0  0  0  0  0  0  0  0  0
   -4.8796    4.5629    2.6387 H   0  0  0  0  0  0  0  0  0  0  0  0
   -6.1861    3.4241    2.8954 H   0  0  0  0  0  0  0  0  0  0  0  0
   -4.6369    3.1693    3.6708 H   0  0  0  0  0  0  0  0  0  0  0  0
   -3.3731    2.2391    1.5790 N   0  0  0  0  0  0  0  0  0  0  0  0
   -2.7599    1.4751    0.5247 C   0  0  2  0  0  0  0  0  0  0  0  0
   -1.5143    0.8067    1.0915 C   0  0  0  0  0  0  0  0  0  0  0  0
   -0.9247    1.2213    2.0872 O   0  0  0  0  0  0  0  0  0  0  0  0
   -2.4106    2.3553   -0.6653 C   0  0  0  0  0  0  0  0  0  0  0  0
   -2.8254    2.4352    2.4150 H   0  0  0  0  0  0  0  0  0  0  0  0
   -3.4836    0.7082    0.2278 H   0  0  0  0  0  0  0  0  0  0  0  0
   -1.6866    3.1298   -0.3871 H   0  0  0  0  0  0  0  0  0  0  0  0
   -1.9704    1.7677   -1.4777 H   0  0  0  0  0  0  0  0  0  0  0  0
   -3.3030    2.8584   -1.0531 H   0  0  0  0  0  0  0  0  0  0  0  0
   -1.1107   -0.2839    0.3303 N   0  0  0  0  0  0  0  0  0  0  0  0
    0.0490   -1.0750    0.6539 C   0  0  2  0  0  0  0  0  0  0  0  0
   -0.0373   -2.3692   -0.1500 C   0  0  0  0  0  0  0  0  0  0  0  0
    0.9090   -2.8264   -0.7878 O   0  0  0  0  0  0  0  0  0  0  0  0
    0.1787   -1.3525    2.1587 C   0  0  2  0  0  0  0  0  0  0  0  0
   -0.9504   -2.0821    2.6366 O   0  0  0  0  0  0  0  0  0  0  0  0
    0.2835   -0.0697    2.9746 C   0  0  0  0  0  0  0  0  0  0  0  0
   -1.6733   -0.5660   -0.4691 H   0  0  0  0  0  0  0  0  0  0  0  0
    0.9194   -0.5080    0.3019 H   0  0  0  0  0  0  0  0  0  0  0  0
    1.0675   -1.9625    2.3574 H   0  0  0  0  0  0  0  0  0  0  0  0
   -0.7824   -2.2657    3.5734 H   0  0  0  0  0  0  0  0  0  0  0  0
   -0.5836    0.5796    2.8124 H   0  0  0  0  0  0  0  0  0  0  0  0
    1.1928    0.4861    2.7268 H   0  0  0  0  0  0  0  0  0  0  0  0
    0.3000   -0.3025    4.0450 H   0  0  0  0  0  0  0  0  0  0  0  0
   -1.3079   -2.9257   -0.1109 N   0  0  0  0  0  0  0  0  0  0  0  0
   -1.6483   -4.1361   -0.8212 C   0  0  2  0  0  0  0  0  0  0  0  0
   -1.1208   -5.3172   -0.0173 C   0  0  0  0  0  0  0  0  0  0  0  0
   -0.2048   -5.2192    0.7965 O   0  0  0  0  0  0  0  0  0  0  0  0
   -1.0695   -4.1339   -2.2275 C   0  0  0  0  0  0  0  0  0  0  0  0
   -2.0265   -2.4637    0.4386 H   0  0  0  0  0  0  0  0  0  0  0  0
   -2.7420   -4.1813   -0.8630 H   0  0  0  0  0  0  0  0  0  0  0  0
    0.0255   -4.0889   -2.2059 H   0  0  0  0  0  0  0  0  0  0  0  0
   -1.3523   -5.0393   -2.7744 H   0  0  0  0  0  0  0  0  0  0  0  0
   -1.4265   -3.2674   -2.7945 H   0  0  0  0  0  0  0  0  0  0  0  0
   -1.7643   -6.5019   -0.3470 N   0  0  0  0  0  0  0  0  0  0  0  0
   -1.4344   -7.7659    0.2689 C   0  0  0  0  0  0  0  0  0  0  0  0
   -2.5256   -6.4867   -1.0193 H   0  0  0  0  0  0  0  0  0  0  0  0
   -0.6788   -8.2847   -0.3394 H   0  0  0  0  0  0  0  0  0  0  0  0
   -1.0338   -7.5885    1.2779 H   0  0  0  0  0  0  0  0  0  0  0  0
   -2.3393   -8.3874    0.3378 H   0  0  0  0  0  0  0  0  0  0  0  0
  1  3  1  0  0  0  0
  1  7  1  0  0  0  0
  1  2  2  0  0  0  0
 32 33  1  0  0  0  0
 33 41  1  0  0  0  0
 33 34  2  0  0  0  0
  8  9  1  0  0  0  0
  9 17  1  0  0  0  0
  9 10  2  0  0  0  0
 18 19  1  0  0  0  0
 19 31  1  0  0  0  0
 19 20  2  0  0  0  0
 32 35  1  0  0  0  0
  8 11  1  0  0  0  0
 21 23  1  0  0  0  0
 41 42  1  0  0  0  0
 31 32  1  0  0  0  0
  7  8  1  0  0  0  0
 18 21  1  0  0  0  0
 17 18  1  0  0  0  0
 21 22  1  0  0  0  0
  3  4  1  0  0  0  0
  3  5  1  0  0  0  0
  3  6  1  0  0  0  0
 35 38  1  0  0  0  0
 35 39  1  0  0  0  0
 35 40  1  0  0  0  0
 11 14  1  0  0  0  0
 11 15  1  0  0  0  0
 11 16  1  0  0  0  0
 23 28  1  0  0  0  0
 23 29  1  0  0  0  0
 23 30  1  0  0  0  0
 42 44  1  0  0  0  0
 42 45  1  0  0  0  0
 42 46  1  0  0  0  0
 32 37  1  0  0  0  0
  8 13  1  0  0  0  0
 18 25  1  0  0  0  0
 21 26  1  0  0  0  0
 41 43  1  0  0  0  0
  7 12  1  0  0  0  0
 31 36  1  0  0  0  0
 17 24  1  0  0  0  0
 22 27  1  0  0  0  0
M  END
$$$$

  -OEChem-05262214473D

 46 45  0     1  0  0  0  0  0999 V2000
   -4.6700    2.7214    1.5150 C   0  0  0  0  0  0  0  0  0  0  0  0
   -5.4532    2.5715    0.5845 O   0  0  0  0  0  0  0  0  0  0  0  0
   -5.0996    3.4865    2.7226 C   0  0  0  0  0  0  0  0  0  0  0  0
   -4.8796    4.5629    2.6387 H   0  0  0  0  0  0  0  0  0  0  0  0
   -6.1861    3.4241    2.8954 H   0  0  0  0  0  0  0  0  0  0  0  0
   -4.6369    3.1693    3.6708 H   0  0  0  0  0  0  0  0  0  0  0  0
   -3.3731    2.2391    1.5790 N   0  0  0  0  0  0  0  0  0  0  0  0
   -2.7599    1.4751    0.5247 C   0  0  2  0  0  0  0  0  0  0  0  0
   -1.5143    0.8067    1.0915 C   0  0  0  0  0  0  0  0  0  0  0  0
   -0.9247    1.2213    2.0872 O   0  0  0  0  0  0  0  0  0  0  0  0
   -2.4106    2.3553   -0.6653 C   0  0  0  0  0  0  0  0  0  0  0  0
   -2.8254    2.4352    2.4150 H   0  0  0  0  0  0  0  0  0  0  0  0
   -3.4836    0.7082    0.2278 H   0  0  0  0  0  0  0  0  0  0  0  0
   -1.6866    3.1298   -0.3871 H   0  0  0  0  0  0  0  0  0  0  0  0
   -1.9704    1.7677   -1.4777 H   0  0  0  0  0  0  0  0  0  0  0  0
   -3.3030    2.8584   -1.0531 H   0  0  0  0  0  0  0  0  0  0  0  0
   -1.1107   -0.2839    0.3303 N   0  0  0  0  0  0  0  0  0  0  0  0
    0.0490   -1.0750    0.6539 C   0  0  2  0  0  0  0  0  0  0  0  0
   -0.0373   -2.3692   -0.1500 C   0  0  0  0  0  0  0  0  0  0  0  0
    0.9531   -2.9685   -0.5637 O   0  0  0  0  0  0  0  0  0  0  0  0
    0.1787   -1.3525    2.1587 C   0  0  2  0  0  0  0  0  0  0  0  0
   -0.9504   -2.0821    2.6366 O   0  0  0  0  0  0  0  0  0  0  0  0
    0.2835   -0.0697    2.9746 C   0  0  0  0  0  0  0  0  0  0  0  0
   -1.6733   -0.5660   -0.4691 H   0  0  0  0  0  0  0  0  0  0  0  0
    0.9194   -0.5080    0.3019 H   0  0  0  0  0  0  0  0  0  0  0  0
    1.0675   -1.9625    2.3574 H   0  0  0  0  0  0  0  0  0  0  0  0
   -0.7824   -2.2657    3.5734 H   0  0  0  0  0  0  0  0  0  0  0  0
   -0.5836    0.5796    2.8124 H   0  0  0  0  0  0  0  0  0  0  0  0
    1.1928    0.4861    2.7268 H   0  0  0  0  0  0  0  0  0  0  0  0
    0.3000   -0.3025    4.0450 H   0  0  0  0  0  0  0  0  0  0  0  0
   -1.3500   -2.7481   -0.3924 N   0  0  0  0  0  0  0  0  0  0  0  0
   -1.6907   -3.9222   -1.1610 C   0  0  2  0  0  0  0  0  0  0  0  0
   -1.5198   -5.1391   -0.2613 C   0  0  0  0  0  0  0  0  0  0  0  0
   -0.7992   -5.1411    0.7346 O   0  0  0  0  0  0  0  0  0  0  0  0
   -0.8240   -4.0400   -2.4050 C   0  0  0  0  0  0  0  0  0  0  0  0
   -2.1005   -2.1773   -0.0146 H   0  0  0  0  0  0  0  0  0  0  0  0
   -2.7444   -3.8209   -1.4429 H   0  0  0  0  0  0  0  0  0  0  0  0
    0.2353   -4.1423   -2.1424 H   0  0  0  0  0  0  0  0  0  0  0  0
   -1.1027   -4.9150   -3.0014 H   0  0  0  0  0  0  0  0  0  0  0  0
   -0.9255   -3.1506   -3.0363 H   0  0  0  0  0  0  0  0  0  0  0  0
   -2.2329   -6.2356   -0.7254 N   0  0  0  0  0  0  0  0  0  0  0  0
   -2.2231   -7.5136   -0.0526 C   0  0  0  0  0  0  0  0  0  0  0  0
   -2.8192   -6.1381   -1.5491 H   0  0  0  0  0  0  0  0  0  0  0  0
   -1.4319   -8.1473   -0.4797 H   0  0  0  0  0  0  0  0  0  0  0  0
   -2.0321   -7.3617    1.0199 H   0  0  0  0  0  0  0  0  0  0  0  0
   -3.1981   -8.0052   -0.1855 H   0  0  0  0  0  0  0  0  0  0  0  0
  1  3  1  0  0  0  0
  1  7  1  0  0  0  0
  1  2  2  0  0  0  0
 32 33  1  0  0  0  0
 33 41  1  0  0  0  0
 33 34  2  0  0  0  0
  8  9  1  0  0  0  0
  9 17  1  0  0  0  0
  9 10  2  0  0  0  0
 18 19  1  0  0  0  0
 19 31  1  0  0  0  0
 19 20  2  0  0  0  0
 32 35  1  0  0  0  0
  8 11  1  0  0  0  0
 21 23  1  0  0  0  0
 41 42  1  0  0  0  0
 31 32  1  0  0  0  0
  7  8  1  0  0  0  0
 18 21  1  0  0  0  0
 17 18  1  0  0  0  0
 21 22  1  0  0  0  0
  3  4  1  0  0  0  0
  3  5  1  0  0  0  0
  3  6  1  0  0  0  0
 35 38  1  0  0  0  0
 35 39  1  0  0  0  0
 35 40  1  0  0  0  0
 11 14  1  0  0  0  0
 11 15  1  0  0  0  0
 11 16  1  0  0  0  0
 23 28  1  0  0  0  0
 23 29  1  0  0  0  0
 23 30  1  0  0  0  0
 42 44  1  0  0  0  0
 42 45  1  0  0  0  0
 42 46  1  0  0  0  0
 32 37  1  0  0  0  0
  8 13  1  0  0  0  0
 18 25  1  0  0  0  0
 21 26  1  0  0  0  0
 41 43  1  0  0  0  0
  7 12  1  0  0  0  0
 31 36  1  0  0  0  0
 17 24  1  0  0  0  0
 22 27  1  0  0  0  0
M  END
$$$$

  -OEChem-05262214473D

 46 45  0     1  0  0  0  0  0999 V2000
   -4.6700    2.7214    1.5150 C   0  0  0  0  0  0  0  0  0  0  0  0
   -5.4532    2.5715    0.5845 O   0  0  0  0  0  0  0  0  0  0  0  0
   -5.0996    3.4865    2.7226 C   0  0  0  0  0  0  0  0  0  0  0  0
   -4.8796    4.5629    2.6387 H   0  0  0  0  0  0  0  0  0  0  0  0
   -6.1861    3.4241    2.8954 H   0  0  0  0  0  0  0  0  0  0  0  0
   -4.6369    3.1693    3.6708 H   0  0  0  0  0  0  0  0  0  0  0  0
   -3.3731    2.2391    1.5790 N   0  0  0  0  0  0  0  0  0  0  0  0
   -2.7599    1.4751    0.5247 C   0  0  2  0  0  0  0  0  0  0  0  0
   -1.5143    0.8067    1.0915 C   0  0  0  0  0  0  0  0  0  0  0  0
   -0.9247    1.2213    2.0872 O   0  0  0  0  0  0  0  0  0  0  0  0
   -2.4106    2.3553   -0.6653 C   0  0  0  0  0  0  0  0  0  0  0  0
   -2.8254    2.4352    2.4150 H   0  0  0  0  0  0  0  0  0  0  0  0
   -3.4836    0.7082    0.2278 H   0  0  0  0  0  0  0  0  0  0  0  0
   -1.6866    3.1298   -0.3871 H   0  0  0  0  0  0  0  0  0  0  0  0
   -1.9704    1.7677   -1.4777 H   0  0  0  0  0  0  0  0  0  0  0  0
   -3.3030    2.8584   -1.0531 H   0  0  0  0  0  0  0  0  0  0  0  0
   -1.1107   -0.2839    0.3303 N   0  0  0  0  0  0  0  0  0  0  0  0
    0.0490   -1.0750    0.6539 C   0  0  2  0  0  0  0  0  0  0  0  0
   -0.0373   -2.3692   -0.1500 C   0  0  0  0  0  0  0  0  0  0  0  0
    0.9272   -3.1086   -0.3355 O   0  0  0  0  0  0  0  0  0  0  0  0
    0.1787   -1.3525    2.1587 C   0  0  2  0  0  0  0  0  0  0  0  0
   -0.9504   -2.0821    2.6366 O   0  0  0  0  0  0  0  0  0  0  0  0
    0.2835   -0.0697    2.9746 C   0  0  0  0  0  0  0  0  0  0  0  0
   -1.6733   -0.5660   -0.4691 H   0  0  0  0  0  0  0  0  0  0  0  0
    0.9194   -0.5080    0.3019 H   0  0  0  0  0  0  0  0  0  0  0  0
    1.0675   -1.9625    2.3574 H   0  0  0  0  0  0  0  0  0  0  0  0
   -0.7824   -2.2657    3.5734 H   0  0  0  0  0  0  0  0  0  0  0  0
   -0.5836    0.5796    2.8124 H   0  0  0  0  0  0  0  0  0  0  0  0
    1.1928    0.4861    2.7268 H   0  0  0  0  0  0  0  0  0  0  0  0
    0.3000   -0.3025    4.0450 H   0  0  0  0  0  0  0  0  0  0  0  0
   -1.3048   -2.5748   -0.6762 N   0  0  0  0  0  0  0  0  0  0  0  0
   -1.6280   -3.7148   -1.5016 C   0  0  2  0  0  0  0  0  0  0  0  0
   -1.8273   -4.9162   -0.5871 C   0  0  0  0  0  0  0  0  0  0  0  0
   -1.3490   -4.9856    0.5432 O   0  0  0  0  0  0  0  0  0  0  0  0
   -0.5351   -3.9853   -2.5239 C   0  0  0  0  0  0  0  0  0  0  0  0
   -2.0336   -1.8971   -0.4728 H   0  0  0  0  0  0  0  0  0  0  0  0
   -2.5703   -3.4809   -2.0089 H   0  0  0  0  0  0  0  0  0  0  0  0
    0.4167   -4.2216   -2.0343 H   0  0  0  0  0  0  0  0  0  0  0  0
   -0.7948   -4.8322   -3.1676 H   0  0  0  0  0  0  0  0  0  0  0  0
   -0.3725   -3.1096   -3.1616 H   0  0  0  0  0  0  0  0  0  0  0  0
   -2.5660   -5.9200   -1.1977 N   0  0  0  0  0  0  0  0  0  0  0  0
   -2.8799   -7.1670   -0.5401 C   0  0  0  0  0  0  0  0  0  0  0  0
   -2.9391   -5.7690   -2.1304 H   0  0  0  0  0  0  0  0  0  0  0  0
   -2.1097   -7.9140   -0.7825 H   0  0  0  0  0  0  0  0  0  0  0  0
   -2.9088   -7.0103    0.5483 H   0  0  0  0  0  0  0  0  0  0  0  0
   -3.8607   -7.5265   -0.8850 H   0  0  0  0  0  0  0  0  0  0  0  0
  1  3  1  0  0  0  0
  1  7  1  0  0  0  0
  1  2  2  0  0  0  0
 32 33  1  0  0  0  0
 33 41  1  0  0  0  0
 33 34  2  0  0  0  0
  8  9  1  0  0  0  0
  9 17  1  0  0  0  0
  9 10  2  0  0  0  0
 18 19  1  0  0  0  0
 19 31  1  0  0  0  0
 19 20  2  0  0  0  0
 32 35  1  0  0  0  0
  8 11  1  0  0  0  0
 21 23  1  0  0  0  0
 41 42  1  0  0  0  0
 31 32  1  0  0  0  0
  7  8  1  0  0  0  0
 18 21  1  0  0  0  0
 17 18  1  0  0  0  0
 21 22  1  0  0  0  0
  3  4  1  0  0  0  0
  3  5  1  0  0  0  0
  3  6  1  0  0  0  0
 35 38  1  0  0  0  0
 35 39  1  0  0  0  0
 35 40  1  0  0  0  0
 11 14  1  0  0  0  0
 11 15  1  0  0  0  0
 11 16  1  0  0  0  0
 23 28  1  0  0  0  0
 23 29  1  0  0  0  0
 23 30  1  0  0  0  0
 42 44  1  0  0  0  0
 42 45  1  0  0  0  0
 42 46  1  0  0  0  0
 32 37  1  0  0  0  0
  8 13  1  0  0  0  0
 18 25  1  0  0  0  0
 21 26  1  0  0  0  0
 41 43  1  0  0  0  0
  7 12  1  0  0  0  0
 31 36  1  0  0  0  0
 17 24  1  0  0  0  0
 22 27  1  0  0  0  0
M  END
$$$$

  -OEChem-05262214473D

 46 45  0     1  0  0  0  0  0999 V2000
   -4.6700    2.7214    1.5150 C   0  0  0  0  0  0  0  0  0  0  0  0
   -5.4532    2.5715    0.5845 O   0  0  0  0  0  0  0  0  0  0  0  0
   -5.0996    3.4865    2.7226 C   0  0  0  0  0  0  0  0  0  0  0  0
   -4.8796    4.5629    2.6387 H   0  0  0  0  0  0  0  0  0  0  0  0
   -6.1861    3.4241    2.8954 H   0  0  0  0  0  0  0  0  0  0  0  0
   -4.6369    3.1693    3.6708 H   0  0  0  0  0  0  0  0  0  0  0  0
   -3.3731    2.2391    1.5790 N   0  0  0  0  0  0  0  0  0  0  0  0
   -2.7599    1.4751    0.5247 C   0  0  2  0  0  0  0  0  0  0  0  0
   -1.5143    0.8067    1.0915 C   0  0  0  0  0  0  0  0  0  0  0  0
   -0.9247    1.2213    2.0872 O   0  0  0  0  0  0  0  0  0  0  0  0
   -2.4106    2.3553   -0.6653 C   0  0  0  0  0  0  0  0  0  0  0  0
   -2.8254    2.4352    2.4150 H   0  0  0  0  0  0  0  0  0  0  0  0
   -3.4836    0.7082    0.2278 H   0  0  0  0  0  0  0  0  0  0  0  0
   -1.6866    3.1298   -0.3871 H   0  0  0  0  0  0  0  0  0  0  0  0
   -1.9704    1.7677   -1.4777 H   0  0  0  0  0  0  0  0  0  0  0  0
   -3.3030    2.8584   -1.0531 H   0  0  0  0  0  0  0  0  0  0  0  0
   -1.1107   -0.2839    0.3303 N   0  0  0  0  0  0  0  0  0  0  0  0
    0.0490   -1.0750    0.6539 C   0  0  2  0  0  0  0  0  0  0  0  0
   -0.0373   -2.3692   -0.1500 C   0  0  0  0  0  0  0  0  0  0  0  0
    0.8329   -3.2370   -0.1187 O   0  0  0  0  0  0  0  0  0  0  0  0
    0.1787   -1.3525    2.1587 C   0  0  2  0  0  0  0  0  0  0  0  0
   -0.9504   -2.0821    2.6366 O   0  0  0  0  0  0  0  0  0  0  0  0
    0.2835   -0.0697    2.9746 C   0  0  0  0  0  0  0  0  0  0  0  0
   -1.6733   -0.5660   -0.4691 H   0  0  0  0  0  0  0  0  0  0  0  0
    0.9194   -0.5080    0.3019 H   0  0  0  0  0  0  0  0  0  0  0  0
    1.0675   -1.9625    2.3574 H   0  0  0  0  0  0  0  0  0  0  0  0
   -0.7824   -2.2657    3.5734 H   0  0  0  0  0  0  0  0  0  0  0  0
   -0.5836    0.5796    2.8124 H   0  0  0  0  0  0  0  0  0  0  0  0
    1.1928    0.4861    2.7268 H   0  0  0  0  0  0  0  0  0  0  0  0
    0.3000   -0.3025    4.0450 H   0  0  0  0  0  0  0  0  0  0  0  0
   -1.1751   -2.4178   -0.9428 N   0  0  0  0  0  0  0  0  0  0  0  0
   -1.4643   -3.5280   -1.8199 C   0  0  2  0  0  0  0  0  0  0  0  0
   -2.0225   -4.6638   -0.9726 C   0  0  0  0  0  0  0  0  0  0  0  0
   -1.8169   -4.7631    0.2353 O   0  0  0  0  0  0  0  0  0  0  0  0
   -0.2225   -3.9737   -2.5762 C   0  0  0  0  0  0  0  0  0  0  0  0
   -1.8301   -1.6423   -0.9048 H   0  0  0  0  0  0  0  0  0  0  0  0
   -2.2315   -3.1845   -2.5224 H   0  0  0  0  0  0  0  0  0  0  0  0
    0.5574   -4.3213   -1.8889 H   0  0  0  0  0  0  0  0  0  0  0  0
   -0.4496   -4.7967   -3.2619 H   0  0  0  0  0  0  0  0  0  0  0  0
    0.1947   -3.1473   -3.1618 H   0  0  0  0  0  0  0  0  0  0  0  0
   -2.7412   -5.5767   -1.7317 N   0  0  0  0  0  0  0  0  0  0  0  0
   -3.3602   -6.7498   -1.1602 C   0  0  0  0  0  0  0  0  0  0  0  0
   -2.8769   -5.4047   -2.7235 H   0  0  0  0  0  0  0  0  0  0  0  0
   -2.6662   -7.6007   -1.2273 H   0  0  0  0  0  0  0  0  0  0  0  0
   -3.6043   -6.5582   -0.1049 H   0  0  0  0  0  0  0  0  0  0  0  0
   -4.2818   -6.9841   -1.7130 H   0  0  0  0  0  0  0  0  0  0  0  0
  1  3  1  0  0  0  0
  1  7  1  0  0  0  0
  1  2  2  0  0  0  0
 32 33  1  0  0  0  0
 33 41  1  0  0  0  0
 33 34  2  0  0  0  0
  8  9  1  0  0  0  0
  9 17  1  0  0  0  0
  9 10  2  0  0  0  0
 18 19  1  0  0  0  0
 19 31  1  0  0  0  0
 19 20  2  0  0  0  0
 32 35  1  0  0  0  0
  8 11  1  0  0  0  0
 21 23  1  0  0  0  0
 41 42  1  0  0  0  0
 31 32  1  0  0  0  0
  7  8  1  0  0  0  0
 18 21  1  0  0  0  0
 17 18  1  0  0  0  0
 21 22  1  0  0  0  0
  3  4  1  0  0  0  0
  3  5  1  0  0  0  0
  3  6  1  0  0  0  0
 35 38  1  0  0  0  0
 35 39  1  0  0  0  0
 35 40  1  0  0  0  0
 11 14  1  0  0  0  0
 11 15  1  0  0  0  0
 11 16  1  0  0  0  0
 23 28  1  0  0  0  0
 23 29  1  0  0  0  0
 23 30  1  0  0  0  0
 42 44  1  0  0  0  0
 42 45  1  0  0  0  0
 42 46  1  0  0  0  0
 32 37  1  0  0  0  0
  8 13  1  0  0  0  0
 18 25  1  0  0  0  0
 21 26  1  0  0  0  0
 41 43  1  0  0  0  0
  7 12  1  0  0  0  0
 31 36  1  0  0  0  0
 17 24  1  0  0  0  0
 22 27  1  0  0  0  0
M  END
$$$$

  -OEChem-05262214473D

 46 45  0     1  0  0  0  0  0999 V2000
   -4.6700    2.7214    1.5150 C   0  0  0  0  0  0  0  0  0  0  0  0
   -5.4532    2.5715    0.5845 O   0  0  0  0  0  0  0  0  0  0  0  0
   -5.0996    3.4865    2.7226 C   0  0  0  0  0  0  0  0  0  0  0  0
   -4.8796    4.5629    2.6387 H   0  0  0  0  0  0  0  0  0  0  0  0
   -6.1861    3.4241    2.8954 H   0  0  0  0  0  0  0  0  0  0  0  0
   -4.6369    3.1693    3.6708 H   0  0  0  0  0  0  0  0  0  0  0  0
   -3.3731    2.2391    1.5790 N   0  0  0  0  0  0  0  0  0  0  0  0
   -2.7599    1.4751    0.5247 C   0  0  2  0  0  0  0  0  0  0  0  0
   -1.5143    0.8067    1.0915 C   0  0  0  0  0  0  0  0  0  0  0  0
   -0.9247    1.2213    2.0872 O   0  0  0  0  0  0  0  0  0  0  0  0
   -2.4106    2.3553   -0.6653 C   0  0  0  0  0  0  0  0  0  0  0  0
   -2.8254    2.4352    2.4150 H   0  0  0  0  0  0  0  0  0  0  0  0
   -3.4836    0.7082    0.2278 H   0  0  0  0  0  0  0  0  0  0  0  0
   -1.6866    3.1298   -0.3871 H   0  0  0  0  0  0  0  0  0  0  0  0
   -1.9704    1.7677   -1.4777 H   0  0  0  0  0  0  0  0  0  0  0  0
   -3.3030    2.8584   -1.0531 H   0  0  0  0  0  0  0  0  0  0  0  0
   -1.1107   -0.2839    0.3303 N   0  0  0  0  0  0  0  0  0  0  0  0
    0.0490   -1.0750    0.6539 C   0  0  2  0  0  0  0  0  0  0  0  0
   -0.0373   -2.3692   -0.1500 C   0  0  0  0  0  0  0  0  0  0  0  0
    0.6768   -3.3450    0.0720 O   0  0  0  0  0  0  0  0  0  0  0  0
    0.1787   -1.3525    2.1587 C   0  0  2  0  0  0  0  0  0  0  0  0
   -0.9504   -2.0821    2.6366 O   0  0  0  0  0  0  0  0  0  0  0  0
    0.2835   -0.0697    2.9746 C   0  0  0  0  0  0  0  0  0  0  0  0
   -1.6733   -0.5660   -0.4691 H   0  0  0  0  0  0  0  0  0  0  0  0
    0.9194   -0.5080    0.3019 H   0  0  0  0  0  0  0  0  0  0  0  0
    1.0675   -1.9625    2.3574 H   0  0  0  0  0  0  0  0  0  0  0  0
   -0.7824   -2.2657    3.5734 H   0  0  0  0  0  0  0  0  0  0  0  0
   -0.5836    0.5796    2.8124 H   0  0  0  0  0  0  0  0  0  0  0  0
    1.1928    0.4861    2.7268 H   0  0  0  0  0  0  0  0  0  0  0  0
    0.3000   -0.3025    4.0450 H   0  0  0  0  0  0  0  0  0  0  0  0
   -0.9699   -2.2878   -1.1743 N   0  0  0  0  0  0  0  0  0  0  0  0
   -1.2108   -3.3745   -2.0942 C   0  0  2  0  0  0  0  0  0  0  0  0
   -2.0919   -4.3989   -1.3915 C   0  0  0  0  0  0  0  0  0  0  0  0
   -2.1710   -4.4890   -0.1681 O   0  0  0  0  0  0  0  0  0  0  0  0
    0.0925   -4.0058   -2.5583 C   0  0  0  0  0  0  0  0  0  0  0  0
   -1.5040   -1.4303   -1.2811 H   0  0  0  0  0  0  0  0  0  0  0  0
   -1.7511   -2.9520   -2.9484 H   0  0  0  0  0  0  0  0  0  0  0  0
    0.6478   -4.4346   -1.7161 H   0  0  0  0  0  0  0  0  0  0  0  0
   -0.0906   -4.8109   -3.2776 H   0  0  0  0  0  0  0  0  0  0  0  0
    0.7375   -3.2611   -3.0369 H   0  0  0  0  0  0  0  0  0  0  0  0
   -2.7463   -5.2290   -2.2909 N   0  0  0  0  0  0  0  0  0  0  0  0
   -3.6310   -6.2904   -1.8707 C   0  0  0  0  0  0  0  0  0  0  0  0
   -2.6370   -5.0700   -3.2882 H   0  0  0  0  0  0  0  0  0  0  0  0
   -3.0634   -7.2286   -1.7836 H   0  0  0  0  0  0  0  0  0  0  0  0
   -4.0710   -6.0362   -0.8951 H   0  0  0  0  0  0  0  0  0  0  0  0
   -4.4329   -6.4148   -2.6133 H   0  0  0  0  0  0  0  0  0  0  0  0
  1  3  1  0  0  0  0
  1  7  1  0  0  0  0
  1  2  2  0  0  0  0
 32 33  1  0  0  0  0
 33 41  1  0  0  0  0
 33 34  2  0  0  0  0
  8  9  1  0  0  0  0
  9 17  1  0  0  0  0
  9 10  2  0  0  0  0
 18 19  1  0  0  0  0
 19 31  1  0  0  0  0
 19 20  2  0  0  0  0
 32 35  1  0  0  0  0
  8 11  1  0  0  0  0
 21 23  1  0  0  0  0
 41 42  1  0  0  0  0
 31 32  1  0  0  0  0
  7  8  1  0  0  0  0
 18 21  1  0  0  0  0
 17 18  1  0  0  0  0
 21 22  1  0  0  0  0
  3  4  1  0  0  0  0
  3  5  1  0  0  0  0
  3  6  1  0  0  0  0
 35 38  1  0  0  0  0
 35 39  1  0  0  0  0
 35 40  1  0  0  0  0
 11 14  1  0  0  0  0
 11 15  1  0  0  0  0
 11 16  1  0  0  0  0
 23 28  1  0  0  0  0
 23 29  1  0  0  0  0
 23 30  1  0  0  0  0
 42 44  1  0  0  0  0
 42 45  1  0  0  0  0
 42 46  1  0  0  0  0
 32 37  1  0  0  0  0
  8 13  1  0  0  0  0
 18 25  1  0  0  0  0
 21 26  1  0  0  0  0
 41 43  1  0  0  0  0
  7 12  1  0  0  0  0
 31 36  1  0  0  0  0
 17 24  1  0  0  0  0
 22 27  1  0  0  0  0
M  END
$$$$

  -OEChem-05262214473D

 46 45  0     1  0  0  0  0  0999 V2000
   -4.6700    2.7214    1.5150 C   0  0  0  0  0  0  0  0  0  0  0  0
   -5.4532    2.5715    0.5845 O   0  0  0  0  0  0  0  0  0  0  0  0
   -5.0996    3.4865    2.7226 C   0  0  0  0  0  0  0  0  0  0  0  0
   -4.8796    4.5629    2.6387 H   0  0  0  0  0  0  0  0  0  0  0  0
   -6.1861    3.4241    2.8954 H   0  0  0  0  0  0  0  0  0  0  0  0
   -4.6369    3.1693    3.6708 H   0  0  0  0  0  0  0  0  0  0  0  0
   -3.3731    2.2391    1.5790 N   0  0  0  0  0  0  0  0  0  0  0  0
   -2.7599    1.4751    0.5247 C   0  0  2  0  0  0  0  0  0  0  0  0
   -1.5143    0.8067    1.0915 C   0  0  0  0  0  0  0  0  0  0  0  0
   -0.9247    1.2213    2.0872 O   0  0  0  0  0  0  0  0  0  0  0  0
   -2.4106    2.3553   -0.6653 C   0  0  0  0  0  0  0  0  0  0  0  0
   -2.8254    2.4352    2.4150 H   0  0  0  0  0  0  0  0  0  0  0  0
   -3.4836    0.7082    0.2278 H   0  0  0  0  0  0  0  0  0  0  0  0
   -1.6866    3.1298   -0.3871 H   0  0  0  0  0  0  0  0  0  0  0  0
   -1.9704    1.7677   -1.4777 H   0  0  0  0  0  0  0  0  0  0  0  0
   -3.3030    2.8584   -1.0531 H   0  0  0  0  0  0  0  0  0  0  0  0
   -1.1107   -0.2839    0.3303 N   0  0  0  0  0  0  0  0  0  0  0  0
    0.0490   -1.0750    0.6539 C   0  0  2  0  0  0  0  0  0  0  0  0
   -0.0373   -2.3692   -0.1500 C   0  0  0  0  0  0  0  0  0  0  0  0
    0.4694   -3.4252    0.2234 O   0  0  0  0  0  0  0  0  0  0  0  0
    0.1787   -1.3525    2.1587 C   0  0  2  0  0  0  0  0  0  0  0  0
   -0.9504   -2.0821    2.6366 O   0  0  0  0  0  0  0  0  0  0  0  0
    0.2835   -0.0697    2.9746 C   0  0  0  0  0  0  0  0  0  0  0  0
   -1.6733   -0.5660   -0.4691 H   0  0  0  0  0  0  0  0  0  0  0  0
    0.9194   -0.5080    0.3019 H   0  0  0  0  0  0  0  0  0  0  0  0
    1.0675   -1.9625    2.3574 H   0  0  0  0  0  0  0  0  0  0  0  0
   -0.7824   -2.2657    3.5734 H   0  0  0  0  0  0  0  0  0  0  0  0
   -0.5836    0.5796    2.8124 H   0  0  0  0  0  0  0  0  0  0  0  0
    1.1928    0.4861    2.7268 H   0  0  0  0  0  0  0  0  0  0  0  0
    0.3000   -0.3025    4.0450 H   0  0  0  0  0  0  0  0  0  0  0  0
   -0.7032   -2.1935   -1.3547 N   0  0  0  0  0  0  0  0  0  0  0  0
   -0.8849   -3.2649   -2.3057 C   0  0  2  0  0  0  0  0  0  0  0  0
   -2.0310   -4.1398   -1.8152 C   0  0  0  0  0  0  0  0  0  0  0  0
   -2.3871   -4.1818   -0.6394 O   0  0  0  0  0  0  0  0  0  0  0  0
    0.3885   -4.0795   -2.4714 C   0  0  0  0  0  0  0  0  0  0  0  0
   -1.0775   -1.2755   -1.5762 H   0  0  0  0  0  0  0  0  0  0  0  0
   -1.1619   -2.7991   -3.2577 H   0  0  0  0  0  0  0  0  0  0  0  0
    0.6817   -4.5539   -1.5277 H   0  0  0  0  0  0  0  0  0  0  0  0
    0.2576   -4.8737   -3.2138 H   0  0  0  0  0  0  0  0  0  0  0  0
    1.2189   -3.4431   -2.7955 H   0  0  0  0  0  0  0  0  0  0  0  0
   -2.5811   -4.9006   -2.8373 N   0  0  0  0  0  0  0  0  0  0  0  0
   -3.6741   -5.8202   -2.6231 C   0  0  0  0  0  0  0  0  0  0  0  0
   -2.2357   -4.7876   -3.7858 H   0  0  0  0  0  0  0  0  0  0  0  0
   -3.2742   -6.8233   -2.4135 H   0  0  0  0  0  0  0  0  0  0  0  0
   -4.2771   -5.4800   -1.7684 H   0  0  0  0  0  0  0  0  0  0  0  0
   -4.3036   -5.8575   -3.5244 H   0  0  0  0  0  0  0  0  0  0  0  0
  1  3  1  0  0  0  0
  1  7  1  0  0  0  0
  1  2  2  0  0  0  0
 32 33  1  0  0  0  0
 33 41  1  0  0  0  0
 33 34  2  0  0  0  0
  8  9  1  0  0  0  0
  9 17  1  0  0  0  0
  9 10  2  0  0  0  0
 18 19  1  0  0  0  0
 19 31  1  0  0  0  0
 19 20  2  0  0  0  0
 32 35  1  0  0  0  0
  8 11  1  0  0  0  0
 21 23  1  0  0  0  0
 41 42  1  0  0  0  0
 31 32  1  0  0  0  0
  7  8  1  0  0  0  0
 18 21  1  0  0  0  0
 17 18  1  0  0  0  0
 21 22  1  0  0  0  0
  3  4  1  0  0  0  0
  3  5  1  0  0  0  0
  3  6  1  0  0  0  0
 35 38  1  0  0  0  0
 35 39  1  0  0  0  0
 35 40  1  0  0  0  0
 11 14  1  0  0  0  0
 11 15  1  0  0  0  0
 11 16  1  0  0  0  0
 23 28  1  0  0  0  0
 23 29  1  0  0  0  0
 23 30  1  0  0  0  0
 42 44  1  0  0  0  0
 42 45  1  0  0  0  0
 42 46  1  0  0  0  0
 32 37  1  0  0  0  0
  8 13  1  0  0  0  0
 18 25  1  0  0  0  0
 21 26  1  0  0  0  0
 41 43  1  0  0  0  0
  7 12  1  0  0  0  0
 31 36  1  0  0  0  0
 17 24  1  0  0  0  0
 22 27  1  0  0  0  0
M  END
$$$$

  -OEChem-05262214473D

 46 45  0     1  0  0  0  0  0999 V2000
   -4.6700    2.7214    1.5150 C   0  0  0  0  0  0  0  0  0  0  0  0
   -5.4532    2.5715    0.5845 O   0  0  0  0  0  0  0  0  0  0  0  0
   -5.0996    3.4865    2.7226 C   0  0  0  0  0  0  0  0  0  0  0  0
   -4.8796    4.5629    2.6387 H   0  0  0  0  0  0  0  0  0  0  0  0
   -6.1861    3.4241    2.8954 H   0  0  0  0  0  0  0  0  0  0  0  0
   -4.6369    3.1693    3.6708 H   0  0  0  0  0  0  0  0  0  0  0  0
   -3.3731    2.2391    1.5790 N   0  0  0  0  0  0  0  0  0  0  0  0
   -2.7599    1.4751    0.5247 C   0  0  2  0  0  0  0  0  0  0  0  0
   -1.5143    0.8067    1.0915 C   0  0  0  0  0  0  0  0  0  0  0  0
   -0.9247    1.2213    2.0872 O   0  0  0  0  0  0  0  0  0  0  0  0
   -2.4106    2.3553   -0.6653 C   0  0  0  0  0  0  0  0  0  0  0  0
   -2.8254    2.4352    2.4150 H   0  0  0  0  0  0  0  0  0  0  0  0
   -3.4836    0.7082    0.2278 H   0  0  0  0  0  0  0  0  0  0  0  0
   -1.6866    3.1298   -0.3871 H   0  0  0  0  0  0  0  0  0  0  0  0
   -1.9704    1.7677   -1.4777 H   0  0  0  0  0  0  0  0  0  0  0  0
   -3.3030    2.8584   -1.0531 H   0  0  0  0  0  0  0  0  0  0  0  0
   -1.1107   -0.2839    0.3303 N   0  0  0  0  0  0  0  0  0  0  0  0
    0.0490   -1.0750    0.6539 C   0  0  2  0  0  0  0  0  0  0  0  0
   -0.0373   -2.3692   -0.1500 C   0  0  0  0  0  0  0  0  0  0  0  0
    0.2249   -3.4722    0.3253 O   0  0  0  0  0  0  0  0  0  0  0  0
    0.1787   -1.3525    2.1587 C   0  0  2  0  0  0  0  0  0  0  0  0
   -0.9504   -2.0821    2.6366 O   0  0  0  0  0  0  0  0  0  0  0  0
    0.2835   -0.0697    2.9746 C   0  0  0  0  0  0  0  0  0  0  0  0
   -1.6733   -0.5660   -0.4691 H   0  0  0  0  0  0  0  0  0  0  0  0
    0.9194   -0.5080    0.3019 H   0  0  0  0  0  0  0  0  0  0  0  0
    1.0675   -1.9625    2.3574 H   0  0  0  0  0  0  0  0  0  0  0  0
   -0.7824   -2.2657    3.5734 H   0  0  0  0  0  0  0  0  0  0  0  0
   -0.5836    0.5796    2.8124 H   0  0  0  0  0  0  0  0  0  0  0  0
    1.1928    0.4861    2.7268 H   0  0  0  0  0  0  0  0  0  0  0  0
    0.3000   -0.3025    4.0450 H   0  0  0  0  0  0  0  0  0  0  0  0
   -0.3932   -2.1414   -1.4718 N   0  0  0  0  0  0  0  0  0  0  0  0
   -0.5087   -3.2065   -2.4401 C   0  0  2  0  0  0  0  0  0  0  0  0
   -1.8437   -3.9040   -2.2149 C   0  0  0  0  0  0  0  0  0  0  0  0
   -2.4504   -3.8625   -1.1466 O   0  0  0  0  0  0  0  0  0  0  0  0
    0.6452   -4.1898   -2.3213 C   0  0  0  0  0  0  0  0  0  0  0  0
   -0.5796   -1.1884   -1.7698 H   0  0  0  0  0  0  0  0  0  0  0  0
   -0.5040   -2.7363   -3.4295 H   0  0  0  0  0  0  0  0  0  0  0  0
    0.6569   -4.6710   -1.3365 H   0  0  0  0  0  0  0  0  0  0  0  0
    0.5715   -4.9810   -3.0748 H   0  0  0  0  0  0  0  0  0  0  0  0
    1.6061   -3.6810   -2.4540 H   0  0  0  0  0  0  0  0  0  0  0  0
   -2.2569   -4.6139   -3.3336 N   0  0  0  0  0  0  0  0  0  0  0  0
   -3.4863   -5.3711   -3.3663 C   0  0  0  0  0  0  0  0  0  0  0  0
   -1.7004   -4.5768   -4.1825 H   0  0  0  0  0  0  0  0  0  0  0  0
   -3.2843   -6.4122   -3.0743 H   0  0  0  0  0  0  0  0  0  0  0  0
   -4.2088   -4.9274   -2.6654 H   0  0  0  0  0  0  0  0  0  0  0  0
   -3.9028   -5.3501   -4.3842 H   0  0  0  0  0  0  0  0  0  0  0  0
  1  3  1  0  0  0  0
  1  7  1  0  0  0  0
  1  2  2  0  0  0  0
 32 33  1  0  0  0  0
 33 41  1  0  0  0  0
 33 34  2  0  0  0  0
  8  9  1  0  0  0  0
  9 17  1  0  0  0  0
  9 10  2  0  0  0  0
 18 19  1  0  0  0  0
 19 31  1  0  0  0  0
 19 20  2  0  0  0  0
 32 35  1  0  0  0  0
  8 11  1  0  0  0  0
 21 23  1  0  0  0  0
 41 42  1  0  0  0  0
 31 32  1  0  0  0  0
  7  8  1  0  0  0  0
 18 21  1  0  0  0  0
 17 18  1  0  0  0  0
 21 22  1  0  0  0  0
  3  4  1  0  0  0  0
  3  5  1  0  0  0  0
  3  6  1  0  0  0  0
 35 38  1  0  0  0  0
 35 39  1  0  0  0  0
 35 40  1  0  0  0  0
 11 14  1  0  0  0  0
 11 15  1  0  0  0  0
 11 16  1  0  0  0  0
 23 28  1  0  0  0  0
 23 29  1  0  0  0  0
 23 30  1  0  0  0  0
 42 44  1  0  0  0  0
 42 45  1  0  0  0  0
 42 46  1  0  0  0  0
 32 37  1  0  0  0  0
  8 13  1  0  0  0  0
 18 25  1  0  0  0  0
 21 26  1  0  0  0  0
 41 43  1  0  0  0  0
  7 12  1  0  0  0  0
 31 36  1  0  0  0  0
 17 24  1  0  0  0  0
 22 27  1  0  0  0  0
M  END
$$$$

  -OEChem-05262214473D

 46 45  0     1  0  0  0  0  0999 V2000
   -4.6700    2.7214    1.5150 C   0  0  0  0  0  0  0  0  0  0  0  0
   -5.4532    2.5715    0.5845 O   0  0  0  0  0  0  0  0  0  0  0  0
   -5.0996    3.4865    2.7226 C   0  0  0  0  0  0  0  0  0  0  0  0
   -4.8796    4.5629    2.6387 H   0  0  0  0  0  0  0  0  0  0  0  0
   -6.1861    3.4241    2.8954 H   0  0  0  0  0  0  0  0  0  0  0  0
   -4.6369    3.1693    3.6708 H   0  0  0  0  0  0  0  0  0  0  0  0
   -3.3731    2.2391    1.5790 N   0  0  0  0  0  0  0  0  0  0  0  0
   -2.7599    1.4751    0.5247 C   0  0  2  0  0  0  0  0  0  0  0  0
   -1.5143    0.8067    1.0915 C   0  0  0  0  0  0  0  0  0  0  0  0
   -0.9247    1.2213    2.0872 O   0  0  0  0  0  0  0  0  0  0  0  0
   -2.4106    2.3553   -0.6653 C   0  0  0  0  0  0  0  0  0  0  0  0
   -2.8254    2.4352    2.4150 H   0  0  0  0  0  0  0  0  0  0  0  0
   -3.4836    0.7082    0.2278 H   0  0  0  0  0  0  0  0  0  0  0  0
   -1.6866    3.1298   -0.3871 H   0  0  0  0  0  0  0  0  0  0  0  0
   -1.9704    1.7677   -1.4777 H   0  0  0  0  0  0  0  0  0  0  0  0
   -3.3030    2.8584   -1.0531 H   0  0  0  0  0  0  0  0  0  0  0  0
   -1.1107   -0.2839    0.3303 N   0  0  0  0  0  0  0  0  0  0  0  0
    0.0490   -1.0750    0.6539 C   0  0  2  0  0  0  0  0  0  0  0  0
   -0.0373   -2.3692   -0.1500 C   0  0  0  0  0  0  0  0  0  0  0  0
   -0.0400   -3.4828    0.3708 O   0  0  0  0  0  0  0  0  0  0  0  0
    0.1787   -1.3525    2.1587 C   0  0  2  0  0  0  0  0  0  0  0  0
   -0.9504   -2.0821    2.6366 O   0  0  0  0  0  0  0  0  0  0  0  0
    0.2835   -0.0697    2.9746 C   0  0  0  0  0  0  0  0  0  0  0  0
   -1.6733   -0.5660   -0.4691 H   0  0  0  0  0  0  0  0  0  0  0  0
    0.9194   -0.5080    0.3019 H   0  0  0  0  0  0  0  0  0  0  0  0
    1.0675   -1.9625    2.3574 H   0  0  0  0  0  0  0  0  0  0  0  0
   -0.7824   -2.2657    3.5734 H   0  0  0  0  0  0  0  0  0  0  0  0
   -0.5836    0.5796    2.8124 H   0  0  0  0  0  0  0  0  0  0  0  0
    1.1928    0.4861    2.7268 H   0  0  0  0  0  0  0  0  0  0  0  0
    0.3000   -0.3025    4.0450 H   0  0  0  0  0  0  0  0  0  0  0  0
   -0.0608   -2.1351   -1.5176 N   0  0  0  0  0  0  0  0  0  0  0  0
   -0.1079   -3.2033   -2.4882 C   0  0  2  0  0  0  0  0  0  0  0  0
   -1.5430   -3.7076   -2.5633 C   0  0  0  0  0  0  0  0  0  0  0  0
   -2.3568   -3.5529   -1.6551 O   0  0  0  0  0  0  0  0  0  0  0  0
    0.8452   -4.3292   -2.1185 C   0  0  0  0  0  0  0  0  0  0  0  0
   -0.0444   -1.1750   -1.8488 H   0  0  0  0  0  0  0  0  0  0  0  0
    0.1778   -2.7678   -3.4519 H   0  0  0  0  0  0  0  0  0  0  0  0
    0.5749   -4.7779   -1.1556 H   0  0  0  0  0  0  0  0  0  0  0  0
    0.8295   -5.1253   -2.8701 H   0  0  0  0  0  0  0  0  0  0  0  0
    1.8727   -3.9587   -2.0357 H   0  0  0  0  0  0  0  0  0  0  0  0
   -1.7956   -4.3885   -3.7460 N   0  0  0  0  0  0  0  0  0  0  0  0
   -3.0807   -4.9737   -4.0495 C   0  0  0  0  0  0  0  0  0  0  0  0
   -1.0674   -4.4521   -4.4513 H   0  0  0  0  0  0  0  0  0  0  0  0
   -3.0929   -6.0234   -3.7207 H   0  0  0  0  0  0  0  0  0  0  0  0
   -3.8705   -4.4161   -3.5249 H   0  0  0  0  0  0  0  0  0  0  0  0
   -3.2577   -4.9273   -5.1341 H   0  0  0  0  0  0  0  0  0  0  0  0
  1  3  1  0  0  0  0
  1  7  1  0  0  0  0
  1  2  2  0  0  0  0
 32 33  1  0  0  0  0
 33 41  1  0  0  0  0
 33 34  2  0  0  0  0
  8  9  1  0  0  0  0
  9 17  1  0  0  0  0
  9 10  2  0  0  0  0
 18 19  1  0  0  0  0
 19 31  1  0  0  0  0
 19 20  2  0  0  0  0
 32 35  1  0  0  0  0
  8 11  1  0  0  0  0
 21 23  1  0  0  0  0
 41 42  1  0  0  0  0
 31 32  1  0  0  0  0
  7  8  1  0  0  0  0
 18 21  1  0  0  0  0
 17 18  1  0  0  0  0
 21 22  1  0  0  0  0
  3  4  1  0  0  0  0
  3  5  1  0  0  0  0
  3  6  1  0  0  0  0
 35 38  1  0  0  0  0
 35 39  1  0  0  0  0
 35 40  1  0  0  0  0
 11 14  1  0  0  0  0
 11 15  1  0  0  0  0
 11 16  1  0  0  0  0
 23 28  1  0  0  0  0
 23 29  1  0  0  0  0
 23 30  1  0  0  0  0
 42 44  1  0  0  0  0
 42 45  1  0  0  0  0
 42 46  1  0  0  0  0
 32 37  1  0  0  0  0
  8 13  1  0  0  0  0
 18 25  1  0  0  0  0
 21 26  1  0  0  0  0
 41 43  1  0  0  0  0
  7 12  1  0  0  0  0
 31 36  1  0  0  0  0
 17 24  1  0  0  0  0
 22 27  1  0  0  0  0
M  END
$$$$

  -OEChem-05262214473D

 46 45  0     1  0  0  0  0  0999 V2000
   -4.6700    2.7214    1.5150 C   0  0  0  0  0  0  0  0  0  0  0  0
   -5.4532    2.5715    0.5845 O   0  0  0  0  0  0  0  0  0  0  0  0
   -5.0996    3.4865    2.7226 C   0  0  0  0  0  0  0  0  0  0  0  0
   -4.8796    4.5629    2.6387 H   0  0  0  0  0  0  0  0  0  0  0  0
   -6.1861    3.4241    2.8954 H   0  0  0  0  0  0  0  0  0  0  0  0
   -4.6369    3.1693    3.6708 H   0  0  0  0  0  0  0  0  0  0  0  0
   -3.3731    2.2391    1.5790 N   0  0  0  0  0  0  0  0  0  0  0  0
   -2.7599    1.4751    0.5247 C   0  0  2  0  0  0  0  0  0  0  0  0
   -1.5143    0.8067    1.0915 C   0  0  0  0  0  0  0  0  0  0  0  0
   -0.9247    1.2213    2.0872 O   0  0  0  0  0  0  0  0  0  0  0  0
   -2.4106    2.3553   -0.6653 C   0  0  0  0  0  0  0  0  0  0  0  0
   -2.8254    2.4352    2.4150 H   0  0  0  0  0  0  0  0  0  0  0  0
   -3.4836    0.7082    0.2278 H   0  0  0  0  0  0  0  0  0  0  0  0
   -1.6866    3.1298   -0.3871 H   0  0  0  0  0  0  0  0  0  0  0  0
   -1.9704    1.7677   -1.4777 H   0  0  0  0  0  0  0  0  0  0  0  0
   -3.3030    2.8584   -1.0531 H   0  0  0  0  0  0  0  0  0  0  0  0
   -1.1107   -0.2839    0.3303 N   0  0  0  0  0  0  0  0  0  0  0  0
    0.0490   -1.0750    0.6539 C   0  0  2  0  0  0  0  0  0  0  0  0
   -0.0373   -2.3692   -0.1500 C   0  0  0  0  0  0  0  0  0  0  0  0
   -0.3074   -3.4562    0.3567 O   0  0  0  0  0  0  0  0  0  0  0  0
    0.1787   -1.3525    2.1587 C   0  0  2  0  0  0  0  0  0  0  0  0
   -0.9504   -2.0821    2.6366 O   0  0  0  0  0  0  0  0  0  0  0  0
    0.2835   -0.0697    2.9746 C   0  0  0  0  0  0  0  0  0  0  0  0
   -1.6733   -0.5660   -0.4691 H   0  0  0  0  0  0  0  0  0  0  0  0
    0.9194   -0.5080    0.3019 H   0  0  0  0  0  0  0  0  0  0  0  0
    1.0675   -1.9625    2.3574 H   0  0  0  0  0  0  0  0  0  0  0  0
   -0.7824   -2.2657    3.5734 H   0  0  0  0  0  0  0  0  0  0  0  0
   -0.5836    0.5796    2.8124 H   0  0  0  0  0  0  0  0  0  0  0  0
    1.1928    0.4861    2.7268 H   0  0  0  0  0  0  0  0  0  0  0  0
    0.3000   -0.3025    4.0450 H   0  0  0  0  0  0  0  0  0  0  0  0
    0.2711   -2.1750   -1.4890 N   0  0  0  0  0  0  0  0  0  0  0  0
    0.2903   -3.2556   -2.4467 C   0  0  2  0  0  0  0  0  0  0  0  0
   -1.1492   -3.5640   -2.8368 C   0  0  0  0  0  0  0  0  0  0  0  0
   -2.1125   -3.2741   -2.1302 O   0  0  0  0  0  0  0  0  0  0  0  0
    0.9749   -4.4881   -1.8766 C   0  0  0  0  0  0  0  0  0  0  0  0
    0.4918   -1.2362   -1.8079 H   0  0  0  0  0  0  0  0  0  0  0  0
    0.8369   -2.8915   -3.3234 H   0  0  0  0  0  0  0  0  0  0  0  0
    0.4415   -4.8674   -0.9973 H   0  0  0  0  0  0  0  0  0  0  0  0
    1.0141   -5.2969   -2.6137 H   0  0  0  0  0  0  0  0  0  0  0  0
    2.0005   -4.2571   -1.5690 H   0  0  0  0  0  0  0  0  0  0  0  0
   -1.2288   -4.2396   -4.0464 N   0  0  0  0  0  0  0  0  0  0  0  0
   -2.4847   -4.6553   -4.6261 C   0  0  0  0  0  0  0  0  0  0  0  0
   -0.3800   -4.4218   -4.5738 H   0  0  0  0  0  0  0  0  0  0  0  0
   -2.7132   -5.6834   -4.3088 H   0  0  0  0  0  0  0  0  0  0  0  0
   -3.2853   -3.9809   -4.2883 H   0  0  0  0  0  0  0  0  0  0  0  0
   -2.4123   -4.6178   -5.7231 H   0  0  0  0  0  0  0  0  0  0  0  0
  1  3  1  0  0  0  0
  1  7  1  0  0  0  0
  1  2  2  0  0  0  0
 32 33  1  0  0  0  0
 33 41  1  0  0  0  0
 33 34  2  0  0  0  0
  8  9  1  0  0  0  0
  9 17  1  0  0  0  0
  9 10  2  0  0  0  0
 18 19  1  0  0  0  0
 19 31  1  0  0  0  0
 19 20  2  0  0  0  0
 32 35  1  0  0  0  0
  8 11  1  0  0  0  0
 21 23  1  0  0  0  0
 41 42  1  0  0  0  0
 31 32  1  0  0  0  0
  7  8  1  0  0  0  0
 18 21  1  0  0  0  0
 17 18  1  0  0  0  0
 21 22  1  0  0  0  0
  3  4  1  0  0  0  0
  3  5  1  0  0  0  0
  3  6  1  0  0  0  0
 35 38  1  0  0  0  0
 35 39  1  0  0  0  0
 35 40  1  0  0  0  0
 11 14  1  0  0  0  0
 11 15  1  0  0  0  0
 11 16  1  0  0  0  0
 23 28  1  0  0  0  0
 23 29  1  0  0  0  0
 23 30  1  0  0  0  0
 42 44  1  0  0  0  0
 42 45  1  0  0  0  0
 42 46  1  0  0  0  0
 32 37  1  0  0  0  0
  8 13  1  0  0  0  0
 18 25  1  0  0  0  0
 21 26  1  0  0  0  0
 41 43  1  0  0  0  0
  7 12  1  0  0  0  0
 31 36  1  0  0  0  0
 17 24  1  0  0  0  0
 22 27  1  0  0  0  0
M  END
$$$$

  -OEChem-05262214473D

 46 45  0     1  0  0  0  0  0999 V2000
   -4.6700    2.7214    1.5150 C   0  0  0  0  0  0  0  0  0  0  0  0
   -5.4532    2.5715    0.5845 O   0  0  0  0  0  0  0  0  0  0  0  0
   -5.0996    3.4865    2.7226 C   0  0  0  0  0  0  0  0  0  0  0  0
   -4.8796    4.5629    2.6387 H   0  0  0  0  0  0  0  0  0  0  0  0
   -6.1861    3.4241    2.8954 H   0  0  0  0  0  0  0  0  0  0  0  0
   -4.6369    3.1693    3.6708 H   0  0  0  0  0  0  0  0  0  0  0  0
   -3.3731    2.2391    1.5790 N   0  0  0  0  0  0  0  0  0  0  0  0
   -2.7599    1.4751    0.5247 C   0  0  2  0  0  0  0  0  0  0  0  0
   -1.5143    0.8067    1.0915 C   0  0  0  0  0  0  0  0  0  0  0  0
   -0.9247    1.2213    2.0872 O   0  0  0  0  0  0  0  0  0  0  0  0
   -2.4106    2.3553   -0.6653 C   0  0  0  0  0  0  0  0  0  0  0  0
   -2.8254    2.4352    2.4150 H   0  0  0  0  0  0  0  0  0  0  0  0
   -3.4836    0.7082    0.2278 H   0  0  0  0  0  0  0  0  0  0  0  0
   -1.6866    3.1298   -0.3871 H   0  0  0  0  0  0  0  0  0  0  0  0
   -1.9704    1.7677   -1.4777 H   0  0  0  0  0  0  0  0  0  0  0  0
   -3.3030    2.8584   -1.0531 H   0  0  0  0  0  0  0  0  0  0  0  0
   -1.1107   -0.2839    0.3303 N   0  0  0  0  0  0  0  0  0  0  0  0
    0.0490   -1.0750    0.6539 C   0  0  2  0  0  0  0  0  0  0  0  0
   -0.0373   -2.3692   -0.1500 C   0  0  0  0  0  0  0  0  0  0  0  0
   -0.5589   -3.3943    0.2840 O   0  0  0  0  0  0  0  0  0  0  0  0
    0.1787   -1.3525    2.1587 C   0  0  2  0  0  0  0  0  0  0  0  0
   -0.9504   -2.0821    2.6366 O   0  0  0  0  0  0  0  0  0  0  0  0
    0.2835   -0.0697    2.9746 C   0  0  0  0  0  0  0  0  0  0  0  0
   -1.6733   -0.5660   -0.4691 H   0  0  0  0  0  0  0  0  0  0  0  0
    0.9194   -0.5080    0.3019 H   0  0  0  0  0  0  0  0  0  0  0  0
    1.0675   -1.9625    2.3574 H   0  0  0  0  0  0  0  0  0  0  0  0
   -0.7824   -2.2657    3.5734 H   0  0  0  0  0  0  0  0  0  0  0  0
   -0.5836    0.5796    2.8124 H   0  0  0  0  0  0  0  0  0  0  0  0
    1.1928    0.4861    2.7268 H   0  0  0  0  0  0  0  0  0  0  0  0
    0.3000   -0.3025    4.0450 H   0  0  0  0  0  0  0  0  0  0  0  0
    0.5799   -2.2584   -1.3879 N   0  0  0  0  0  0  0  0  0  0  0  0
    0.6587   -3.3599   -2.3184 C   0  0  2  0  0  0  0  0  0  0  0  0
   -0.6893   -3.4830   -3.0165 C   0  0  0  0  0  0  0  0  0  0  0  0
   -1.7342   -3.0450   -2.5396 O   0  0  0  0  0  0  0  0  0  0  0  0
    1.0254   -4.6557   -1.6121 C   0  0  0  0  0  0  0  0  0  0  0  0
    0.9924   -1.3678   -1.6497 H   0  0  0  0  0  0  0  0  0  0  0  0
    1.4285   -3.0990   -3.0528 H   0  0  0  0  0  0  0  0  0  0  0  0
    0.2657   -4.9333   -0.8723 H   0  0  0  0  0  0  0  0  0  0  0  0
    1.1127   -5.4841   -2.3229 H   0  0  0  0  0  0  0  0  0  0  0  0
    1.9808   -4.5559   -1.0858 H   0  0  0  0  0  0  0  0  0  0  0  0
   -0.5951   -4.1776   -4.2144 N   0  0  0  0  0  0  0  0  0  0  0  0
   -1.7390   -4.4373   -5.0570 C   0  0  0  0  0  0  0  0  0  0  0  0
    0.3150   -4.4881   -4.5417 H   0  0  0  0  0  0  0  0  0  0  0  0
   -2.1709   -5.4154   -4.7985 H   0  0  0  0  0  0  0  0  0  0  0  0
   -2.4932   -3.6515   -4.9036 H   0  0  0  0  0  0  0  0  0  0  0  0
   -1.4242   -4.4427   -6.1110 H   0  0  0  0  0  0  0  0  0  0  0  0
  1  3  1  0  0  0  0
  1  7  1  0  0  0  0
  1  2  2  0  0  0  0
 32 33  1  0  0  0  0
 33 41  1  0  0  0  0
 33 34  2  0  0  0  0
  8  9  1  0  0  0  0
  9 17  1  0  0  0  0
  9 10  2  0  0  0  0
 18 19  1  0  0  0  0
 19 31  1  0  0  0  0
 19 20  2  0  0  0  0
 32 35  1  0  0  0  0
  8 11  1  0  0  0  0
 21 23  1  0  0  0  0
 41 42  1  0  0  0  0
 31 32  1  0  0  0  0
  7  8  1  0  0  0  0
 18 21  1  0  0  0  0
 17 18  1  0  0  0  0
 21 22  1  0  0  0  0
  3  4  1  0  0  0  0
  3  5  1  0  0  0  0
  3  6  1  0  0  0  0
 35 38  1  0  0  0  0
 35 39  1  0  0  0  0
 35 40  1  0  0  0  0
 11 14  1  0  0  0  0
 11 15  1  0  0  0  0
 11 16  1  0  0  0  0
 23 28  1  0  0  0  0
 23 29  1  0  0  0  0
 23 30  1  0  0  0  0
 42 44  1  0  0  0  0
 42 45  1  0  0  0  0
 42 46  1  0  0  0  0
 32 37  1  0  0  0  0
  8 13  1  0  0  0  0
 18 25  1  0  0  0  0
 21 26  1  0  0  0  0
 41 43  1  0  0  0  0
  7 12  1  0  0  0  0
 31 36  1  0  0  0  0
 17 24  1  0  0  0  0
 22 27  1  0  0  0  0
M  END
$$$$

  -OEChem-05262214473D

 46 45  0     1  0  0  0  0  0999 V2000
   -4.6700    2.7214    1.5150 C   0  0  0  0  0  0  0  0  0  0  0  0
   -5.4532    2.5715    0.5845 O   0  0  0  0  0  0  0  0  0  0  0  0
   -5.0996    3.4865    2.7226 C   0  0  0  0  0  0  0  0  0  0  0  0
   -4.8796    4.5629    2.6387 H   0  0  0  0  0  0  0  0  0  0  0  0
   -6.1861    3.4241    2.8954 H   0  0  0  0  0  0  0  0  0  0  0  0
   -4.6369    3.1693    3.6708 H   0  0  0  0  0  0  0  0  0  0  0  0
   -3.3731    2.2391    1.5790 N   0  0  0  0  0  0  0  0  0  0  0  0
   -2.7599    1.4751    0.5247 C   0  0  2  0  0  0  0  0  0  0  0  0
   -1.5143    0.8067    1.0915 C   0  0  0  0  0  0  0  0  0  0  0  0
   -0.9247    1.2213    2.0872 O   0  0  0  0  0  0  0  0  0  0  0  0
   -2.4106    2.3553   -0.6653 C   0  0  0  0  0  0  0  0  0  0  0  0
   -2.8254    2.4352    2.4150 H   0  0  0  0  0  0  0  0  0  0  0  0
   -3.4836    0.7082    0.2278 H   0  0  0  0  0  0  0  0  0  0  0  0
   -1.6866    3.1298   -0.3871 H   0  0  0  0  0  0  0  0  0  0  0  0
   -1.9704    1.7677   -1.4777 H   0  0  0  0  0  0  0  0  0  0  0  0
   -3.3030    2.8584   -1.0531 H   0  0  0  0  0  0  0  0  0  0  0  0
   -1.1107   -0.2839    0.3303 N   0  0  0  0  0  0  0  0  0  0  0  0
    0.0490   -1.0750    0.6539 C   0  0  2  0  0  0  0  0  0  0  0  0
   -0.0373   -2.3692   -0.1500 C   0  0  0  0  0  0  0  0  0  0  0  0
   -0.7774   -3.3013    0.1577 O   0  0  0  0  0  0  0  0  0  0  0  0
    0.1787   -1.3525    2.1587 C   0  0  2  0  0  0  0  0  0  0  0  0
   -0.9504   -2.0821    2.6366 O   0  0  0  0  0  0  0  0  0  0  0  0
    0.2835   -0.0697    2.9746 C   0  0  0  0  0  0  0  0  0  0  0  0
   -1.6733   -0.5660   -0.4691 H   0  0  0  0  0  0  0  0  0  0  0  0
    0.9194   -0.5080    0.3019 H   0  0  0  0  0  0  0  0  0  0  0  0
    1.0675   -1.9625    2.3574 H   0  0  0  0  0  0  0  0  0  0  0  0
   -0.7824   -2.2657    3.5734 H   0  0  0  0  0  0  0  0  0  0  0  0
   -0.5836    0.5796    2.8124 H   0  0  0  0  0  0  0  0  0  0  0  0
    1.1928    0.4861    2.7268 H   0  0  0  0  0  0  0  0  0  0  0  0
    0.3000   -0.3025    4.0450 H   0  0  0  0  0  0  0  0  0  0  0  0
    0.8447   -2.3795   -1.2213 N   0  0  0  0  0  0  0  0  0  0  0  0
    0.9721   -3.5089   -2.1122 C   0  0  2  0  0  0  0  0  0  0  0  0
   -0.1945   -3.4701   -3.0904 C   0  0  0  0  0  0  0  0  0  0  0  0
   -1.2477   -2.8813   -2.8554 O   0  0  0  0  0  0  0  0  0  0  0  0
    0.9933   -4.8207   -1.3431 C   0  0  0  0  0  0  0  0  0  0  0  0
    1.4233   -1.5608   -1.3851 H   0  0  0  0  0  0  0  0  0  0  0  0
    1.9122   -3.3762   -2.6586 H   0  0  0  0  0  0  0  0  0  0  0  0
    0.0594   -4.9711   -0.7893 H   0  0  0  0  0  0  0  0  0  0  0  0
    1.1186   -5.6741   -2.0177 H   0  0  0  0  0  0  0  0  0  0  0  0
    1.8150   -4.8348   -0.6190 H   0  0  0  0  0  0  0  0  0  0  0  0
    0.0624   -4.2065   -4.2384 N   0  0  0  0  0  0  0  0  0  0  0  0
   -0.8944   -4.3348   -5.3127 C   0  0  0  0  0  0  0  0  0  0  0  0
    0.9702   -4.6464   -4.3572 H   0  0  0  0  0  0  0  0  0  0  0  0
   -1.5031   -5.2376   -5.1563 H   0  0  0  0  0  0  0  0  0  0  0  0
   -1.5481   -3.4503   -5.3290 H   0  0  0  0  0  0  0  0  0  0  0  0
   -0.3608   -4.4140   -6.2713 H   0  0  0  0  0  0  0  0  0  0  0  0
  1  3  1  0  0  0  0
  1  7  1  0  0  0  0
  1  2  2  0  0  0  0
 32 33  1  0  0  0  0
 33 41  1  0  0  0  0
 33 34  2  0  0  0  0
  8  9  1  0  0  0  0
  9 17  1  0  0  0  0
  9 10  2  0  0  0  0
 18 19  1  0  0  0  0
 19 31  1  0  0  0  0
 19 20  2  0  0  0  0
 32 35  1  0  0  0  0
  8 11  1  0  0  0  0
 21 23  1  0  0  0  0
 41 42  1  0  0  0  0
 31 32  1  0  0  0  0
  7  8  1  0  0  0  0
 18 21  1  0  0  0  0
 17 18  1  0  0  0  0
 21 22  1  0  0  0  0
  3  4  1  0  0  0  0
  3  5  1  0  0  0  0
  3  6  1  0  0  0  0
 35 38  1  0  0  0  0
 35 39  1  0  0  0  0
 35 40  1  0  0  0  0
 11 14  1  0  0  0  0
 11 15  1  0  0  0  0
 11 16  1  0  0  0  0
 23 28  1  0  0  0  0
 23 29  1  0  0  0  0
 23 30  1  0  0  0  0
 42 44  1  0  0  0  0
 42 45  1  0  0  0  0
 42 46  1  0  0  0  0
 32 37  1  0  0  0  0
  8 13  1  0  0  0  0
 18 25  1  0  0  0  0
 21 26  1  0  0  0  0
 41 43  1  0  0  0  0
  7 12  1  0  0  0  0
 31 36  1  0  0  0  0
 17 24  1  0  0  0  0
 22 27  1  0  0  0  0
M  END
$$$$

  -OEChem-05262214473D

 46 45  0     1  0  0  0  0  0999 V2000
   -4.6700    2.7214    1.5150 C   0  0  0  0  0  0  0  0  0  0  0  0
   -5.4532    2.5715    0.5845 O   0  0  0  0  0  0  0  0  0  0  0  0
   -5.0996    3.4865    2.7226 C   0  0  0  0  0  0  0  0  0  0  0  0
   -4.8796    4.5629    2.6387 H   0  0  0  0  0  0  0  0  0  0  0  0
   -6.1861    3.4241    2.8954 H   0  0  0  0  0  0  0  0  0  0  0  0
   -4.6369    3.1693    3.6708 H   0  0  0  0  0  0  0  0  0  0  0  0
   -3.3731    2.2391    1.5790 N   0  0  0  0  0  0  0  0  0  0  0  0
   -2.7599    1.4751    0.5247 C   0  0  2  0  0  0  0  0  0  0  0  0
   -1.5143    0.8067    1.0915 C   0  0  0  0  0  0  0  0  0  0  0  0
   -0.9247    1.2213    2.0872 O   0  0  0  0  0  0  0  0  0  0  0  0
   -2.4106    2.3553   -0.6653 C   0  0  0  0  0  0  0  0  0  0  0  0
   -2.8254    2.4352    2.4150 H   0  0  0  0  0  0  0  0  0  0  0  0
   -3.4836    0.7082    0.2278 H   0  0  0  0  0  0  0  0  0  0  0  0
   -1.6866    3.1298   -0.3871 H   0  0  0  0  0  0  0  0  0  0  0  0
   -1.9704    1.7677   -1.4777 H   0  0  0  0  0  0  0  0  0  0  0  0
   -3.3030    2.8584   -1.0531 H   0  0  0  0  0  0  0  0  0  0  0  0
   -1.1107   -0.2839    0.3303 N   0  0  0  0  0  0  0  0  0  0  0  0
    0.0490   -1.0750    0.6539 C   0  0  2  0  0  0  0  0  0  0  0  0
   -0.0373   -2.3692   -0.1500 C   0  0  0  0  0  0  0  0  0  0  0  0
   -0.9481   -3.1835   -0.0137 O   0  0  0  0  0  0  0  0  0  0  0  0
    0.1787   -1.3525    2.1587 C   0  0  2  0  0  0  0  0  0  0  0  0
   -0.9504   -2.0821    2.6366 O   0  0  0  0  0  0  0  0  0  0  0  0
    0.2835   -0.0697    2.9746 C   0  0  0  0  0  0  0  0  0  0  0  0
   -1.6733   -0.5660   -0.4691 H   0  0  0  0  0  0  0  0  0  0  0  0
    0.9194   -0.5080    0.3019 H   0  0  0  0  0  0  0  0  0  0  0  0
    1.0675   -1.9625    2.3574 H   0  0  0  0  0  0  0  0  0  0  0  0
   -0.7824   -2.2657    3.5734 H   0  0  0  0  0  0  0  0  0  0  0  0
   -0.5836    0.5796    2.8124 H   0  0  0  0  0  0  0  0  0  0  0  0
    1.1928    0.4861    2.7268 H   0  0  0  0  0  0  0  0  0  0  0  0
    0.3000   -0.3025    4.0450 H   0  0  0  0  0  0  0  0  0  0  0  0
    1.0474   -2.5302   -1.0004 N   0  0  0  0  0  0  0  0  0  0  0  0
    1.2093   -3.6925   -1.8419 C   0  0  2  0  0  0  0  0  0  0  0  0
    0.3014   -3.5262   -3.0533 C   0  0  0  0  0  0  0  0  0  0  0  0
   -0.6861   -2.7941   -3.0560 O   0  0  0  0  0  0  0  0  0  0  0  0
    0.8807   -4.9717   -1.0879 C   0  0  0  0  0  0  0  0  0  0  0  0
    1.7551   -1.8022   -1.0322 H   0  0  0  0  0  0  0  0  0  0  0  0
    2.2552   -3.7041   -2.1675 H   0  0  0  0  0  0  0  0  0  0  0  0
   -0.1632   -4.9783   -0.7537 H   0  0  0  0  0  0  0  0  0  0  0  0
    1.0314   -5.8539   -1.7188 H   0  0  0  0  0  0  0  0  0  0  0  0
    1.5144   -5.0747   -0.2005 H   0  0  0  0  0  0  0  0  0  0  0  0
    0.6988   -4.3244   -4.1169 N   0  0  0  0  0  0  0  0  0  0  0  0
   -0.0085   -4.3547   -5.3758 C   0  0  0  0  0  0  0  0  0  0  0  0
    1.5410   -4.8859   -4.0328 H   0  0  0  0  0  0  0  0  0  0  0  0
   -0.7553   -5.1622   -5.3581 H   0  0  0  0  0  0  0  0  0  0  0  0
   -0.5144   -3.3910   -5.5353 H   0  0  0  0  0  0  0  0  0  0  0  0
    0.7055   -4.5337   -6.1932 H   0  0  0  0  0  0  0  0  0  0  0  0
  1  3  1  0  0  0  0
  1  7  1  0  0  0  0
  1  2  2  0  0  0  0
 32 33  1  0  0  0  0
 33 41  1  0  0  0  0
 33 34  2  0  0  0  0
  8  9  1  0  0  0  0
  9 17  1  0  0  0  0
  9 10  2  0  0  0  0
 18 19  1  0  0  0  0
 19 31  1  0  0  0  0
 19 20  2  0  0  0  0
 32 35  1  0  0  0  0
  8 11  1  0  0  0  0
 21 23  1  0  0  0  0
 41 42  1  0  0  0  0
 31 32  1  0  0  0  0
  7  8  1  0  0  0  0
 18 21  1  0  0  0  0
 17 18  1  0  0  0  0
 21 22  1  0  0  0  0
  3  4  1  0  0  0  0
  3  5  1  0  0  0  0
  3  6  1  0  0  0  0
 35 38  1  0  0  0  0
 35 39  1  0  0  0  0
 35 40  1  0  0  0  0
 11 14  1  0  0  0  0
 11 15  1  0  0  0  0
 11 16  1  0  0  0  0
 23 28  1  0  0  0  0
 23 29  1  0  0  0  0
 23 30  1  0  0  0  0
 42 44  1  0  0  0  0
 42 45  1  0  0  0  0
 42 46  1  0  0  0  0
 32 37  1  0  0  0  0
  8 13  1  0  0  0  0
 18 25  1  0  0  0  0
 21 26  1  0  0  0  0
 41 43  1  0  0  0  0
  7 12  1  0  0  0  0
 31 36  1  0  0  0  0
 17 24  1  0  0  0  0
 22 27  1  0  0  0  0
M  END
$$$$

  -OEChem-05262214473D

 46 45  0     1  0  0  0  0  0999 V2000
   -4.6700    2.7214    1.5150 C   0  0  0  0  0  0  0  0  0  0  0  0
   -5.4532    2.5715    0.5845 O   0  0  0  0  0  0  0  0  0  0  0  0
   -5.0996    3.4865    2.7226 C   0  0  0  0  0  0  0  0  0  0  0  0
   -4.8796    4.5629    2.6387 H   0  0  0  0  0  0  0  0  0  0  0  0
   -6.1861    3.4241    2.8954 H   0  0  0  0  0  0  0  0  0  0  0  0
   -4.6369    3.1693    3.6708 H   0  0  0  0  0  0  0  0  0  0  0  0
   -3.3731    2.2391    1.5790 N   0  0  0  0  0  0  0  0  0  0  0  0
   -2.7599    1.4751    0.5247 C   0  0  2  0  0  0  0  0  0  0  0  0
   -1.5143    0.8067    1.0915 C   0  0  0  0  0  0  0  0  0  0  0  0
   -0.9247    1.2213    2.0872 O   0  0  0  0  0  0  0  0  0  0  0  0
   -2.4106    2.3553   -0.6653 C   0  0  0  0  0  0  0  0  0  0  0  0
   -2.8254    2.4352    2.4150 H   0  0  0  0  0  0  0  0  0  0  0  0
   -3.4836    0.7082    0.2278 H   0  0  0  0  0  0  0  0  0  0  0  0
   -1.6866    3.1298   -0.3871 H   0  0  0  0  0  0  0  0  0  0  0  0
   -1.9704    1.7677   -1.4777 H   0  0  0  0  0  0  0  0  0  0  0  0
   -3.3030    2.8584   -1.0531 H   0  0  0  0  0  0  0  0  0  0  0  0
   -1.1107   -0.2839    0.3303 N   0  0  0  0  0  0  0  0  0  0  0  0
    0.0490   -1.0750    0.6539 C   0  0  2  0  0  0  0  0  0  0  0  0
   -0.0373   -2.3692   -0.1500 C   0  0  0  0  0  0  0  0  0  0  0  0
   -1.0593   -3.0489   -0.2184 O   0  0  0  0  0  0  0  0  0  0  0  0
    0.1787   -1.3525    2.1587 C   0  0  2  0  0  0  0  0  0  0  0  0
   -0.9504   -2.0821    2.6366 O   0  0  0  0  0  0  0  0  0  0  0  0
    0.2835   -0.0697    2.9746 C   0  0  0  0  0  0  0  0  0  0  0  0
   -1.6733   -0.5660   -0.4691 H   0  0  0  0  0  0  0  0  0  0  0  0
    0.9194   -0.5080    0.3019 H   0  0  0  0  0  0  0  0  0  0  0  0
    1.0675   -1.9625    2.3574 H   0  0  0  0  0  0  0  0  0  0  0  0
   -0.7824   -2.2657    3.5734 H   0  0  0  0  0  0  0  0  0  0  0  0
   -0.5836    0.5796    2.8124 H   0  0  0  0  0  0  0  0  0  0  0  0
    1.1928    0.4861    2.7268 H   0  0  0  0  0  0  0  0  0  0  0  0
    0.3000   -0.3025    4.0450 H   0  0  0  0  0  0  0  0  0  0  0  0
    1.1742   -2.7002   -0.7404 N   0  0  0  0  0  0  0  0  0  0  0  0
    1.3540   -3.8983   -1.5262 C   0  0  2  0  0  0  0  0  0  0  0  0
    0.7646   -3.6474   -2.9079 C   0  0  0  0  0  0  0  0  0  0  0  0
   -0.0877   -2.7894   -3.1278 O   0  0  0  0  0  0  0  0  0  0  0  0
    0.6954   -5.0985   -0.8640 C   0  0  0  0  0  0  0  0  0  0  0  0
    1.9652   -2.0754   -0.6149 H   0  0  0  0  0  0  0  0  0  0  0  0
    2.4339   -4.0604   -1.6131 H   0  0  0  0  0  0  0  0  0  0  0  0
   -0.3870   -4.9544   -0.7682 H   0  0  0  0  0  0  0  0  0  0  0  0
    0.8570   -6.0114   -1.4466 H   0  0  0  0  0  0  0  0  0  0  0  0
    1.0994   -5.2594    0.1413 H   0  0  0  0  0  0  0  0  0  0  0  0
    1.2707   -4.5233   -3.8581 N   0  0  0  0  0  0  0  0  0  0  0  0
    0.8583   -4.4956   -5.2420 C   0  0  0  0  0  0  0  0  0  0  0  0
    1.9885   -5.1904   -3.5907 H   0  0  0  0  0  0  0  0  0  0  0  0
    0.0216   -5.1942   -5.3898 H   0  0  0  0  0  0  0  0  0  0  0  0
    0.5374   -3.4778   -5.5085 H   0  0  0  0  0  0  0  0  0  0  0  0
    1.7020   -4.7935   -5.8819 H   0  0  0  0  0  0  0  0  0  0  0  0
  1  3  1  0  0  0  0
  1  7  1  0  0  0  0
  1  2  2  0  0  0  0
 32 33  1  0  0  0  0
 33 41  1  0  0  0  0
 33 34  2  0  0  0  0
  8  9  1  0  0  0  0
  9 17  1  0  0  0  0
  9 10  2  0  0  0  0
 18 19  1  0  0  0  0
 19 31  1  0  0  0  0
 19 20  2  0  0  0  0
 32 35  1  0  0  0  0
  8 11  1  0  0  0  0
 21 23  1  0  0  0  0
 41 42  1  0  0  0  0
 31 32  1  0  0  0  0
  7  8  1  0  0  0  0
 18 21  1  0  0  0  0
 17 18  1  0  0  0  0
 21 22  1  0  0  0  0
  3  4  1  0  0  0  0
  3  5  1  0  0  0  0
  3  6  1  0  0  0  0
 35 38  1  0  0  0  0
 35 39  1  0  0  0  0
 35 40  1  0  0  0  0
 11 14  1  0  0  0  0
 11 15  1  0  0  0  0
 11 16  1  0  0  0  0
 23 28  1  0  0  0  0
 23 29  1  0  0  0  0
 23 30  1  0  0  0  0
 42 44  1  0  0  0  0
 42 45  1  0  0  0  0
 42 46  1  0  0  0  0
 32 37  1  0  0  0  0
  8 13  1  0  0  0  0
 18 25  1  0  0  0  0
 21 26  1  0  0  0  0
 41 43  1  0  0  0  0
  7 12  1  0  0  0  0
 31 36  1  0  0  0  0
 17 24  1  0  0  0  0
 22 27  1  0  0  0  0
M  END
$$$$

  -OEChem-05262214473D

 46 45  0     1  0  0  0  0  0999 V2000
   -4.6700    2.7214    1.5150 C   0  0  0  0  0  0  0  0  0  0  0  0
   -5.4532    2.5715    0.5845 O   0  0  0  0  0  0  0  0  0  0  0  0
   -5.0996    3.4865    2.7226 C   0  0  0  0  0  0  0  0  0  0  0  0
   -4.8796    4.5629    2.6387 H   0  0  0  0  0  0  0  0  0  0  0  0
   -6.1861    3.4241    2.8954 H   0  0  0  0  0  0  0  0  0  0  0  0
   -4.6369    3.1693    3.6708 H   0  0  0  0  0  0  0  0  0  0  0  0
   -3.3731    2.2391    1.5790 N   0  0  0  0  0  0  0  0  0  0  0  0
   -2.7599    1.4751    0.5247 C   0  0  2  0  0  0  0  0  0  0  0  0
   -1.5143    0.8067    1.0915 C   0  0  0  0  0  0  0  0  0  0  0  0
   -0.9247    1.2213    2.0872 O   0  0  0  0  0  0  0  0  0  0  0  0
   -2.4106    2.3553   -0.6653 C   0  0  0  0  0  0  0  0  0  0  0  0
   -2.8254    2.4352    2.4150 H   0  0  0  0  0  0  0  0  0  0  0  0
   -3.4836    0.7082    0.2278 H   0  0  0  0  0  0  0  0  0  0  0  0
   -1.6866    3.1298   -0.3871 H   0  0  0  0  0  0  0  0  0  0  0  0
   -1.9704    1.7677   -1.4777 H   0  0  0  0  0  0  0  0  0  0  0  0
   -3.3030    2.8584   -1.0531 H   0  0  0  0  0  0  0  0  0  0  0  0
   -1.1107   -0.2839    0.3303 N   0  0  0  0  0  0  0  0  0  0  0  0
    0.0490   -1.0750    0.6539 C   0  0  2  0  0  0  0  0  0  0  0  0
   -0.0373   -2.3692   -0.1500 C   0  0  0  0  0  0  0  0  0  0  0  0
   -1.1034   -2.9067   -0.4425 O   0  0  0  0  0  0  0  0  0  0  0  0
    0.1787   -1.3525    2.1587 C   0  0  2  0  0  0  0  0  0  0  0  0
   -0.9504   -2.0821    2.6366 O   0  0  0  0  0  0  0  0  0  0  0  0
    0.2835   -0.0697    2.9746 C   0  0  0  0  0  0  0  0  0  0  0  0
   -1.6733   -0.5660   -0.4691 H   0  0  0  0  0  0  0  0  0  0  0  0
    0.9194   -0.5080    0.3019 H   0  0  0  0  0  0  0  0  0  0  0  0
    1.0675   -1.9625    2.3574 H   0  0  0  0  0  0  0  0  0  0  0  0
   -0.7824   -2.2657    3.5734 H   0  0  0  0  0  0  0  0  0  0  0  0
   -0.5836    0.5796    2.8124 H   0  0  0  0  0  0  0  0  0  0  0  0
    1.1928    0.4861    2.7268 H   0  0  0  0  0  0  0  0  0  0  0  0
    0.3000   -0.3025    4.0450 H   0  0  0  0  0  0  0  0  0  0  0  0
    1.2163   -2.8779   -0.4589 N   0  0  0  0  0  0  0  0  0  0  0  0
    1.3965   -4.1122   -1.1864 C   0  0  2  0  0  0  0  0  0  0  0  0
    1.1635   -3.8256   -2.6639 C   0  0  0  0  0  0  0  0  0  0  0  0
    0.5066   -2.8675   -3.0659 O   0  0  0  0  0  0  0  0  0  0  0  0
    0.4499   -5.1924   -0.6864 C   0  0  0  0  0  0  0  0  0  0  0  0
    2.0393   -2.3619   -0.1617 H   0  0  0  0  0  0  0  0  0  0  0  0
    2.4363   -4.4208   -1.0331 H   0  0  0  0  0  0  0  0  0  0  0  0
   -0.5968   -4.9010   -0.8316 H   0  0  0  0  0  0  0  0  0  0  0  0
    0.6074   -6.1358   -1.2196 H   0  0  0  0  0  0  0  0  0  0  0  0
    0.5984   -5.3762    0.3831 H   0  0  0  0  0  0  0  0  0  0  0  0
    1.7392   -4.7896   -3.4796 N   0  0  0  0  0  0  0  0  0  0  0  0
    1.6470   -4.7479   -4.9204 C   0  0  0  0  0  0  0  0  0  0  0  0
    2.2822   -5.5390   -3.0609 H   0  0  0  0  0  0  0  0  0  0  0  0
    0.7747   -5.3316   -5.2495 H   0  0  0  0  0  0  0  0  0  0  0  0
    1.5357   -3.7046   -5.2505 H   0  0  0  0  0  0  0  0  0  0  0  0
    2.5608   -5.1757   -5.3587 H   0  0  0  0  0  0  0  0  0  0  0  0
  1  3  1  0  0  0  0
  1  7  1  0  0  0  0
  1  2  2  0  0  0  0
 32 33  1  0  0  0  0
 33 41  1  0  0  0  0
 33 34  2  0  0  0  0
  8  9  1  0  0  0  0
  9 17  1  0  0  0  0
  9 10  2  0  0  0  0
 18 19  1  0  0  0  0
 19 31  1  0  0  0  0
 19 20  2  0  0  0  0
 32 35  1  0  0  0  0
  8 11  1  0  0  0  0
 21 23  1  0  0  0  0
 41 42  1  0  0  0  0
 31 32  1  0  0  0  0
  7  8  1  0  0  0  0
 18 21  1  0  0  0  0
 17 18  1  0  0  0  0
 21 22  1  0  0  0  0
  3  4  1  0  0  0  0
  3  5  1  0  0  0  0
  3  6  1  0  0  0  0
 35 38  1  0  0  0  0
 35 39  1  0  0  0  0
 35 40  1  0  0  0  0
 11 14  1  0  0  0  0
 11 15  1  0  0  0  0
 11 16  1  0  0  0  0
 23 28  1  0  0  0  0
 23 29  1  0  0  0  0
 23 30  1  0  0  0  0
 42 44  1  0  0  0  0
 42 45  1  0  0  0  0
 42 46  1  0  0  0  0
 32 37  1  0  0  0  0
  8 13  1  0  0  0  0
 18 25  1  0  0  0  0
 21 26  1  0  0  0  0
 41 43  1  0  0  0  0
  7 12  1  0  0  0  0
 31 36  1  0  0  0  0
 17 24  1  0  0  0  0
 22 27  1  0  0  0  0
M  END
$$$$

  -OEChem-05262214473D

 46 45  0     1  0  0  0  0  0999 V2000
   -4.6700    2.7214    1.5150 C   0  0  0  0  0  0  0  0  0  0  0  0
   -5.4532    2.5715    0.5845 O   0  0  0  0  0  0  0  0  0  0  0  0
   -5.0996    3.4865    2.7226 C   0  0  0  0  0  0  0  0  0  0  0  0
   -4.8796    4.5629    2.6387 H   0  0  0  0  0  0  0  0  0  0  0  0
   -6.1861    3.4241    2.8954 H   0  0  0  0  0  0  0  0  0  0  0  0
   -4.6369    3.1693    3.6708 H   0  0  0  0  0  0  0  0  0  0  0  0
   -3.3731    2.2391    1.5790 N   0  0  0  0  0  0  0  0  0  0  0  0
   -2.7599    1.4751    0.5247 C   0  0  2  0  0  0  0  0  0  0  0  0
   -1.5143    0.8067    1.0915 C   0  0  0  0  0  0  0  0  0  0  0  0
   -0.9247    1.2213    2.0872 O   0  0  0  0  0  0  0  0  0  0  0  0
   -2.4106    2.3553   -0.6653 C   0  0  0  0  0  0  0  0  0  0  0  0
   -2.8254    2.4352    2.4150 H   0  0  0  0  0  0  0  0  0  0  0  0
   -3.4836    0.7082    0.2278 H   0  0  0  0  0  0  0  0  0  0  0  0
   -1.6866    3.1298   -0.3871 H   0  0  0  0  0  0  0  0  0  0  0  0
   -1.9704    1.7677   -1.4777 H   0  0  0  0  0  0  0  0  0  0  0  0
   -3.3030    2.8584   -1.0531 H   0  0  0  0  0  0  0  0  0  0  0  0
   -1.1107   -0.2839    0.3303 N   0  0  0  0  0  0  0  0  0  0  0  0
    0.0490   -1.0750    0.6539 C   0  0  2  0  0  0  0  0  0  0  0  0
   -0.0373   -2.3692   -0.1500 C   0  0  0  0  0  0  0  0  0  0  0  0
   -1.0775   -2.7667   -0.6707 O   0  0  0  0  0  0  0  0  0  0  0  0
    0.1787   -1.3525    2.1587 C   0  0  2  0  0  0  0  0  0  0  0  0
   -0.9504   -2.0821    2.6366 O   0  0  0  0  0  0  0  0  0  0  0  0
    0.2835   -0.0697    2.9746 C   0  0  0  0  0  0  0  0  0  0  0  0
   -1.6733   -0.5660   -0.4691 H   0  0  0  0  0  0  0  0  0  0  0  0
    0.9194   -0.5080    0.3019 H   0  0  0  0  0  0  0  0  0  0  0  0
    1.0675   -1.9625    2.3574 H   0  0  0  0  0  0  0  0  0  0  0  0
   -0.7824   -2.2657    3.5734 H   0  0  0  0  0  0  0  0  0  0  0  0
   -0.5836    0.5796    2.8124 H   0  0  0  0  0  0  0  0  0  0  0  0
    1.1928    0.4861    2.7268 H   0  0  0  0  0  0  0  0  0  0  0  0
    0.3000   -0.3025    4.0450 H   0  0  0  0  0  0  0  0  0  0  0  0
    1.1711   -3.0511   -0.1751 N   0  0  0  0  0  0  0  0  0  0  0  0
    1.3337   -4.3196   -0.8457 C   0  0  2  0  0  0  0  0  0  0  0  0
    1.4711   -4.0485   -2.3381 C   0  0  0  0  0  0  0  0  0  0  0  0
    1.0565   -3.0230   -2.8745 O   0  0  0  0  0  0  0  0  0  0  0  0
    0.1610   -5.2470   -0.5675 C   0  0  0  0  0  0  0  0  0  0  0  0
    1.9723   -2.6420    0.2966 H   0  0  0  0  0  0  0  0  0  0  0  0
    2.2622   -4.7608   -0.4671 H   0  0  0  0  0  0  0  0  0  0  0  0
   -0.7782   -4.8218   -0.9397 H   0  0  0  0  0  0  0  0  0  0  0  0
    0.2995   -6.2185   -1.0533 H   0  0  0  0  0  0  0  0  0  0  0  0
    0.0454   -5.4171    0.5084 H   0  0  0  0  0  0  0  0  0  0  0  0
    2.0724   -5.1052   -3.0073 N   0  0  0  0  0  0  0  0  0  0  0  0
    2.3039   -5.0945   -4.4329 C   0  0  0  0  0  0  0  0  0  0  0  0
    2.4020   -5.9081   -2.4797 H   0  0  0  0  0  0  0  0  0  0  0  0
    1.4525   -5.5649   -4.9467 H   0  0  0  0  0  0  0  0  0  0  0  0
    2.4125   -4.0560   -4.7789 H   0  0  0  0  0  0  0  0  0  0  0  0
    3.2233   -5.6544   -4.6592 H   0  0  0  0  0  0  0  0  0  0  0  0
  1  3  1  0  0  0  0
  1  7  1  0  0  0  0
  1  2  2  0  0  0  0
 32 33  1  0  0  0  0
 33 41  1  0  0  0  0
 33 34  2  0  0  0  0
  8  9  1  0  0  0  0
  9 17  1  0  0  0  0
  9 10  2  0  0  0  0
 18 19  1  0  0  0  0
 19 31  1  0  0  0  0
 19 20  2  0  0  0  0
 32 35  1  0  0  0  0
  8 11  1  0  0  0  0
 21 23  1  0  0  0  0
 41 42  1  0  0  0  0
 31 32  1  0  0  0  0
  7  8  1  0  0  0  0
 18 21  1  0  0  0  0
 17 18  1  0  0  0  0
 21 22  1  0  0  0  0
  3  4  1  0  0  0  0
  3  5  1  0  0  0  0
  3  6  1  0  0  0  0
 35 38  1  0  0  0  0
 35 39  1  0  0  0  0
 35 40  1  0  0  0  0
 11 14  1  0  0  0  0
 11 15  1  0  0  0  0
 11 16  1  0  0  0  0
 23 28  1  0  0  0  0
 23 29  1  0  0  0  0
 23 30  1  0  0  0  0
 42 44  1  0  0  0  0
 42 45  1  0  0  0  0
 42 46  1  0  0  0  0
 32 37  1  0  0  0  0
  8 13  1  0  0  0  0
 18 25  1  0  0  0  0
 21 26  1  0  0  0  0
 41 43  1  0  0  0  0
  7 12  1  0  0  0  0
 31 36  1  0  0  0  0
 17 24  1  0  0  0  0
 22 27  1  0  0  0  0
M  END
$$$$
