@<TRIPOS>MOLECULE
default_name
   27    27     1     0     0
SMALL
No Charge or Current Charge


@<TRIPOS>ATOM
      1 H1          25.9080    25.0790    24.4630 H          1 ACE       0.112300
      2 CH3         25.9530    26.1010    24.0920 C.3        1 ACE      -0.366200
      3 H2          25.2710    26.7330    24.6570 H          1 ACE       0.112300
      4 H3          25.6950    26.1270    23.0360 H          1 ACE       0.112300
      5 C           27.3610    26.6250    24.2660 C.2        1 ACE       0.597200
      6 O           28.2170    25.8990    24.7640 O.2        1 ACE      -0.567900
      7 N           27.5710    27.8710    23.8480 N.am       2 CPH      -0.567900
      8 H           26.7960    28.3990    23.4690 H          2 CPH      -0.567900
      9 CA          28.8090    28.6520    23.9400 C.3        2 CPH      -0.567900
     10 HA          29.3040    28.4320    24.8840 H          2 CPH      -0.567900
     11 CB          29.7310    28.2670    22.7630 C.3        2 CPH      -0.567900
     12 HB2         29.8740    27.1860    22.7880 H          2 CPH      -0.567900
     13 HB3         29.2020    28.5050    21.8390 H          2 CPH      -0.567900
     14 CG          31.1180    28.8960    22.6800 C.ar       2 CPH      -0.567900
     15 CD1         31.8300    28.7920    21.4680 C.ar       2 CPH      -0.567900
     16 HD1         31.3700    28.3000    20.6250 H          2 CPH      -0.567900
     17 CE1         33.1270    29.3270    21.3480 C.ar       2 CPH      -0.567900
     18 HE1         33.6590    29.2480    20.4110 H          2 CPH      -0.567900
     19 CZ          33.7240    29.9700    22.4450 C.ar       2 CPH      -0.567900
     20 HZ          34.7160    30.3890    22.3550 H          2 CPH      -0.567900
     21 CE2         33.0250    30.0730    23.6600 C.ar       2 CPH      -0.567900
     22 HE2         33.4710    30.5760    24.5050 H          2 CPH      -0.567900
     23 CD2         31.7300    29.5350    23.7780 C.ar       2 CPH      -0.567900
     24 HD2         31.2010    29.6330    24.7150 H          2 CPH      -0.567900
     25 C           28.4350    30.1430    23.9450 C.2        2 CPH      -0.567900
     26 O           27.5150    30.4920    23.1680 O.co2      2 CPH      -0.567900
     27 OXT         29.0120    30.8800    24.7720 O.co2      2 CPH      -0.567900
@<TRIPOS>BOND
     1     5     6 2   
     2     5     7 am  
     3     2     3 1   
     4     2     4 1   
     5     2     5 1   
     6     1     2 1   
     7    25    26 1   
     8    25    27 1   
     9    23    24 1   
    10    21    22 1   
    11    21    23 ar  
    12    19    20 1   
    13    19    21 ar  
    14    17    18 1   
    15    17    19 ar  
    16    15    16 1   
    17    15    17 ar  
    18    14    15 ar  
    19    14    23 ar  
    20    11    12 1   
    21    11    13 1   
    22    11    14 1   
    23     9    10 1   
    24     9    11 1   
    25     9    25 1   
    26     7     8 1   
    27     7     9 1   
@<TRIPOS>SUBSTRUCTURE
     1 ACE         1 TEMP              0 ****  ****    0 ROOT
