default_name
  -OEChem-02102213163D

 33 32  0     1  0  0  0  0  0999 V2000
   -3.8420   -3.6918    1.5562 H   0  0  0  0  0  0  0  0  0  0  0  0
   -3.8430   -2.7008    1.1032 C   0  0  0  0  0  0  0  0  0  0  0  0
   -4.5510   -2.0608    1.6242 H   0  0  0  0  0  0  0  0  0  0  0  0
   -4.1140   -2.7798    0.0522 H   0  0  0  0  0  0  0  0  0  0  0  0
   -2.4570   -2.1098    1.2172 C   0  0  0  0  0  0  0  0  0  0  0  0
   -1.5600   -2.7438    1.7572 O   0  0  0  0  0  0  0  0  0  0  0  0
   -2.2870   -0.8898    0.7102 N   0  0  0  0  0  0  0  0  0  0  0  0
   -3.0820   -0.4218    0.2992 H   0  0  0  0  0  0  0  0  0  0  0  0
   -1.0240   -0.1468    0.7262 C   0  0  1  0  0  0  0  0  0  0  0  0
   -0.3583   -0.6100    1.4558 H   0  0  0  0  0  0  0  0  0  0  0  0
   -0.3739   -0.2459   -0.6675 C   0  0  0  0  0  0  0  0  0  0  0  0
   -0.1942   -1.2992   -0.8925 H   0  0  0  0  0  0  0  0  0  0  0  0
   -1.0634    0.1491   -1.4149 H   0  0  0  0  0  0  0  0  0  0  0  0
    0.9651    0.5013   -0.7685 C   0  0  0  0  0  0  0  0  0  0  0  0
    0.8113    1.5588   -0.5522 H   0  0  0  0  0  0  0  0  0  0  0  0
    1.6640    0.0854   -0.0405 H   0  0  0  0  0  0  0  0  0  0  0  0
    1.5621    0.3671   -2.1740 C   0  0  0  0  0  0  0  0  0  0  0  0
    1.7146   -0.6869   -2.4083 H   0  0  0  0  0  0  0  0  0  0  0  0
    0.8779    0.8028   -2.9027 H   0  0  0  0  0  0  0  0  0  0  0  0
    2.9023    1.0968   -2.2397 C   0  0  0  0  0  0  0  0  0  0  0  0
    2.7497    2.1531   -2.0243 H   0  0  0  0  0  0  0  0  0  0  0  0
    3.5810    0.6748   -1.5004 H   0  0  0  0  0  0  0  0  0  0  0  0
    3.5138    0.9682   -3.5674 N   0  0  0  0  0  0  0  0  0  0  0  0
    4.3883    1.4724   -3.5790 H   0  0  0  0  0  0  0  0  0  0  0  0
    3.6871   -0.0083   -3.7593 H   0  0  0  0  0  0  0  0  0  0  0  0
   -1.2712    1.3099    1.1517 C   0  0  0  0  0  0  0  0  0  0  0  0
   -2.2039    1.9448    0.6639 O   0  0  0  0  0  0  0  0  0  0  0  0
   -0.4306    1.8354    2.0503 N   0  0  0  0  0  0  0  0  0  0  0  0
    0.3001    1.2459    2.4139 H   0  0  0  0  0  0  0  0  0  0  0  0
   -0.5192    3.2082    2.5456 C   0  0  0  0  0  0  0  0  0  0  0  0
   -1.5166    3.3903    2.9518 H   0  0  0  0  0  0  0  0  0  0  0  0
    0.2240    3.3791    3.3257 H   0  0  0  0  0  0  0  0  0  0  0  0
   -0.3477    3.9067    1.7239 H   0  0  0  0  0  0  0  0  0  0  0  0
  5  6  2  0  0  0  0
  5  7  1  0  0  0  0
  2  3  1  0  0  0  0
  2  4  1  0  0  0  0
  2  5  1  0  0  0  0
  1  2  1  0  0  0  0
 26 27  2  0  0  0  0
 26 28  1  0  0  0  0
 23 24  1  0  0  0  0
 23 25  1  0  0  0  0
 20 21  1  0  0  0  0
 20 22  1  0  0  0  0
 20 23  1  0  0  0  0
 17 18  1  0  0  0  0
 17 19  1  0  0  0  0
 17 20  1  0  0  0  0
 14 15  1  0  0  0  0
 14 16  1  0  0  0  0
 14 17  1  0  0  0  0
 11 12  1  0  0  0  0
 11 13  1  0  0  0  0
 11 14  1  0  0  0  0
  9 10  1  0  0  0  0
  9 11  1  0  0  0  0
  9 26  1  0  0  0  0
  7  8  1  0  0  0  0
  7  9  1  0  0  0  0
 30 31  1  0  0  0  0
 30 32  1  0  0  0  0
 30 33  1  0  0  0  0
 28 29  1  0  0  0  0
 28 30  1  0  0  0  0
M  END
$$$$
default_name
  -OEChem-02102213163D

 33 32  0     1  0  0  0  0  0999 V2000
   -3.8420   -3.6918    1.5562 H   0  0  0  0  0  0  0  0  0  0  0  0
   -3.8430   -2.7008    1.1032 C   0  0  0  0  0  0  0  0  0  0  0  0
   -4.5510   -2.0608    1.6242 H   0  0  0  0  0  0  0  0  0  0  0  0
   -4.1140   -2.7798    0.0522 H   0  0  0  0  0  0  0  0  0  0  0  0
   -2.4570   -2.1098    1.2172 C   0  0  0  0  0  0  0  0  0  0  0  0
   -1.5600   -2.7438    1.7572 O   0  0  0  0  0  0  0  0  0  0  0  0
   -2.2870   -0.8898    0.7102 N   0  0  0  0  0  0  0  0  0  0  0  0
   -3.0820   -0.4218    0.2992 H   0  0  0  0  0  0  0  0  0  0  0  0
   -1.0240   -0.1468    0.7262 C   0  0  1  0  0  0  0  0  0  0  0  0
   -0.3583   -0.6100    1.4558 H   0  0  0  0  0  0  0  0  0  0  0  0
   -0.3739   -0.2459   -0.6675 C   0  0  0  0  0  0  0  0  0  0  0  0
   -0.1942   -1.2992   -0.8925 H   0  0  0  0  0  0  0  0  0  0  0  0
   -1.0634    0.1491   -1.4149 H   0  0  0  0  0  0  0  0  0  0  0  0
    0.9651    0.5013   -0.7685 C   0  0  0  0  0  0  0  0  0  0  0  0
    0.8727    1.4827   -0.3025 H   0  0  0  0  0  0  0  0  0  0  0  0
    1.7354   -0.0705   -0.2478 H   0  0  0  0  0  0  0  0  0  0  0  0
    1.3788    0.6875   -2.2327 C   0  0  0  0  0  0  0  0  0  0  0  0
    1.4679   -0.2863   -2.7151 H   0  0  0  0  0  0  0  0  0  0  0  0
    0.6237    1.2788   -2.7515 H   0  0  0  0  0  0  0  0  0  0  0  0
    2.7229    1.4097   -2.3037 C   0  0  0  0  0  0  0  0  0  0  0  0
    2.6315    2.3901   -1.8390 H   0  0  0  0  0  0  0  0  0  0  0  0
    3.4744    0.8294   -1.7709 H   0  0  0  0  0  0  0  0  0  0  0  0
    3.1608    1.5838   -3.6934 N   0  0  0  0  0  0  0  0  0  0  0  0
    4.0425    2.0752   -3.7032 H   0  0  0  0  0  0  0  0  0  0  0  0
    3.2782    0.6757   -4.1200 H   0  0  0  0  0  0  0  0  0  0  0  0
   -1.2712    1.3099    1.1517 C   0  0  0  0  0  0  0  0  0  0  0  0
   -2.2039    1.9448    0.6639 O   0  0  0  0  0  0  0  0  0  0  0  0
   -0.4306    1.8354    2.0503 N   0  0  0  0  0  0  0  0  0  0  0  0
    0.3001    1.2459    2.4139 H   0  0  0  0  0  0  0  0  0  0  0  0
   -0.5192    3.2082    2.5456 C   0  0  0  0  0  0  0  0  0  0  0  0
   -1.5166    3.3903    2.9518 H   0  0  0  0  0  0  0  0  0  0  0  0
    0.2240    3.3791    3.3257 H   0  0  0  0  0  0  0  0  0  0  0  0
   -0.3477    3.9067    1.7239 H   0  0  0  0  0  0  0  0  0  0  0  0
  5  6  2  0  0  0  0
  5  7  1  0  0  0  0
  2  3  1  0  0  0  0
  2  4  1  0  0  0  0
  2  5  1  0  0  0  0
  1  2  1  0  0  0  0
 26 27  2  0  0  0  0
 26 28  1  0  0  0  0
 23 24  1  0  0  0  0
 23 25  1  0  0  0  0
 20 21  1  0  0  0  0
 20 22  1  0  0  0  0
 20 23  1  0  0  0  0
 17 18  1  0  0  0  0
 17 19  1  0  0  0  0
 17 20  1  0  0  0  0
 14 15  1  0  0  0  0
 14 16  1  0  0  0  0
 14 17  1  0  0  0  0
 11 12  1  0  0  0  0
 11 13  1  0  0  0  0
 11 14  1  0  0  0  0
  9 10  1  0  0  0  0
  9 11  1  0  0  0  0
  9 26  1  0  0  0  0
  7  8  1  0  0  0  0
  7  9  1  0  0  0  0
 30 31  1  0  0  0  0
 30 32  1  0  0  0  0
 30 33  1  0  0  0  0
 28 29  1  0  0  0  0
 28 30  1  0  0  0  0
M  END
$$$$
default_name
  -OEChem-02102213163D

 33 32  0     1  0  0  0  0  0999 V2000
   -3.8420   -3.6918    1.5562 H   0  0  0  0  0  0  0  0  0  0  0  0
   -3.8430   -2.7008    1.1032 C   0  0  0  0  0  0  0  0  0  0  0  0
   -4.5510   -2.0608    1.6242 H   0  0  0  0  0  0  0  0  0  0  0  0
   -4.1140   -2.7798    0.0522 H   0  0  0  0  0  0  0  0  0  0  0  0
   -2.4570   -2.1098    1.2172 C   0  0  0  0  0  0  0  0  0  0  0  0
   -1.5600   -2.7438    1.7572 O   0  0  0  0  0  0  0  0  0  0  0  0
   -2.2870   -0.8898    0.7102 N   0  0  0  0  0  0  0  0  0  0  0  0
   -3.0820   -0.4218    0.2992 H   0  0  0  0  0  0  0  0  0  0  0  0
   -1.0240   -0.1468    0.7262 C   0  0  1  0  0  0  0  0  0  0  0  0
   -0.3583   -0.6100    1.4558 H   0  0  0  0  0  0  0  0  0  0  0  0
   -0.3739   -0.2459   -0.6675 C   0  0  0  0  0  0  0  0  0  0  0  0
   -0.1942   -1.2992   -0.8925 H   0  0  0  0  0  0  0  0  0  0  0  0
   -1.0634    0.1491   -1.4149 H   0  0  0  0  0  0  0  0  0  0  0  0
    0.9651    0.5013   -0.7685 C   0  0  0  0  0  0  0  0  0  0  0  0
    0.9620    1.3518   -0.0863 H   0  0  0  0  0  0  0  0  0  0  0  0
    1.7756   -0.1756   -0.4923 H   0  0  0  0  0  0  0  0  0  0  0  0
    1.1999    1.0134   -2.1941 C   0  0  0  0  0  0  0  0  0  0  0  0
    1.1978    0.1740   -2.8901 H   0  0  0  0  0  0  0  0  0  0  0  0
    0.4053    1.7088   -2.4661 H   0  0  0  0  0  0  0  0  0  0  0  0
    2.5468    1.7294   -2.2724 C   0  0  0  0  0  0  0  0  0  0  0  0
    2.5446    2.5793   -1.5917 H   0  0  0  0  0  0  0  0  0  0  0  0
    3.3399    1.0415   -1.9839 H   0  0  0  0  0  0  0  0  0  0  0  0
    2.8145    2.2127   -3.6318 N   0  0  0  0  0  0  0  0  0  0  0  0
    3.7032    2.6913   -3.6436 H   0  0  0  0  0  0  0  0  0  0  0  0
    2.8494    1.4247   -4.2628 H   0  0  0  0  0  0  0  0  0  0  0  0
   -1.2712    1.3099    1.1517 C   0  0  0  0  0  0  0  0  0  0  0  0
   -2.2039    1.9448    0.6639 O   0  0  0  0  0  0  0  0  0  0  0  0
   -0.4306    1.8354    2.0503 N   0  0  0  0  0  0  0  0  0  0  0  0
    0.3001    1.2459    2.4139 H   0  0  0  0  0  0  0  0  0  0  0  0
   -0.5192    3.2082    2.5456 C   0  0  0  0  0  0  0  0  0  0  0  0
   -1.5166    3.3903    2.9518 H   0  0  0  0  0  0  0  0  0  0  0  0
    0.2240    3.3791    3.3257 H   0  0  0  0  0  0  0  0  0  0  0  0
   -0.3477    3.9067    1.7239 H   0  0  0  0  0  0  0  0  0  0  0  0
  5  6  2  0  0  0  0
  5  7  1  0  0  0  0
  2  3  1  0  0  0  0
  2  4  1  0  0  0  0
  2  5  1  0  0  0  0
  1  2  1  0  0  0  0
 26 27  2  0  0  0  0
 26 28  1  0  0  0  0
 23 24  1  0  0  0  0
 23 25  1  0  0  0  0
 20 21  1  0  0  0  0
 20 22  1  0  0  0  0
 20 23  1  0  0  0  0
 17 18  1  0  0  0  0
 17 19  1  0  0  0  0
 17 20  1  0  0  0  0
 14 15  1  0  0  0  0
 14 16  1  0  0  0  0
 14 17  1  0  0  0  0
 11 12  1  0  0  0  0
 11 13  1  0  0  0  0
 11 14  1  0  0  0  0
  9 10  1  0  0  0  0
  9 11  1  0  0  0  0
  9 26  1  0  0  0  0
  7  8  1  0  0  0  0
  7  9  1  0  0  0  0
 30 31  1  0  0  0  0
 30 32  1  0  0  0  0
 30 33  1  0  0  0  0
 28 29  1  0  0  0  0
 28 30  1  0  0  0  0
M  END
$$$$
default_name
  -OEChem-02102213163D

 33 32  0     1  0  0  0  0  0999 V2000
   -3.8420   -3.6918    1.5562 H   0  0  0  0  0  0  0  0  0  0  0  0
   -3.8430   -2.7008    1.1032 C   0  0  0  0  0  0  0  0  0  0  0  0
   -4.5510   -2.0608    1.6242 H   0  0  0  0  0  0  0  0  0  0  0  0
   -4.1140   -2.7798    0.0522 H   0  0  0  0  0  0  0  0  0  0  0  0
   -2.4570   -2.1098    1.2172 C   0  0  0  0  0  0  0  0  0  0  0  0
   -1.5600   -2.7438    1.7572 O   0  0  0  0  0  0  0  0  0  0  0  0
   -2.2870   -0.8898    0.7102 N   0  0  0  0  0  0  0  0  0  0  0  0
   -3.0820   -0.4218    0.2992 H   0  0  0  0  0  0  0  0  0  0  0  0
   -1.0240   -0.1468    0.7262 C   0  0  1  0  0  0  0  0  0  0  0  0
   -0.3583   -0.6100    1.4558 H   0  0  0  0  0  0  0  0  0  0  0  0
   -0.3739   -0.2459   -0.6675 C   0  0  0  0  0  0  0  0  0  0  0  0
   -0.1942   -1.2992   -0.8925 H   0  0  0  0  0  0  0  0  0  0  0  0
   -1.0634    0.1491   -1.4149 H   0  0  0  0  0  0  0  0  0  0  0  0
    0.9651    0.5013   -0.7685 C   0  0  0  0  0  0  0  0  0  0  0  0
    1.0733    1.1750    0.0819 H   0  0  0  0  0  0  0  0  0  0  0  0
    1.7819   -0.2227   -0.7571 H   0  0  0  0  0  0  0  0  0  0  0  0
    1.0374    1.3225   -2.0608 C   0  0  0  0  0  0  0  0  0  0  0  0
    0.9228    0.6627   -2.9213 H   0  0  0  0  0  0  0  0  0  0  0  0
    0.2375    2.0635   -2.0659 H   0  0  0  0  0  0  0  0  0  0  0  0
    2.3862    2.0342   -2.1479 C   0  0  0  0  0  0  0  0  0  0  0  0
    2.4950    2.7077   -1.2993 H   0  0  0  0  0  0  0  0  0  0  0  0
    3.1868    1.2968   -2.1250 H   0  0  0  0  0  0  0  0  0  0  0  0
    2.4984    2.8123   -3.3869 N   0  0  0  0  0  0  0  0  0  0  0  0
    3.3934    3.2788   -3.4045 H   0  0  0  0  0  0  0  0  0  0  0  0
    2.4301    2.1877   -4.1778 H   0  0  0  0  0  0  0  0  0  0  0  0
   -1.2712    1.3099    1.1517 C   0  0  0  0  0  0  0  0  0  0  0  0
   -2.2039    1.9448    0.6639 O   0  0  0  0  0  0  0  0  0  0  0  0
   -0.4306    1.8354    2.0503 N   0  0  0  0  0  0  0  0  0  0  0  0
    0.3001    1.2459    2.4139 H   0  0  0  0  0  0  0  0  0  0  0  0
   -0.5192    3.2082    2.5456 C   0  0  0  0  0  0  0  0  0  0  0  0
   -1.5166    3.3903    2.9518 H   0  0  0  0  0  0  0  0  0  0  0  0
    0.2240    3.3791    3.3257 H   0  0  0  0  0  0  0  0  0  0  0  0
   -0.3477    3.9067    1.7239 H   0  0  0  0  0  0  0  0  0  0  0  0
  5  6  2  0  0  0  0
  5  7  1  0  0  0  0
  2  3  1  0  0  0  0
  2  4  1  0  0  0  0
  2  5  1  0  0  0  0
  1  2  1  0  0  0  0
 26 27  2  0  0  0  0
 26 28  1  0  0  0  0
 23 24  1  0  0  0  0
 23 25  1  0  0  0  0
 20 21  1  0  0  0  0
 20 22  1  0  0  0  0
 20 23  1  0  0  0  0
 17 18  1  0  0  0  0
 17 19  1  0  0  0  0
 17 20  1  0  0  0  0
 14 15  1  0  0  0  0
 14 16  1  0  0  0  0
 14 17  1  0  0  0  0
 11 12  1  0  0  0  0
 11 13  1  0  0  0  0
 11 14  1  0  0  0  0
  9 10  1  0  0  0  0
  9 11  1  0  0  0  0
  9 26  1  0  0  0  0
  7  8  1  0  0  0  0
  7  9  1  0  0  0  0
 30 31  1  0  0  0  0
 30 32  1  0  0  0  0
 30 33  1  0  0  0  0
 28 29  1  0  0  0  0
 28 30  1  0  0  0  0
M  END
$$$$
default_name
  -OEChem-02102213163D

 33 32  0     1  0  0  0  0  0999 V2000
   -3.8420   -3.6918    1.5562 H   0  0  0  0  0  0  0  0  0  0  0  0
   -3.8430   -2.7008    1.1032 C   0  0  0  0  0  0  0  0  0  0  0  0
   -4.5510   -2.0608    1.6242 H   0  0  0  0  0  0  0  0  0  0  0  0
   -4.1140   -2.7798    0.0522 H   0  0  0  0  0  0  0  0  0  0  0  0
   -2.4570   -2.1098    1.2172 C   0  0  0  0  0  0  0  0  0  0  0  0
   -1.5600   -2.7438    1.7572 O   0  0  0  0  0  0  0  0  0  0  0  0
   -2.2870   -0.8898    0.7102 N   0  0  0  0  0  0  0  0  0  0  0  0
   -3.0820   -0.4218    0.2992 H   0  0  0  0  0  0  0  0  0  0  0  0
   -1.0240   -0.1468    0.7262 C   0  0  1  0  0  0  0  0  0  0  0  0
   -0.3583   -0.6100    1.4558 H   0  0  0  0  0  0  0  0  0  0  0  0
   -0.3739   -0.2459   -0.6675 C   0  0  0  0  0  0  0  0  0  0  0  0
   -0.1942   -1.2992   -0.8925 H   0  0  0  0  0  0  0  0  0  0  0  0
   -1.0634    0.1491   -1.4149 H   0  0  0  0  0  0  0  0  0  0  0  0
    0.9651    0.5013   -0.7685 C   0  0  0  0  0  0  0  0  0  0  0  0
    1.1990    0.9645    0.1904 H   0  0  0  0  0  0  0  0  0  0  0  0
    1.7538   -0.2086   -1.0244 H   0  0  0  0  0  0  0  0  0  0  0  0
    0.9026    1.5938   -1.8419 C   0  0  0  0  0  0  0  0  0  0  0  0
    0.6615    1.1464   -2.8066 H   0  0  0  0  0  0  0  0  0  0  0  0
    0.1319    2.3188   -1.5783 H   0  0  0  0  0  0  0  0  0  0  0  0
    2.2518    2.3032   -1.9386 C   0  0  0  0  0  0  0  0  0  0  0  0
    2.4861    2.7666   -0.9816 H   0  0  0  0  0  0  0  0  0  0  0  0
    3.0256    1.5777   -2.1843 H   0  0  0  0  0  0  0  0  0  0  0  0
    2.2341    3.3416   -2.9754 N   0  0  0  0  0  0  0  0  0  0  0  0
    3.1343    3.7977   -3.0020 H   0  0  0  0  0  0  0  0  0  0  0  0
    2.0488    2.9126   -3.8709 H   0  0  0  0  0  0  0  0  0  0  0  0
   -1.2712    1.3099    1.1517 C   0  0  0  0  0  0  0  0  0  0  0  0
   -2.2039    1.9448    0.6639 O   0  0  0  0  0  0  0  0  0  0  0  0
   -0.4306    1.8354    2.0503 N   0  0  0  0  0  0  0  0  0  0  0  0
    0.3001    1.2459    2.4139 H   0  0  0  0  0  0  0  0  0  0  0  0
   -0.5192    3.2082    2.5456 C   0  0  0  0  0  0  0  0  0  0  0  0
   -1.5166    3.3903    2.9518 H   0  0  0  0  0  0  0  0  0  0  0  0
    0.2240    3.3791    3.3257 H   0  0  0  0  0  0  0  0  0  0  0  0
   -0.3477    3.9067    1.7239 H   0  0  0  0  0  0  0  0  0  0  0  0
  5  6  2  0  0  0  0
  5  7  1  0  0  0  0
  2  3  1  0  0  0  0
  2  4  1  0  0  0  0
  2  5  1  0  0  0  0
  1  2  1  0  0  0  0
 26 27  2  0  0  0  0
 26 28  1  0  0  0  0
 23 24  1  0  0  0  0
 23 25  1  0  0  0  0
 20 21  1  0  0  0  0
 20 22  1  0  0  0  0
 20 23  1  0  0  0  0
 17 18  1  0  0  0  0
 17 19  1  0  0  0  0
 17 20  1  0  0  0  0
 14 15  1  0  0  0  0
 14 16  1  0  0  0  0
 14 17  1  0  0  0  0
 11 12  1  0  0  0  0
 11 13  1  0  0  0  0
 11 14  1  0  0  0  0
  9 10  1  0  0  0  0
  9 11  1  0  0  0  0
  9 26  1  0  0  0  0
  7  8  1  0  0  0  0
  7  9  1  0  0  0  0
 30 31  1  0  0  0  0
 30 32  1  0  0  0  0
 30 33  1  0  0  0  0
 28 29  1  0  0  0  0
 28 30  1  0  0  0  0
M  END
$$$$
default_name
  -OEChem-02102213163D

 33 32  0     1  0  0  0  0  0999 V2000
   -3.8420   -3.6918    1.5562 H   0  0  0  0  0  0  0  0  0  0  0  0
   -3.8430   -2.7008    1.1032 C   0  0  0  0  0  0  0  0  0  0  0  0
   -4.5510   -2.0608    1.6242 H   0  0  0  0  0  0  0  0  0  0  0  0
   -4.1140   -2.7798    0.0522 H   0  0  0  0  0  0  0  0  0  0  0  0
   -2.4570   -2.1098    1.2172 C   0  0  0  0  0  0  0  0  0  0  0  0
   -1.5600   -2.7438    1.7572 O   0  0  0  0  0  0  0  0  0  0  0  0
   -2.2870   -0.8898    0.7102 N   0  0  0  0  0  0  0  0  0  0  0  0
   -3.0820   -0.4218    0.2992 H   0  0  0  0  0  0  0  0  0  0  0  0
   -1.0240   -0.1468    0.7262 C   0  0  1  0  0  0  0  0  0  0  0  0
   -0.3583   -0.6100    1.4558 H   0  0  0  0  0  0  0  0  0  0  0  0
   -0.3739   -0.2459   -0.6675 C   0  0  0  0  0  0  0  0  0  0  0  0
   -0.1942   -1.2992   -0.8925 H   0  0  0  0  0  0  0  0  0  0  0  0
   -1.0634    0.1491   -1.4149 H   0  0  0  0  0  0  0  0  0  0  0  0
    0.9651    0.5013   -0.7685 C   0  0  0  0  0  0  0  0  0  0  0  0
    1.3304    0.7346    0.2320 H   0  0  0  0  0  0  0  0  0  0  0  0
    1.6933   -0.1341   -1.2758 H   0  0  0  0  0  0  0  0  0  0  0  0
    0.8045    1.8088   -1.5523 C   0  0  0  0  0  0  0  0  0  0  0  0
    0.4318    1.5923   -2.5539 H   0  0  0  0  0  0  0  0  0  0  0  0
    0.0956    2.4571   -1.0365 H   0  0  0  0  0  0  0  0  0  0  0  0
    2.1530    2.5182   -1.6590 C   0  0  0  0  0  0  0  0  0  0  0  0
    2.5184    2.7520   -0.6603 H   0  0  0  0  0  0  0  0  0  0  0  0
    2.8671    1.8652   -2.1580 H   0  0  0  0  0  0  0  0  0  0  0  0
    2.0396    3.7645   -2.4252 N   0  0  0  0  0  0  0  0  0  0  0  0
    2.9434    4.2124   -2.4636 H   0  0  0  0  0  0  0  0  0  0  0  0
    1.7313    3.5501   -3.3629 H   0  0  0  0  0  0  0  0  0  0  0  0
   -1.2712    1.3099    1.1517 C   0  0  0  0  0  0  0  0  0  0  0  0
   -2.2039    1.9448    0.6639 O   0  0  0  0  0  0  0  0  0  0  0  0
   -0.4306    1.8354    2.0503 N   0  0  0  0  0  0  0  0  0  0  0  0
    0.3001    1.2459    2.4139 H   0  0  0  0  0  0  0  0  0  0  0  0
   -0.5192    3.2082    2.5456 C   0  0  0  0  0  0  0  0  0  0  0  0
   -1.5166    3.3903    2.9518 H   0  0  0  0  0  0  0  0  0  0  0  0
    0.2240    3.3791    3.3257 H   0  0  0  0  0  0  0  0  0  0  0  0
   -0.3477    3.9067    1.7239 H   0  0  0  0  0  0  0  0  0  0  0  0
  5  6  2  0  0  0  0
  5  7  1  0  0  0  0
  2  3  1  0  0  0  0
  2  4  1  0  0  0  0
  2  5  1  0  0  0  0
  1  2  1  0  0  0  0
 26 27  2  0  0  0  0
 26 28  1  0  0  0  0
 23 24  1  0  0  0  0
 23 25  1  0  0  0  0
 20 21  1  0  0  0  0
 20 22  1  0  0  0  0
 20 23  1  0  0  0  0
 17 18  1  0  0  0  0
 17 19  1  0  0  0  0
 17 20  1  0  0  0  0
 14 15  1  0  0  0  0
 14 16  1  0  0  0  0
 14 17  1  0  0  0  0
 11 12  1  0  0  0  0
 11 13  1  0  0  0  0
 11 14  1  0  0  0  0
  9 10  1  0  0  0  0
  9 11  1  0  0  0  0
  9 26  1  0  0  0  0
  7  8  1  0  0  0  0
  7  9  1  0  0  0  0
 30 31  1  0  0  0  0
 30 32  1  0  0  0  0
 30 33  1  0  0  0  0
 28 29  1  0  0  0  0
 28 30  1  0  0  0  0
M  END
$$$$
default_name
  -OEChem-02102213163D

 33 32  0     1  0  0  0  0  0999 V2000
   -3.8420   -3.6918    1.5562 H   0  0  0  0  0  0  0  0  0  0  0  0
   -3.8430   -2.7008    1.1032 C   0  0  0  0  0  0  0  0  0  0  0  0
   -4.5510   -2.0608    1.6242 H   0  0  0  0  0  0  0  0  0  0  0  0
   -4.1140   -2.7798    0.0522 H   0  0  0  0  0  0  0  0  0  0  0  0
   -2.4570   -2.1098    1.2172 C   0  0  0  0  0  0  0  0  0  0  0  0
   -1.5600   -2.7438    1.7572 O   0  0  0  0  0  0  0  0  0  0  0  0
   -2.2870   -0.8898    0.7102 N   0  0  0  0  0  0  0  0  0  0  0  0
   -3.0820   -0.4218    0.2992 H   0  0  0  0  0  0  0  0  0  0  0  0
   -1.0240   -0.1468    0.7262 C   0  0  1  0  0  0  0  0  0  0  0  0
   -0.3583   -0.6100    1.4558 H   0  0  0  0  0  0  0  0  0  0  0  0
   -0.3739   -0.2459   -0.6675 C   0  0  0  0  0  0  0  0  0  0  0  0
   -0.1942   -1.2992   -0.8925 H   0  0  0  0  0  0  0  0  0  0  0  0
   -1.0634    0.1491   -1.4149 H   0  0  0  0  0  0  0  0  0  0  0  0
    0.9651    0.5013   -0.7685 C   0  0  0  0  0  0  0  0  0  0  0  0
    1.4587    0.5008    0.2037 H   0  0  0  0  0  0  0  0  0  0  0  0
    1.6045   -0.0045   -1.4943 H   0  0  0  0  0  0  0  0  0  0  0  0
    0.7498    1.9528   -1.2117 C   0  0  0  0  0  0  0  0  0  0  0  0
    0.2493    1.9699   -2.1803 H   0  0  0  0  0  0  0  0  0  0  0  0
    0.1310    2.4692   -0.4773 H   0  0  0  0  0  0  0  0  0  0  0  0
    2.0963    2.6645   -1.3279 C   0  0  0  0  0  0  0  0  0  0  0  0
    2.5899    2.6650   -0.3574 H   0  0  0  0  0  0  0  0  0  0  0  0
    2.7223    2.1397   -2.0478 H   0  0  0  0  0  0  0  0  0  0  0  0
    1.9282    4.0523   -1.7739 N   0  0  0  0  0  0  0  0  0  0  0  0
    2.8339    4.4949   -1.8260 H   0  0  0  0  0  0  0  0  0  0  0  0
    1.4995    4.0567   -2.6886 H   0  0  0  0  0  0  0  0  0  0  0  0
   -1.2712    1.3099    1.1517 C   0  0  0  0  0  0  0  0  0  0  0  0
   -2.2039    1.9448    0.6639 O   0  0  0  0  0  0  0  0  0  0  0  0
   -0.4306    1.8354    2.0503 N   0  0  0  0  0  0  0  0  0  0  0  0
    0.3001    1.2459    2.4139 H   0  0  0  0  0  0  0  0  0  0  0  0
   -0.5192    3.2082    2.5456 C   0  0  0  0  0  0  0  0  0  0  0  0
   -1.5166    3.3903    2.9518 H   0  0  0  0  0  0  0  0  0  0  0  0
    0.2240    3.3791    3.3257 H   0  0  0  0  0  0  0  0  0  0  0  0
   -0.3477    3.9067    1.7239 H   0  0  0  0  0  0  0  0  0  0  0  0
  5  6  2  0  0  0  0
  5  7  1  0  0  0  0
  2  3  1  0  0  0  0
  2  4  1  0  0  0  0
  2  5  1  0  0  0  0
  1  2  1  0  0  0  0
 26 27  2  0  0  0  0
 26 28  1  0  0  0  0
 23 24  1  0  0  0  0
 23 25  1  0  0  0  0
 20 21  1  0  0  0  0
 20 22  1  0  0  0  0
 20 23  1  0  0  0  0
 17 18  1  0  0  0  0
 17 19  1  0  0  0  0
 17 20  1  0  0  0  0
 14 15  1  0  0  0  0
 14 16  1  0  0  0  0
 14 17  1  0  0  0  0
 11 12  1  0  0  0  0
 11 13  1  0  0  0  0
 11 14  1  0  0  0  0
  9 10  1  0  0  0  0
  9 11  1  0  0  0  0
  9 26  1  0  0  0  0
  7  8  1  0  0  0  0
  7  9  1  0  0  0  0
 30 31  1  0  0  0  0
 30 32  1  0  0  0  0
 30 33  1  0  0  0  0
 28 29  1  0  0  0  0
 28 30  1  0  0  0  0
M  END
$$$$
default_name
  -OEChem-02102213163D

 33 32  0     1  0  0  0  0  0999 V2000
   -3.8420   -3.6918    1.5562 H   0  0  0  0  0  0  0  0  0  0  0  0
   -3.8430   -2.7008    1.1032 C   0  0  0  0  0  0  0  0  0  0  0  0
   -4.5510   -2.0608    1.6242 H   0  0  0  0  0  0  0  0  0  0  0  0
   -4.1140   -2.7798    0.0522 H   0  0  0  0  0  0  0  0  0  0  0  0
   -2.4570   -2.1098    1.2172 C   0  0  0  0  0  0  0  0  0  0  0  0
   -1.5600   -2.7438    1.7572 O   0  0  0  0  0  0  0  0  0  0  0  0
   -2.2870   -0.8898    0.7102 N   0  0  0  0  0  0  0  0  0  0  0  0
   -3.0820   -0.4218    0.2992 H   0  0  0  0  0  0  0  0  0  0  0  0
   -1.0240   -0.1468    0.7262 C   0  0  1  0  0  0  0  0  0  0  0  0
   -0.3583   -0.6100    1.4558 H   0  0  0  0  0  0  0  0  0  0  0  0
   -0.3739   -0.2459   -0.6675 C   0  0  0  0  0  0  0  0  0  0  0  0
   -0.1942   -1.2992   -0.8925 H   0  0  0  0  0  0  0  0  0  0  0  0
   -1.0634    0.1491   -1.4149 H   0  0  0  0  0  0  0  0  0  0  0  0
    0.9651    0.5013   -0.7685 C   0  0  0  0  0  0  0  0  0  0  0  0
    1.5751    0.2793    0.1075 H   0  0  0  0  0  0  0  0  0  0  0  0
    1.4934    0.1715   -1.6649 H   0  0  0  0  0  0  0  0  0  0  0  0
    0.7423    2.0160   -0.8434 C   0  0  0  0  0  0  0  0  0  0  0  0
    0.1264    2.2534   -1.7113 H   0  0  0  0  0  0  0  0  0  0  0  0
    0.2358    2.3542    0.0611 H   0  0  0  0  0  0  0  0  0  0  0  0
    2.0858    2.7320   -0.9680 C   0  0  0  0  0  0  0  0  0  0  0  0
    2.6956    2.5113   -0.0934 H   0  0  0  0  0  0  0  0  0  0  0  0
    2.6009    2.3825   -1.8613 H   0  0  0  0  0  0  0  0  0  0  0  0
    1.9074    4.1853   -1.0659 N   0  0  0  0  0  0  0  0  0  0  0  0
    2.8132    4.6258   -1.1327 H   0  0  0  0  0  0  0  0  0  0  0  0
    1.3691    4.3979   -1.8938 H   0  0  0  0  0  0  0  0  0  0  0  0
   -1.2712    1.3099    1.1517 C   0  0  0  0  0  0  0  0  0  0  0  0
   -2.2039    1.9448    0.6639 O   0  0  0  0  0  0  0  0  0  0  0  0
   -0.4306    1.8354    2.0503 N   0  0  0  0  0  0  0  0  0  0  0  0
    0.3001    1.2459    2.4139 H   0  0  0  0  0  0  0  0  0  0  0  0
   -0.5192    3.2082    2.5456 C   0  0  0  0  0  0  0  0  0  0  0  0
   -1.5166    3.3903    2.9518 H   0  0  0  0  0  0  0  0  0  0  0  0
    0.2240    3.3791    3.3257 H   0  0  0  0  0  0  0  0  0  0  0  0
   -0.3477    3.9067    1.7239 H   0  0  0  0  0  0  0  0  0  0  0  0
  5  6  2  0  0  0  0
  5  7  1  0  0  0  0
  2  3  1  0  0  0  0
  2  4  1  0  0  0  0
  2  5  1  0  0  0  0
  1  2  1  0  0  0  0
 26 27  2  0  0  0  0
 26 28  1  0  0  0  0
 23 24  1  0  0  0  0
 23 25  1  0  0  0  0
 20 21  1  0  0  0  0
 20 22  1  0  0  0  0
 20 23  1  0  0  0  0
 17 18  1  0  0  0  0
 17 19  1  0  0  0  0
 17 20  1  0  0  0  0
 14 15  1  0  0  0  0
 14 16  1  0  0  0  0
 14 17  1  0  0  0  0
 11 12  1  0  0  0  0
 11 13  1  0  0  0  0
 11 14  1  0  0  0  0
  9 10  1  0  0  0  0
  9 11  1  0  0  0  0
  9 26  1  0  0  0  0
  7  8  1  0  0  0  0
  7  9  1  0  0  0  0
 30 31  1  0  0  0  0
 30 32  1  0  0  0  0
 30 33  1  0  0  0  0
 28 29  1  0  0  0  0
 28 30  1  0  0  0  0
M  END
$$$$
default_name
  -OEChem-02102213163D

 33 32  0     1  0  0  0  0  0999 V2000
   -3.8420   -3.6918    1.5562 H   0  0  0  0  0  0  0  0  0  0  0  0
   -3.8430   -2.7008    1.1032 C   0  0  0  0  0  0  0  0  0  0  0  0
   -4.5510   -2.0608    1.6242 H   0  0  0  0  0  0  0  0  0  0  0  0
   -4.1140   -2.7798    0.0522 H   0  0  0  0  0  0  0  0  0  0  0  0
   -2.4570   -2.1098    1.2172 C   0  0  0  0  0  0  0  0  0  0  0  0
   -1.5600   -2.7438    1.7572 O   0  0  0  0  0  0  0  0  0  0  0  0
   -2.2870   -0.8898    0.7102 N   0  0  0  0  0  0  0  0  0  0  0  0
   -3.0820   -0.4218    0.2992 H   0  0  0  0  0  0  0  0  0  0  0  0
   -1.0240   -0.1468    0.7262 C   0  0  1  0  0  0  0  0  0  0  0  0
   -0.3583   -0.6100    1.4558 H   0  0  0  0  0  0  0  0  0  0  0  0
   -0.3739   -0.2459   -0.6675 C   0  0  0  0  0  0  0  0  0  0  0  0
   -0.1942   -1.2992   -0.8925 H   0  0  0  0  0  0  0  0  0  0  0  0
   -1.0634    0.1491   -1.4149 H   0  0  0  0  0  0  0  0  0  0  0  0
    0.9651    0.5013   -0.7685 C   0  0  0  0  0  0  0  0  0  0  0  0
    1.6717    0.0850   -0.0500 H   0  0  0  0  0  0  0  0  0  0  0  0
    1.3677    0.3818   -1.7760 H   0  0  0  0  0  0  0  0  0  0  0  0
    0.7825    1.9942   -0.4724 C   0  0  0  0  0  0  0  0  0  0  0  0
    0.0716    2.4237   -1.1789 H   0  0  0  0  0  0  0  0  0  0  0  0
    0.4029    2.1198    0.5420 H   0  0  0  0  0  0  0  0  0  0  0  0
    2.1221    2.7163   -0.6038 C   0  0  0  0  0  0  0  0  0  0  0  0
    2.8282    2.3015    0.1137 H   0  0  0  0  0  0  0  0  0  0  0  0
    2.5112    2.5770   -1.6110 H   0  0  0  0  0  0  0  0  0  0  0  0
    1.9787    4.1544   -0.3495 N   0  0  0  0  0  0  0  0  0  0  0  0
    2.8826    4.5963   -0.4308 H   0  0  0  0  0  0  0  0  0  0  0  0
    1.3489    4.5505   -1.0327 H   0  0  0  0  0  0  0  0  0  0  0  0
   -1.2712    1.3099    1.1517 C   0  0  0  0  0  0  0  0  0  0  0  0
   -2.2039    1.9448    0.6639 O   0  0  0  0  0  0  0  0  0  0  0  0
   -0.4306    1.8354    2.0503 N   0  0  0  0  0  0  0  0  0  0  0  0
    0.3001    1.2459    2.4139 H   0  0  0  0  0  0  0  0  0  0  0  0
   -0.5192    3.2082    2.5456 C   0  0  0  0  0  0  0  0  0  0  0  0
   -1.5166    3.3903    2.9518 H   0  0  0  0  0  0  0  0  0  0  0  0
    0.2240    3.3791    3.3257 H   0  0  0  0  0  0  0  0  0  0  0  0
   -0.3477    3.9067    1.7239 H   0  0  0  0  0  0  0  0  0  0  0  0
  5  6  2  0  0  0  0
  5  7  1  0  0  0  0
  2  3  1  0  0  0  0
  2  4  1  0  0  0  0
  2  5  1  0  0  0  0
  1  2  1  0  0  0  0
 26 27  2  0  0  0  0
 26 28  1  0  0  0  0
 23 24  1  0  0  0  0
 23 25  1  0  0  0  0
 20 21  1  0  0  0  0
 20 22  1  0  0  0  0
 20 23  1  0  0  0  0
 17 18  1  0  0  0  0
 17 19  1  0  0  0  0
 17 20  1  0  0  0  0
 14 15  1  0  0  0  0
 14 16  1  0  0  0  0
 14 17  1  0  0  0  0
 11 12  1  0  0  0  0
 11 13  1  0  0  0  0
 11 14  1  0  0  0  0
  9 10  1  0  0  0  0
  9 11  1  0  0  0  0
  9 26  1  0  0  0  0
  7  8  1  0  0  0  0
  7  9  1  0  0  0  0
 30 31  1  0  0  0  0
 30 32  1  0  0  0  0
 30 33  1  0  0  0  0
 28 29  1  0  0  0  0
 28 30  1  0  0  0  0
M  END
$$$$
default_name
  -OEChem-02102213163D

 33 32  0     1  0  0  0  0  0999 V2000
   -3.8420   -3.6918    1.5562 H   0  0  0  0  0  0  0  0  0  0  0  0
   -3.8430   -2.7008    1.1032 C   0  0  0  0  0  0  0  0  0  0  0  0
   -4.5510   -2.0608    1.6242 H   0  0  0  0  0  0  0  0  0  0  0  0
   -4.1140   -2.7798    0.0522 H   0  0  0  0  0  0  0  0  0  0  0  0
   -2.4570   -2.1098    1.2172 C   0  0  0  0  0  0  0  0  0  0  0  0
   -1.5600   -2.7438    1.7572 O   0  0  0  0  0  0  0  0  0  0  0  0
   -2.2870   -0.8898    0.7102 N   0  0  0  0  0  0  0  0  0  0  0  0
   -3.0820   -0.4218    0.2992 H   0  0  0  0  0  0  0  0  0  0  0  0
   -1.0240   -0.1468    0.7262 C   0  0  1  0  0  0  0  0  0  0  0  0
   -0.3583   -0.6100    1.4558 H   0  0  0  0  0  0  0  0  0  0  0  0
   -0.3739   -0.2459   -0.6675 C   0  0  0  0  0  0  0  0  0  0  0  0
   -0.1942   -1.2992   -0.8925 H   0  0  0  0  0  0  0  0  0  0  0  0
   -1.0634    0.1491   -1.4149 H   0  0  0  0  0  0  0  0  0  0  0  0
    0.9651    0.5013   -0.7685 C   0  0  0  0  0  0  0  0  0  0  0  0
    1.7418   -0.0689   -0.2581 H   0  0  0  0  0  0  0  0  0  0  0  0
    1.2358    0.6122   -1.8201 H   0  0  0  0  0  0  0  0  0  0  0  0
    0.8677    1.8887   -0.1241 C   0  0  0  0  0  0  0  0  0  0  0  0
    0.0885    2.4689   -0.6193 H   0  0  0  0  0  0  0  0  0  0  0  0
    0.6207    1.7822    0.9327 H   0  0  0  0  0  0  0  0  0  0  0  0
    2.2026    2.6184   -0.2601 C   0  0  0  0  0  0  0  0  0  0  0  0
    2.9789    2.0500    0.2497 H   0  0  0  0  0  0  0  0  0  0  0  0
    2.4595    2.7099   -1.3142 H   0  0  0  0  0  0  0  0  0  0  0  0
    2.1372    3.9618    0.3267 N   0  0  0  0  0  0  0  0  0  0  0  0
    3.0375    4.4083    0.2317 H   0  0  0  0  0  0  0  0  0  0  0  0
    1.4404    4.5040   -0.1640 H   0  0  0  0  0  0  0  0  0  0  0  0
   -1.2712    1.3099    1.1517 C   0  0  0  0  0  0  0  0  0  0  0  0
   -2.2039    1.9448    0.6639 O   0  0  0  0  0  0  0  0  0  0  0  0
   -0.4306    1.8354    2.0503 N   0  0  0  0  0  0  0  0  0  0  0  0
    0.3001    1.2459    2.4139 H   0  0  0  0  0  0  0  0  0  0  0  0
   -0.5192    3.2082    2.5456 C   0  0  0  0  0  0  0  0  0  0  0  0
   -1.5166    3.3903    2.9518 H   0  0  0  0  0  0  0  0  0  0  0  0
    0.2240    3.3791    3.3257 H   0  0  0  0  0  0  0  0  0  0  0  0
   -0.3477    3.9067    1.7239 H   0  0  0  0  0  0  0  0  0  0  0  0
  5  6  2  0  0  0  0
  5  7  1  0  0  0  0
  2  3  1  0  0  0  0
  2  4  1  0  0  0  0
  2  5  1  0  0  0  0
  1  2  1  0  0  0  0
 26 27  2  0  0  0  0
 26 28  1  0  0  0  0
 23 24  1  0  0  0  0
 23 25  1  0  0  0  0
 20 21  1  0  0  0  0
 20 22  1  0  0  0  0
 20 23  1  0  0  0  0
 17 18  1  0  0  0  0
 17 19  1  0  0  0  0
 17 20  1  0  0  0  0
 14 15  1  0  0  0  0
 14 16  1  0  0  0  0
 14 17  1  0  0  0  0
 11 12  1  0  0  0  0
 11 13  1  0  0  0  0
 11 14  1  0  0  0  0
  9 10  1  0  0  0  0
  9 11  1  0  0  0  0
  9 26  1  0  0  0  0
  7  8  1  0  0  0  0
  7  9  1  0  0  0  0
 30 31  1  0  0  0  0
 30 32  1  0  0  0  0
 30 33  1  0  0  0  0
 28 29  1  0  0  0  0
 28 30  1  0  0  0  0
M  END
$$$$
default_name
  -OEChem-02102213163D

 33 32  0     1  0  0  0  0  0999 V2000
   -3.8420   -3.6918    1.5562 H   0  0  0  0  0  0  0  0  0  0  0  0
   -3.8430   -2.7008    1.1032 C   0  0  0  0  0  0  0  0  0  0  0  0
   -4.5510   -2.0608    1.6242 H   0  0  0  0  0  0  0  0  0  0  0  0
   -4.1140   -2.7798    0.0522 H   0  0  0  0  0  0  0  0  0  0  0  0
   -2.4570   -2.1098    1.2172 C   0  0  0  0  0  0  0  0  0  0  0  0
   -1.5600   -2.7438    1.7572 O   0  0  0  0  0  0  0  0  0  0  0  0
   -2.2870   -0.8898    0.7102 N   0  0  0  0  0  0  0  0  0  0  0  0
   -3.0820   -0.4218    0.2992 H   0  0  0  0  0  0  0  0  0  0  0  0
   -1.0240   -0.1468    0.7262 C   0  0  1  0  0  0  0  0  0  0  0  0
   -0.3583   -0.6100    1.4558 H   0  0  0  0  0  0  0  0  0  0  0  0
   -0.3739   -0.2459   -0.6675 C   0  0  0  0  0  0  0  0  0  0  0  0
   -0.1942   -1.2992   -0.8925 H   0  0  0  0  0  0  0  0  0  0  0  0
   -1.0634    0.1491   -1.4149 H   0  0  0  0  0  0  0  0  0  0  0  0
    0.9651    0.5013   -0.7685 C   0  0  0  0  0  0  0  0  0  0  0  0
    1.7807   -0.1717   -0.5026 H   0  0  0  0  0  0  0  0  0  0  0  0
    1.1068    0.8469   -1.7941 H   0  0  0  0  0  0  0  0  0  0  0  0
    0.9919    1.7068    0.1779 C   0  0  0  0  0  0  0  0  0  0  0  0
    0.1761    2.3862   -0.0708 H   0  0  0  0  0  0  0  0  0  0  0  0
    0.8746    1.3642    1.2064 H   0  0  0  0  0  0  0  0  0  0  0  0
    2.3221    2.4449    0.0396 C   0  0  0  0  0  0  0  0  0  0  0  0
    3.1372    1.7737    0.3054 H   0  0  0  0  0  0  0  0  0  0  0  0
    2.4491    2.7722   -0.9910 H   0  0  0  0  0  0  0  0  0  0  0  0
    2.3721    3.6205    0.9164 N   0  0  0  0  0  0  0  0  0  0  0  0
    3.2673    4.0746    0.8098 H   0  0  0  0  0  0  0  0  0  0  0  0
    1.6373    4.2617    0.6531 H   0  0  0  0  0  0  0  0  0  0  0  0
   -1.2712    1.3099    1.1517 C   0  0  0  0  0  0  0  0  0  0  0  0
   -2.2039    1.9448    0.6639 O   0  0  0  0  0  0  0  0  0  0  0  0
   -0.4306    1.8354    2.0503 N   0  0  0  0  0  0  0  0  0  0  0  0
    0.3001    1.2459    2.4139 H   0  0  0  0  0  0  0  0  0  0  0  0
   -0.5192    3.2082    2.5456 C   0  0  0  0  0  0  0  0  0  0  0  0
   -1.5166    3.3903    2.9518 H   0  0  0  0  0  0  0  0  0  0  0  0
    0.2240    3.3791    3.3257 H   0  0  0  0  0  0  0  0  0  0  0  0
   -0.3477    3.9067    1.7239 H   0  0  0  0  0  0  0  0  0  0  0  0
  5  6  2  0  0  0  0
  5  7  1  0  0  0  0
  2  3  1  0  0  0  0
  2  4  1  0  0  0  0
  2  5  1  0  0  0  0
  1  2  1  0  0  0  0
 26 27  2  0  0  0  0
 26 28  1  0  0  0  0
 23 24  1  0  0  0  0
 23 25  1  0  0  0  0
 20 21  1  0  0  0  0
 20 22  1  0  0  0  0
 20 23  1  0  0  0  0
 17 18  1  0  0  0  0
 17 19  1  0  0  0  0
 17 20  1  0  0  0  0
 14 15  1  0  0  0  0
 14 16  1  0  0  0  0
 14 17  1  0  0  0  0
 11 12  1  0  0  0  0
 11 13  1  0  0  0  0
 11 14  1  0  0  0  0
  9 10  1  0  0  0  0
  9 11  1  0  0  0  0
  9 26  1  0  0  0  0
  7  8  1  0  0  0  0
  7  9  1  0  0  0  0
 30 31  1  0  0  0  0
 30 32  1  0  0  0  0
 30 33  1  0  0  0  0
 28 29  1  0  0  0  0
 28 30  1  0  0  0  0
M  END
$$$$
default_name
  -OEChem-02102213163D

 33 32  0     1  0  0  0  0  0999 V2000
   -3.8420   -3.6918    1.5562 H   0  0  0  0  0  0  0  0  0  0  0  0
   -3.8430   -2.7008    1.1032 C   0  0  0  0  0  0  0  0  0  0  0  0
   -4.5510   -2.0608    1.6242 H   0  0  0  0  0  0  0  0  0  0  0  0
   -4.1140   -2.7798    0.0522 H   0  0  0  0  0  0  0  0  0  0  0  0
   -2.4570   -2.1098    1.2172 C   0  0  0  0  0  0  0  0  0  0  0  0
   -1.5600   -2.7438    1.7572 O   0  0  0  0  0  0  0  0  0  0  0  0
   -2.2870   -0.8898    0.7102 N   0  0  0  0  0  0  0  0  0  0  0  0
   -3.0820   -0.4218    0.2992 H   0  0  0  0  0  0  0  0  0  0  0  0
   -1.0240   -0.1468    0.7262 C   0  0  1  0  0  0  0  0  0  0  0  0
   -0.3583   -0.6100    1.4558 H   0  0  0  0  0  0  0  0  0  0  0  0
   -0.3739   -0.2459   -0.6675 C   0  0  0  0  0  0  0  0  0  0  0  0
   -0.1942   -1.2992   -0.8925 H   0  0  0  0  0  0  0  0  0  0  0  0
   -1.0634    0.1491   -1.4149 H   0  0  0  0  0  0  0  0  0  0  0  0
    0.9651    0.5013   -0.7685 C   0  0  0  0  0  0  0  0  0  0  0  0
    1.7858   -0.2165   -0.7669 H   0  0  0  0  0  0  0  0  0  0  0  0
    0.9894    1.0700   -1.6999 H   0  0  0  0  0  0  0  0  0  0  0  0
    1.1469    1.4609    0.4129 C   0  0  0  0  0  0  0  0  0  0  0  0
    0.3283    2.1811    0.4294 H   0  0  0  0  0  0  0  0  0  0  0  0
    1.1472    0.8945    1.3447 H   0  0  0  0  0  0  0  0  0  0  0  0
    2.4722    2.2077    0.2750 C   0  0  0  0  0  0  0  0  0  0  0  0
    3.2925    1.4917    0.2770 H   0  0  0  0  0  0  0  0  0  0  0  0
    2.4807    2.7597   -0.6634 H   0  0  0  0  0  0  0  0  0  0  0  0
    2.6674    3.1539    1.3795 N   0  0  0  0  0  0  0  0  0  0  0  0
    3.5564    3.6180    1.2640 H   0  0  0  0  0  0  0  0  0  0  0  0
    1.9262    3.8399    1.3630 H   0  0  0  0  0  0  0  0  0  0  0  0
   -1.2712    1.3099    1.1517 C   0  0  0  0  0  0  0  0  0  0  0  0
   -2.2039    1.9448    0.6639 O   0  0  0  0  0  0  0  0  0  0  0  0
   -0.4306    1.8354    2.0503 N   0  0  0  0  0  0  0  0  0  0  0  0
    0.3001    1.2459    2.4139 H   0  0  0  0  0  0  0  0  0  0  0  0
   -0.5192    3.2082    2.5456 C   0  0  0  0  0  0  0  0  0  0  0  0
   -1.5166    3.3903    2.9518 H   0  0  0  0  0  0  0  0  0  0  0  0
    0.2240    3.3791    3.3257 H   0  0  0  0  0  0  0  0  0  0  0  0
   -0.3477    3.9067    1.7239 H   0  0  0  0  0  0  0  0  0  0  0  0
  5  6  2  0  0  0  0
  5  7  1  0  0  0  0
  2  3  1  0  0  0  0
  2  4  1  0  0  0  0
  2  5  1  0  0  0  0
  1  2  1  0  0  0  0
 26 27  2  0  0  0  0
 26 28  1  0  0  0  0
 23 24  1  0  0  0  0
 23 25  1  0  0  0  0
 20 21  1  0  0  0  0
 20 22  1  0  0  0  0
 20 23  1  0  0  0  0
 17 18  1  0  0  0  0
 17 19  1  0  0  0  0
 17 20  1  0  0  0  0
 14 15  1  0  0  0  0
 14 16  1  0  0  0  0
 14 17  1  0  0  0  0
 11 12  1  0  0  0  0
 11 13  1  0  0  0  0
 11 14  1  0  0  0  0
  9 10  1  0  0  0  0
  9 11  1  0  0  0  0
  9 26  1  0  0  0  0
  7  8  1  0  0  0  0
  7  9  1  0  0  0  0
 30 31  1  0  0  0  0
 30 32  1  0  0  0  0
 30 33  1  0  0  0  0
 28 29  1  0  0  0  0
 28 30  1  0  0  0  0
M  END
$$$$
default_name
  -OEChem-02102213163D

 33 32  0     1  0  0  0  0  0999 V2000
   -3.8420   -3.6918    1.5562 H   0  0  0  0  0  0  0  0  0  0  0  0
   -3.8430   -2.7008    1.1032 C   0  0  0  0  0  0  0  0  0  0  0  0
   -4.5510   -2.0608    1.6242 H   0  0  0  0  0  0  0  0  0  0  0  0
   -4.1140   -2.7798    0.0522 H   0  0  0  0  0  0  0  0  0  0  0  0
   -2.4570   -2.1098    1.2172 C   0  0  0  0  0  0  0  0  0  0  0  0
   -1.5600   -2.7438    1.7572 O   0  0  0  0  0  0  0  0  0  0  0  0
   -2.2870   -0.8898    0.7102 N   0  0  0  0  0  0  0  0  0  0  0  0
   -3.0820   -0.4218    0.2992 H   0  0  0  0  0  0  0  0  0  0  0  0
   -1.0240   -0.1468    0.7262 C   0  0  1  0  0  0  0  0  0  0  0  0
   -0.3583   -0.6100    1.4558 H   0  0  0  0  0  0  0  0  0  0  0  0
   -0.3739   -0.2459   -0.6675 C   0  0  0  0  0  0  0  0  0  0  0  0
   -0.1942   -1.2992   -0.8925 H   0  0  0  0  0  0  0  0  0  0  0  0
   -1.0634    0.1491   -1.4149 H   0  0  0  0  0  0  0  0  0  0  0  0
    0.9651    0.5013   -0.7685 C   0  0  0  0  0  0  0  0  0  0  0  0
    1.7567   -0.2003   -1.0330 H   0  0  0  0  0  0  0  0  0  0  0  0
    0.8917    1.2662   -1.5437 H   0  0  0  0  0  0  0  0  0  0  0  0
    1.3219    1.1677    0.5650 C   0  0  0  0  0  0  0  0  0  0  0  0
    0.5348    1.8675    0.8472 H   0  0  0  0  0  0  0  0  0  0  0  0
    1.4199    0.4049    1.3379 H   0  0  0  0  0  0  0  0  0  0  0  0
    2.6428    1.9229    0.4300 C   0  0  0  0  0  0  0  0  0  0  0  0
    3.4340    1.2230    0.1663 H   0  0  0  0  0  0  0  0  0  0  0  0
    2.5524    2.6732   -0.3538 H   0  0  0  0  0  0  0  0  0  0  0  0
    3.0030    2.5937    1.6844 N   0  0  0  0  0  0  0  0  0  0  0  0
    3.8850    3.0697    1.5634 H   0  0  0  0  0  0  0  0  0  0  0  0
    2.2874    3.2676    1.9171 H   0  0  0  0  0  0  0  0  0  0  0  0
   -1.2712    1.3099    1.1517 C   0  0  0  0  0  0  0  0  0  0  0  0
   -2.2039    1.9448    0.6639 O   0  0  0  0  0  0  0  0  0  0  0  0
   -0.4306    1.8354    2.0503 N   0  0  0  0  0  0  0  0  0  0  0  0
    0.3001    1.2459    2.4139 H   0  0  0  0  0  0  0  0  0  0  0  0
   -0.5192    3.2082    2.5456 C   0  0  0  0  0  0  0  0  0  0  0  0
   -1.5166    3.3903    2.9518 H   0  0  0  0  0  0  0  0  0  0  0  0
    0.2240    3.3791    3.3257 H   0  0  0  0  0  0  0  0  0  0  0  0
   -0.3477    3.9067    1.7239 H   0  0  0  0  0  0  0  0  0  0  0  0
  5  6  2  0  0  0  0
  5  7  1  0  0  0  0
  2  3  1  0  0  0  0
  2  4  1  0  0  0  0
  2  5  1  0  0  0  0
  1  2  1  0  0  0  0
 26 27  2  0  0  0  0
 26 28  1  0  0  0  0
 23 24  1  0  0  0  0
 23 25  1  0  0  0  0
 20 21  1  0  0  0  0
 20 22  1  0  0  0  0
 20 23  1  0  0  0  0
 17 18  1  0  0  0  0
 17 19  1  0  0  0  0
 17 20  1  0  0  0  0
 14 15  1  0  0  0  0
 14 16  1  0  0  0  0
 14 17  1  0  0  0  0
 11 12  1  0  0  0  0
 11 13  1  0  0  0  0
 11 14  1  0  0  0  0
  9 10  1  0  0  0  0
  9 11  1  0  0  0  0
  9 26  1  0  0  0  0
  7  8  1  0  0  0  0
  7  9  1  0  0  0  0
 30 31  1  0  0  0  0
 30 32  1  0  0  0  0
 30 33  1  0  0  0  0
 28 29  1  0  0  0  0
 28 30  1  0  0  0  0
M  END
$$$$
default_name
  -OEChem-02102213163D

 33 32  0     1  0  0  0  0  0999 V2000
   -3.8420   -3.6918    1.5562 H   0  0  0  0  0  0  0  0  0  0  0  0
   -3.8430   -2.7008    1.1032 C   0  0  0  0  0  0  0  0  0  0  0  0
   -4.5510   -2.0608    1.6242 H   0  0  0  0  0  0  0  0  0  0  0  0
   -4.1140   -2.7798    0.0522 H   0  0  0  0  0  0  0  0  0  0  0  0
   -2.4570   -2.1098    1.2172 C   0  0  0  0  0  0  0  0  0  0  0  0
   -1.5600   -2.7438    1.7572 O   0  0  0  0  0  0  0  0  0  0  0  0
   -2.2870   -0.8898    0.7102 N   0  0  0  0  0  0  0  0  0  0  0  0
   -3.0820   -0.4218    0.2992 H   0  0  0  0  0  0  0  0  0  0  0  0
   -1.0240   -0.1468    0.7262 C   0  0  1  0  0  0  0  0  0  0  0  0
   -0.3583   -0.6100    1.4558 H   0  0  0  0  0  0  0  0  0  0  0  0
   -0.3739   -0.2459   -0.6675 C   0  0  0  0  0  0  0  0  0  0  0  0
   -0.1942   -1.2992   -0.8925 H   0  0  0  0  0  0  0  0  0  0  0  0
   -1.0634    0.1491   -1.4149 H   0  0  0  0  0  0  0  0  0  0  0  0
    0.9651    0.5013   -0.7685 C   0  0  0  0  0  0  0  0  0  0  0  0
    1.6954   -0.1242   -1.2826 H   0  0  0  0  0  0  0  0  0  0  0  0
    0.8203    1.4221   -1.3364 H   0  0  0  0  0  0  0  0  0  0  0  0
    1.5052    0.8473    0.6237 C   0  0  0  0  0  0  0  0  0  0  0  0
    0.7814    1.4670    1.1540 H   0  0  0  0  0  0  0  0  0  0  0  0
    1.6741   -0.0711    1.1867 H   0  0  0  0  0  0  0  0  0  0  0  0
    2.8222    1.6100    0.4940 C   0  0  0  0  0  0  0  0  0  0  0  0
    3.5523    0.9860   -0.0189 H   0  0  0  0  0  0  0  0  0  0  0  0
    2.6590    2.5186   -0.0832 H   0  0  0  0  0  0  0  0  0  0  0  0
    3.3560    1.9782    1.8104 N   0  0  0  0  0  0  0  0  0  0  0  0
    4.2307    2.4669    1.6876 H   0  0  0  0  0  0  0  0  0  0  0  0
    2.6963    2.5836    2.2779 H   0  0  0  0  0  0  0  0  0  0  0  0
   -1.2712    1.3099    1.1517 C   0  0  0  0  0  0  0  0  0  0  0  0
   -2.2039    1.9448    0.6639 O   0  0  0  0  0  0  0  0  0  0  0  0
   -0.4306    1.8354    2.0503 N   0  0  0  0  0  0  0  0  0  0  0  0
    0.3001    1.2459    2.4139 H   0  0  0  0  0  0  0  0  0  0  0  0
   -0.5192    3.2082    2.5456 C   0  0  0  0  0  0  0  0  0  0  0  0
   -1.5166    3.3903    2.9518 H   0  0  0  0  0  0  0  0  0  0  0  0
    0.2240    3.3791    3.3257 H   0  0  0  0  0  0  0  0  0  0  0  0
   -0.3477    3.9067    1.7239 H   0  0  0  0  0  0  0  0  0  0  0  0
  5  6  2  0  0  0  0
  5  7  1  0  0  0  0
  2  3  1  0  0  0  0
  2  4  1  0  0  0  0
  2  5  1  0  0  0  0
  1  2  1  0  0  0  0
 26 27  2  0  0  0  0
 26 28  1  0  0  0  0
 23 24  1  0  0  0  0
 23 25  1  0  0  0  0
 20 21  1  0  0  0  0
 20 22  1  0  0  0  0
 20 23  1  0  0  0  0
 17 18  1  0  0  0  0
 17 19  1  0  0  0  0
 17 20  1  0  0  0  0
 14 15  1  0  0  0  0
 14 16  1  0  0  0  0
 14 17  1  0  0  0  0
 11 12  1  0  0  0  0
 11 13  1  0  0  0  0
 11 14  1  0  0  0  0
  9 10  1  0  0  0  0
  9 11  1  0  0  0  0
  9 26  1  0  0  0  0
  7  8  1  0  0  0  0
  7  9  1  0  0  0  0
 30 31  1  0  0  0  0
 30 32  1  0  0  0  0
 30 33  1  0  0  0  0
 28 29  1  0  0  0  0
 28 30  1  0  0  0  0
M  END
$$$$
default_name
  -OEChem-02102213163D

 33 32  0     1  0  0  0  0  0999 V2000
   -3.8420   -3.6918    1.5562 H   0  0  0  0  0  0  0  0  0  0  0  0
   -3.8430   -2.7008    1.1032 C   0  0  0  0  0  0  0  0  0  0  0  0
   -4.5510   -2.0608    1.6242 H   0  0  0  0  0  0  0  0  0  0  0  0
   -4.1140   -2.7798    0.0522 H   0  0  0  0  0  0  0  0  0  0  0  0
   -2.4570   -2.1098    1.2172 C   0  0  0  0  0  0  0  0  0  0  0  0
   -1.5600   -2.7438    1.7572 O   0  0  0  0  0  0  0  0  0  0  0  0
   -2.2870   -0.8898    0.7102 N   0  0  0  0  0  0  0  0  0  0  0  0
   -3.0820   -0.4218    0.2992 H   0  0  0  0  0  0  0  0  0  0  0  0
   -1.0240   -0.1468    0.7262 C   0  0  1  0  0  0  0  0  0  0  0  0
   -0.3583   -0.6100    1.4558 H   0  0  0  0  0  0  0  0  0  0  0  0
   -0.3739   -0.2459   -0.6675 C   0  0  0  0  0  0  0  0  0  0  0  0
   -0.1942   -1.2992   -0.8925 H   0  0  0  0  0  0  0  0  0  0  0  0
   -1.0634    0.1491   -1.4149 H   0  0  0  0  0  0  0  0  0  0  0  0
    0.9651    0.5013   -0.7685 C   0  0  0  0  0  0  0  0  0  0  0  0
    1.6060    0.0067   -1.4989 H   0  0  0  0  0  0  0  0  0  0  0  0
    0.7801    1.5272   -1.0919 H   0  0  0  0  0  0  0  0  0  0  0  0
    1.6841    0.5214    0.5851 C   0  0  0  0  0  0  0  0  0  0  0  0
    1.0515    1.0066    1.3290 H   0  0  0  0  0  0  0  0  0  0  0  0
    1.8925   -0.5011    0.9013 H   0  0  0  0  0  0  0  0  0  0  0  0
    2.9983    1.2903    0.4627 C   0  0  0  0  0  0  0  0  0  0  0  0
    3.6392    0.7968   -0.2662 H   0  0  0  0  0  0  0  0  0  0  0  0
    2.7935    2.3065    0.1298 H   0  0  0  0  0  0  0  0  0  0  0  0
    3.7023    1.3492    1.7488 N   0  0  0  0  0  0  0  0  0  0  0  0
    4.5700    1.8507    1.6281 H   0  0  0  0  0  0  0  0  0  0  0  0
    3.1250    1.8346    2.4206 H   0  0  0  0  0  0  0  0  0  0  0  0
   -1.2712    1.3099    1.1517 C   0  0  0  0  0  0  0  0  0  0  0  0
   -2.2039    1.9448    0.6639 O   0  0  0  0  0  0  0  0  0  0  0  0
   -0.4306    1.8354    2.0503 N   0  0  0  0  0  0  0  0  0  0  0  0
    0.3001    1.2459    2.4139 H   0  0  0  0  0  0  0  0  0  0  0  0
   -0.5192    3.2082    2.5456 C   0  0  0  0  0  0  0  0  0  0  0  0
   -1.5166    3.3903    2.9518 H   0  0  0  0  0  0  0  0  0  0  0  0
    0.2240    3.3791    3.3257 H   0  0  0  0  0  0  0  0  0  0  0  0
   -0.3477    3.9067    1.7239 H   0  0  0  0  0  0  0  0  0  0  0  0
  5  6  2  0  0  0  0
  5  7  1  0  0  0  0
  2  3  1  0  0  0  0
  2  4  1  0  0  0  0
  2  5  1  0  0  0  0
  1  2  1  0  0  0  0
 26 27  2  0  0  0  0
 26 28  1  0  0  0  0
 23 24  1  0  0  0  0
 23 25  1  0  0  0  0
 20 21  1  0  0  0  0
 20 22  1  0  0  0  0
 20 23  1  0  0  0  0
 17 18  1  0  0  0  0
 17 19  1  0  0  0  0
 17 20  1  0  0  0  0
 14 15  1  0  0  0  0
 14 16  1  0  0  0  0
 14 17  1  0  0  0  0
 11 12  1  0  0  0  0
 11 13  1  0  0  0  0
 11 14  1  0  0  0  0
  9 10  1  0  0  0  0
  9 11  1  0  0  0  0
  9 26  1  0  0  0  0
  7  8  1  0  0  0  0
  7  9  1  0  0  0  0
 30 31  1  0  0  0  0
 30 32  1  0  0  0  0
 30 33  1  0  0  0  0
 28 29  1  0  0  0  0
 28 30  1  0  0  0  0
M  END
$$$$
default_name
  -OEChem-02102213163D

 33 32  0     1  0  0  0  0  0999 V2000
   -3.8420   -3.6918    1.5562 H   0  0  0  0  0  0  0  0  0  0  0  0
   -3.8430   -2.7008    1.1032 C   0  0  0  0  0  0  0  0  0  0  0  0
   -4.5510   -2.0608    1.6242 H   0  0  0  0  0  0  0  0  0  0  0  0
   -4.1140   -2.7798    0.0522 H   0  0  0  0  0  0  0  0  0  0  0  0
   -2.4570   -2.1098    1.2172 C   0  0  0  0  0  0  0  0  0  0  0  0
   -1.5600   -2.7438    1.7572 O   0  0  0  0  0  0  0  0  0  0  0  0
   -2.2870   -0.8898    0.7102 N   0  0  0  0  0  0  0  0  0  0  0  0
   -3.0820   -0.4218    0.2992 H   0  0  0  0  0  0  0  0  0  0  0  0
   -1.0240   -0.1468    0.7262 C   0  0  1  0  0  0  0  0  0  0  0  0
   -0.3583   -0.6100    1.4558 H   0  0  0  0  0  0  0  0  0  0  0  0
   -0.3739   -0.2459   -0.6675 C   0  0  0  0  0  0  0  0  0  0  0  0
   -0.1942   -1.2992   -0.8925 H   0  0  0  0  0  0  0  0  0  0  0  0
   -1.0634    0.1491   -1.4149 H   0  0  0  0  0  0  0  0  0  0  0  0
    0.9651    0.5013   -0.7685 C   0  0  0  0  0  0  0  0  0  0  0  0
    1.4947    0.1834   -1.6670 H   0  0  0  0  0  0  0  0  0  0  0  0
    0.7738    1.5743   -0.8271 H   0  0  0  0  0  0  0  0  0  0  0  0
    1.8466    0.2123    0.4518 C   0  0  0  0  0  0  0  0  0  0  0  0
    1.3265    0.5180    1.3602 H   0  0  0  0  0  0  0  0  0  0  0  0
    2.0602   -0.8558    0.5012 H   0  0  0  0  0  0  0  0  0  0  0  0
    3.1589    0.9855    0.3381 C   0  0  0  0  0  0  0  0  0  0  0  0
    3.6888    0.6684   -0.5587 H   0  0  0  0  0  0  0  0  0  0  0  0
    2.9466    2.0512    0.2708 H   0  0  0  0  0  0  0  0  0  0  0  0
    4.0184    0.7496    1.5039 N   0  0  0  0  0  0  0  0  0  0  0  0
    4.8798    1.2632    1.3889 H   0  0  0  0  0  0  0  0  0  0  0  0
    3.5443    1.0716    2.3357 H   0  0  0  0  0  0  0  0  0  0  0  0
   -1.2712    1.3099    1.1517 C   0  0  0  0  0  0  0  0  0  0  0  0
   -2.2039    1.9448    0.6639 O   0  0  0  0  0  0  0  0  0  0  0  0
   -0.4306    1.8354    2.0503 N   0  0  0  0  0  0  0  0  0  0  0  0
    0.3001    1.2459    2.4139 H   0  0  0  0  0  0  0  0  0  0  0  0
   -0.5192    3.2082    2.5456 C   0  0  0  0  0  0  0  0  0  0  0  0
   -1.5166    3.3903    2.9518 H   0  0  0  0  0  0  0  0  0  0  0  0
    0.2240    3.3791    3.3257 H   0  0  0  0  0  0  0  0  0  0  0  0
   -0.3477    3.9067    1.7239 H   0  0  0  0  0  0  0  0  0  0  0  0
  5  6  2  0  0  0  0
  5  7  1  0  0  0  0
  2  3  1  0  0  0  0
  2  4  1  0  0  0  0
  2  5  1  0  0  0  0
  1  2  1  0  0  0  0
 26 27  2  0  0  0  0
 26 28  1  0  0  0  0
 23 24  1  0  0  0  0
 23 25  1  0  0  0  0
 20 21  1  0  0  0  0
 20 22  1  0  0  0  0
 20 23  1  0  0  0  0
 17 18  1  0  0  0  0
 17 19  1  0  0  0  0
 17 20  1  0  0  0  0
 14 15  1  0  0  0  0
 14 16  1  0  0  0  0
 14 17  1  0  0  0  0
 11 12  1  0  0  0  0
 11 13  1  0  0  0  0
 11 14  1  0  0  0  0
  9 10  1  0  0  0  0
  9 11  1  0  0  0  0
  9 26  1  0  0  0  0
  7  8  1  0  0  0  0
  7  9  1  0  0  0  0
 30 31  1  0  0  0  0
 30 32  1  0  0  0  0
 30 33  1  0  0  0  0
 28 29  1  0  0  0  0
 28 30  1  0  0  0  0
M  END
$$$$
default_name
  -OEChem-02102213163D

 33 32  0     1  0  0  0  0  0999 V2000
   -3.8420   -3.6918    1.5562 H   0  0  0  0  0  0  0  0  0  0  0  0
   -3.8430   -2.7008    1.1032 C   0  0  0  0  0  0  0  0  0  0  0  0
   -4.5510   -2.0608    1.6242 H   0  0  0  0  0  0  0  0  0  0  0  0
   -4.1140   -2.7798    0.0522 H   0  0  0  0  0  0  0  0  0  0  0  0
   -2.4570   -2.1098    1.2172 C   0  0  0  0  0  0  0  0  0  0  0  0
   -1.5600   -2.7438    1.7572 O   0  0  0  0  0  0  0  0  0  0  0  0
   -2.2870   -0.8898    0.7102 N   0  0  0  0  0  0  0  0  0  0  0  0
   -3.0820   -0.4218    0.2992 H   0  0  0  0  0  0  0  0  0  0  0  0
   -1.0240   -0.1468    0.7262 C   0  0  1  0  0  0  0  0  0  0  0  0
   -0.3583   -0.6100    1.4558 H   0  0  0  0  0  0  0  0  0  0  0  0
   -0.3739   -0.2459   -0.6675 C   0  0  0  0  0  0  0  0  0  0  0  0
   -0.1942   -1.2992   -0.8925 H   0  0  0  0  0  0  0  0  0  0  0  0
   -1.0634    0.1491   -1.4149 H   0  0  0  0  0  0  0  0  0  0  0  0
    0.9651    0.5013   -0.7685 C   0  0  0  0  0  0  0  0  0  0  0  0
    1.3691    0.3939   -1.7756 H   0  0  0  0  0  0  0  0  0  0  0  0
    0.8019    1.5602   -0.5598 H   0  0  0  0  0  0  0  0  0  0  0  0
    1.9814   -0.0590    0.2329 C   0  0  0  0  0  0  0  0  0  0  0  0
    1.5878    0.0342    1.2455 H   0  0  0  0  0  0  0  0  0  0  0  0
    2.1659   -1.1111    0.0136 H   0  0  0  0  0  0  0  0  0  0  0  0
    3.2933    0.7165    0.1289 C   0  0  0  0  0  0  0  0  0  0  0  0
    3.6977    0.6095   -0.8763 H   0  0  0  0  0  0  0  0  0  0  0  0
    3.1078    1.7703    0.3302 H   0  0  0  0  0  0  0  0  0  0  0  0
    4.2827    0.2203    1.0923 N   0  0  0  0  0  0  0  0  0  0  0  0
    5.1390    0.7444    0.9864 H   0  0  0  0  0  0  0  0  0  0  0  0
    3.9257    0.3467    2.0287 H   0  0  0  0  0  0  0  0  0  0  0  0
   -1.2712    1.3099    1.1517 C   0  0  0  0  0  0  0  0  0  0  0  0
   -2.2039    1.9448    0.6639 O   0  0  0  0  0  0  0  0  0  0  0  0
   -0.4306    1.8354    2.0503 N   0  0  0  0  0  0  0  0  0  0  0  0
    0.3001    1.2459    2.4139 H   0  0  0  0  0  0  0  0  0  0  0  0
   -0.5192    3.2082    2.5456 C   0  0  0  0  0  0  0  0  0  0  0  0
   -1.5166    3.3903    2.9518 H   0  0  0  0  0  0  0  0  0  0  0  0
    0.2240    3.3791    3.3257 H   0  0  0  0  0  0  0  0  0  0  0  0
   -0.3477    3.9067    1.7239 H   0  0  0  0  0  0  0  0  0  0  0  0
  5  6  2  0  0  0  0
  5  7  1  0  0  0  0
  2  3  1  0  0  0  0
  2  4  1  0  0  0  0
  2  5  1  0  0  0  0
  1  2  1  0  0  0  0
 26 27  2  0  0  0  0
 26 28  1  0  0  0  0
 23 24  1  0  0  0  0
 23 25  1  0  0  0  0
 20 21  1  0  0  0  0
 20 22  1  0  0  0  0
 20 23  1  0  0  0  0
 17 18  1  0  0  0  0
 17 19  1  0  0  0  0
 17 20  1  0  0  0  0
 14 15  1  0  0  0  0
 14 16  1  0  0  0  0
 14 17  1  0  0  0  0
 11 12  1  0  0  0  0
 11 13  1  0  0  0  0
 11 14  1  0  0  0  0
  9 10  1  0  0  0  0
  9 11  1  0  0  0  0
  9 26  1  0  0  0  0
  7  8  1  0  0  0  0
  7  9  1  0  0  0  0
 30 31  1  0  0  0  0
 30 32  1  0  0  0  0
 30 33  1  0  0  0  0
 28 29  1  0  0  0  0
 28 30  1  0  0  0  0
M  END
$$$$
default_name
  -OEChem-02102213163D

 33 32  0     1  0  0  0  0  0999 V2000
   -3.8420   -3.6918    1.5562 H   0  0  0  0  0  0  0  0  0  0  0  0
   -3.8430   -2.7008    1.1032 C   0  0  0  0  0  0  0  0  0  0  0  0
   -4.5510   -2.0608    1.6242 H   0  0  0  0  0  0  0  0  0  0  0  0
   -4.1140   -2.7798    0.0522 H   0  0  0  0  0  0  0  0  0  0  0  0
   -2.4570   -2.1098    1.2172 C   0  0  0  0  0  0  0  0  0  0  0  0
   -1.5600   -2.7438    1.7572 O   0  0  0  0  0  0  0  0  0  0  0  0
   -2.2870   -0.8898    0.7102 N   0  0  0  0  0  0  0  0  0  0  0  0
   -3.0820   -0.4218    0.2992 H   0  0  0  0  0  0  0  0  0  0  0  0
   -1.0240   -0.1468    0.7262 C   0  0  1  0  0  0  0  0  0  0  0  0
   -0.3583   -0.6100    1.4558 H   0  0  0  0  0  0  0  0  0  0  0  0
   -0.3739   -0.2459   -0.6675 C   0  0  0  0  0  0  0  0  0  0  0  0
   -0.1942   -1.2992   -0.8925 H   0  0  0  0  0  0  0  0  0  0  0  0
   -1.0634    0.1491   -1.4149 H   0  0  0  0  0  0  0  0  0  0  0  0
    0.9651    0.5013   -0.7685 C   0  0  0  0  0  0  0  0  0  0  0  0
    1.2376    0.6239   -1.8171 H   0  0  0  0  0  0  0  0  0  0  0  0
    0.8624    1.4857   -0.3084 H   0  0  0  0  0  0  0  0  0  0  0  0
    2.0795   -0.2740   -0.0567 C   0  0  0  0  0  0  0  0  0  0  0  0
    1.8176   -0.4117    0.9928 H   0  0  0  0  0  0  0  0  0  0  0  0
    2.2022   -1.2495   -0.5283 H   0  0  0  0  0  0  0  0  0  0  0  0
    3.3921    0.5015   -0.1508 C   0  0  0  0  0  0  0  0  0  0  0  0
    3.6653    0.6241   -1.1976 H   0  0  0  0  0  0  0  0  0  0  0  0
    3.2663    1.4827    0.3039 H   0  0  0  0  0  0  0  0  0  0  0  0
    4.4772   -0.2026    0.5422 N   0  0  0  0  0  0  0  0  0  0  0  0
    5.3298    0.3296    0.4481 H   0  0  0  0  0  0  0  0  0  0  0  0
    4.2431   -0.2908    1.5208 H   0  0  0  0  0  0  0  0  0  0  0  0
   -1.2712    1.3099    1.1517 C   0  0  0  0  0  0  0  0  0  0  0  0
   -2.2039    1.9448    0.6639 O   0  0  0  0  0  0  0  0  0  0  0  0
   -0.4306    1.8354    2.0503 N   0  0  0  0  0  0  0  0  0  0  0  0
    0.3001    1.2459    2.4139 H   0  0  0  0  0  0  0  0  0  0  0  0
   -0.5192    3.2082    2.5456 C   0  0  0  0  0  0  0  0  0  0  0  0
   -1.5166    3.3903    2.9518 H   0  0  0  0  0  0  0  0  0  0  0  0
    0.2240    3.3791    3.3257 H   0  0  0  0  0  0  0  0  0  0  0  0
   -0.3477    3.9067    1.7239 H   0  0  0  0  0  0  0  0  0  0  0  0
  5  6  2  0  0  0  0
  5  7  1  0  0  0  0
  2  3  1  0  0  0  0
  2  4  1  0  0  0  0
  2  5  1  0  0  0  0
  1  2  1  0  0  0  0
 26 27  2  0  0  0  0
 26 28  1  0  0  0  0
 23 24  1  0  0  0  0
 23 25  1  0  0  0  0
 20 21  1  0  0  0  0
 20 22  1  0  0  0  0
 20 23  1  0  0  0  0
 17 18  1  0  0  0  0
 17 19  1  0  0  0  0
 17 20  1  0  0  0  0
 14 15  1  0  0  0  0
 14 16  1  0  0  0  0
 14 17  1  0  0  0  0
 11 12  1  0  0  0  0
 11 13  1  0  0  0  0
 11 14  1  0  0  0  0
  9 10  1  0  0  0  0
  9 11  1  0  0  0  0
  9 26  1  0  0  0  0
  7  8  1  0  0  0  0
  7  9  1  0  0  0  0
 30 31  1  0  0  0  0
 30 32  1  0  0  0  0
 30 33  1  0  0  0  0
 28 29  1  0  0  0  0
 28 30  1  0  0  0  0
M  END
$$$$
default_name
  -OEChem-02102213163D

 33 32  0     1  0  0  0  0  0999 V2000
   -3.8420   -3.6918    1.5562 H   0  0  0  0  0  0  0  0  0  0  0  0
   -3.8430   -2.7008    1.1032 C   0  0  0  0  0  0  0  0  0  0  0  0
   -4.5510   -2.0608    1.6242 H   0  0  0  0  0  0  0  0  0  0  0  0
   -4.1140   -2.7798    0.0522 H   0  0  0  0  0  0  0  0  0  0  0  0
   -2.4570   -2.1098    1.2172 C   0  0  0  0  0  0  0  0  0  0  0  0
   -1.5600   -2.7438    1.7572 O   0  0  0  0  0  0  0  0  0  0  0  0
   -2.2870   -0.8898    0.7102 N   0  0  0  0  0  0  0  0  0  0  0  0
   -3.0820   -0.4218    0.2992 H   0  0  0  0  0  0  0  0  0  0  0  0
   -1.0240   -0.1468    0.7262 C   0  0  1  0  0  0  0  0  0  0  0  0
   -0.3583   -0.6100    1.4558 H   0  0  0  0  0  0  0  0  0  0  0  0
   -0.3739   -0.2459   -0.6675 C   0  0  0  0  0  0  0  0  0  0  0  0
   -0.1942   -1.2992   -0.8925 H   0  0  0  0  0  0  0  0  0  0  0  0
   -1.0634    0.1491   -1.4149 H   0  0  0  0  0  0  0  0  0  0  0  0
    0.9651    0.5013   -0.7685 C   0  0  0  0  0  0  0  0  0  0  0  0
    1.1093    0.8576   -1.7888 H   0  0  0  0  0  0  0  0  0  0  0  0
    0.9512    1.3561   -0.0899 H   0  0  0  0  0  0  0  0  0  0  0  0
    2.1342   -0.4180   -0.3973 C   0  0  0  0  0  0  0  0  0  0  0  0
    2.0001   -0.7892    0.6192 H   0  0  0  0  0  0  0  0  0  0  0  0
    2.1668   -1.2615   -1.0875 H   0  0  0  0  0  0  0  0  0  0  0  0
    3.4487    0.3553   -0.4819 C   0  0  0  0  0  0  0  0  0  0  0  0
    3.5939    0.7112   -1.5006 H   0  0  0  0  0  0  0  0  0  0  0  0
    3.4111    1.2083    0.1937 H   0  0  0  0  0  0  0  0  0  0  0  0
    4.5886   -0.4903   -0.1091 N   0  0  0  0  0  0  0  0  0  0  0  0
    5.4393    0.0471   -0.1895 H   0  0  0  0  0  0  0  0  0  0  0  0
    4.4749   -0.7974    0.8464 H   0  0  0  0  0  0  0  0  0  0  0  0
   -1.2712    1.3099    1.1517 C   0  0  0  0  0  0  0  0  0  0  0  0
   -2.2039    1.9448    0.6639 O   0  0  0  0  0  0  0  0  0  0  0  0
   -0.4306    1.8354    2.0503 N   0  0  0  0  0  0  0  0  0  0  0  0
    0.3001    1.2459    2.4139 H   0  0  0  0  0  0  0  0  0  0  0  0
   -0.5192    3.2082    2.5456 C   0  0  0  0  0  0  0  0  0  0  0  0
   -1.5166    3.3903    2.9518 H   0  0  0  0  0  0  0  0  0  0  0  0
    0.2240    3.3791    3.3257 H   0  0  0  0  0  0  0  0  0  0  0  0
   -0.3477    3.9067    1.7239 H   0  0  0  0  0  0  0  0  0  0  0  0
  5  6  2  0  0  0  0
  5  7  1  0  0  0  0
  2  3  1  0  0  0  0
  2  4  1  0  0  0  0
  2  5  1  0  0  0  0
  1  2  1  0  0  0  0
 26 27  2  0  0  0  0
 26 28  1  0  0  0  0
 23 24  1  0  0  0  0
 23 25  1  0  0  0  0
 20 21  1  0  0  0  0
 20 22  1  0  0  0  0
 20 23  1  0  0  0  0
 17 18  1  0  0  0  0
 17 19  1  0  0  0  0
 17 20  1  0  0  0  0
 14 15  1  0  0  0  0
 14 16  1  0  0  0  0
 14 17  1  0  0  0  0
 11 12  1  0  0  0  0
 11 13  1  0  0  0  0
 11 14  1  0  0  0  0
  9 10  1  0  0  0  0
  9 11  1  0  0  0  0
  9 26  1  0  0  0  0
  7  8  1  0  0  0  0
  7  9  1  0  0  0  0
 30 31  1  0  0  0  0
 30 32  1  0  0  0  0
 30 33  1  0  0  0  0
 28 29  1  0  0  0  0
 28 30  1  0  0  0  0
M  END
$$$$
default_name
  -OEChem-02102213163D

 33 32  0     1  0  0  0  0  0999 V2000
   -3.8420   -3.6918    1.5562 H   0  0  0  0  0  0  0  0  0  0  0  0
   -3.8430   -2.7008    1.1032 C   0  0  0  0  0  0  0  0  0  0  0  0
   -4.5510   -2.0608    1.6242 H   0  0  0  0  0  0  0  0  0  0  0  0
   -4.1140   -2.7798    0.0522 H   0  0  0  0  0  0  0  0  0  0  0  0
   -2.4570   -2.1098    1.2172 C   0  0  0  0  0  0  0  0  0  0  0  0
   -1.5600   -2.7438    1.7572 O   0  0  0  0  0  0  0  0  0  0  0  0
   -2.2870   -0.8898    0.7102 N   0  0  0  0  0  0  0  0  0  0  0  0
   -3.0820   -0.4218    0.2992 H   0  0  0  0  0  0  0  0  0  0  0  0
   -1.0240   -0.1468    0.7262 C   0  0  1  0  0  0  0  0  0  0  0  0
   -0.3583   -0.6100    1.4558 H   0  0  0  0  0  0  0  0  0  0  0  0
   -0.3739   -0.2459   -0.6675 C   0  0  0  0  0  0  0  0  0  0  0  0
   -0.1942   -1.2992   -0.8925 H   0  0  0  0  0  0  0  0  0  0  0  0
   -1.0634    0.1491   -1.4149 H   0  0  0  0  0  0  0  0  0  0  0  0
    0.9651    0.5013   -0.7685 C   0  0  0  0  0  0  0  0  0  0  0  0
    0.9929    1.0792   -1.6927 H   0  0  0  0  0  0  0  0  0  0  0  0
    1.0623    1.1801    0.0807 H   0  0  0  0  0  0  0  0  0  0  0  0
    2.1417   -0.4812   -0.7656 C   0  0  0  0  0  0  0  0  0  0  0  0
    2.1229   -1.0728    0.1502 H   0  0  0  0  0  0  0  0  0  0  0  0
    2.0620   -1.1465   -1.6259 H   0  0  0  0  0  0  0  0  0  0  0  0
    3.4593    0.2877   -0.8418 C   0  0  0  0  0  0  0  0  0  0  0  0
    3.4882    0.8648   -1.7646 H   0  0  0  0  0  0  0  0  0  0  0  0
    3.5325    0.9655    0.0071 H   0  0  0  0  0  0  0  0  0  0  0  0
    4.6094   -0.6233   -0.8171 N   0  0  0  0  0  0  0  0  0  0  0  0
    5.4601   -0.0838   -0.8829 H   0  0  0  0  0  0  0  0  0  0  0  0
    4.6053   -1.1387    0.0516 H   0  0  0  0  0  0  0  0  0  0  0  0
   -1.2712    1.3099    1.1517 C   0  0  0  0  0  0  0  0  0  0  0  0
   -2.2039    1.9448    0.6639 O   0  0  0  0  0  0  0  0  0  0  0  0
   -0.4306    1.8354    2.0503 N   0  0  0  0  0  0  0  0  0  0  0  0
    0.3001    1.2459    2.4139 H   0  0  0  0  0  0  0  0  0  0  0  0
   -0.5192    3.2082    2.5456 C   0  0  0  0  0  0  0  0  0  0  0  0
   -1.5166    3.3903    2.9518 H   0  0  0  0  0  0  0  0  0  0  0  0
    0.2240    3.3791    3.3257 H   0  0  0  0  0  0  0  0  0  0  0  0
   -0.3477    3.9067    1.7239 H   0  0  0  0  0  0  0  0  0  0  0  0
  5  6  2  0  0  0  0
  5  7  1  0  0  0  0
  2  3  1  0  0  0  0
  2  4  1  0  0  0  0
  2  5  1  0  0  0  0
  1  2  1  0  0  0  0
 26 27  2  0  0  0  0
 26 28  1  0  0  0  0
 23 24  1  0  0  0  0
 23 25  1  0  0  0  0
 20 21  1  0  0  0  0
 20 22  1  0  0  0  0
 20 23  1  0  0  0  0
 17 18  1  0  0  0  0
 17 19  1  0  0  0  0
 17 20  1  0  0  0  0
 14 15  1  0  0  0  0
 14 16  1  0  0  0  0
 14 17  1  0  0  0  0
 11 12  1  0  0  0  0
 11 13  1  0  0  0  0
 11 14  1  0  0  0  0
  9 10  1  0  0  0  0
  9 11  1  0  0  0  0
  9 26  1  0  0  0  0
  7  8  1  0  0  0  0
  7  9  1  0  0  0  0
 30 31  1  0  0  0  0
 30 32  1  0  0  0  0
 30 33  1  0  0  0  0
 28 29  1  0  0  0  0
 28 30  1  0  0  0  0
M  END
$$$$
default_name
  -OEChem-02102213163D

 33 32  0     1  0  0  0  0  0999 V2000
   -3.8420   -3.6918    1.5562 H   0  0  0  0  0  0  0  0  0  0  0  0
   -3.8430   -2.7008    1.1032 C   0  0  0  0  0  0  0  0  0  0  0  0
   -4.5510   -2.0608    1.6242 H   0  0  0  0  0  0  0  0  0  0  0  0
   -4.1140   -2.7798    0.0522 H   0  0  0  0  0  0  0  0  0  0  0  0
   -2.4570   -2.1098    1.2172 C   0  0  0  0  0  0  0  0  0  0  0  0
   -1.5600   -2.7438    1.7572 O   0  0  0  0  0  0  0  0  0  0  0  0
   -2.2870   -0.8898    0.7102 N   0  0  0  0  0  0  0  0  0  0  0  0
   -3.0820   -0.4218    0.2992 H   0  0  0  0  0  0  0  0  0  0  0  0
   -1.0240   -0.1468    0.7262 C   0  0  1  0  0  0  0  0  0  0  0  0
   -0.3583   -0.6100    1.4558 H   0  0  0  0  0  0  0  0  0  0  0  0
   -0.3739   -0.2459   -0.6675 C   0  0  0  0  0  0  0  0  0  0  0  0
   -0.1942   -1.2992   -0.8925 H   0  0  0  0  0  0  0  0  0  0  0  0
   -1.0634    0.1491   -1.4149 H   0  0  0  0  0  0  0  0  0  0  0  0
    0.9651    0.5013   -0.7685 C   0  0  0  0  0  0  0  0  0  0  0  0
    0.8964    1.2735   -1.5352 H   0  0  0  0  0  0  0  0  0  0  0  0
    1.1880    0.9698    0.1918 H   0  0  0  0  0  0  0  0  0  0  0  0
    2.1015   -0.4594   -1.1366 C   0  0  0  0  0  0  0  0  0  0  0  0
    2.1777   -1.2430   -0.3822 H   0  0  0  0  0  0  0  0  0  0  0  0
    1.8949   -0.9122   -2.1068 H   0  0  0  0  0  0  0  0  0  0  0  0
    3.4230    0.3034   -1.2060 C   0  0  0  0  0  0  0  0  0  0  0  0
    3.3556    1.0746   -1.9717 H   0  0  0  0  0  0  0  0  0  0  0  0
    3.6222    0.7710   -0.2431 H   0  0  0  0  0  0  0  0  0  0  0  0
    4.5381   -0.5924   -1.5336 N   0  0  0  0  0  0  0  0  0  0  0  0
    5.3906   -0.0542   -1.5848 H   0  0  0  0  0  0  0  0  0  0  0  0
    4.6255   -1.2912   -0.8095 H   0  0  0  0  0  0  0  0  0  0  0  0
   -1.2712    1.3099    1.1517 C   0  0  0  0  0  0  0  0  0  0  0  0
   -2.2039    1.9448    0.6639 O   0  0  0  0  0  0  0  0  0  0  0  0
   -0.4306    1.8354    2.0503 N   0  0  0  0  0  0  0  0  0  0  0  0
    0.3001    1.2459    2.4139 H   0  0  0  0  0  0  0  0  0  0  0  0
   -0.5192    3.2082    2.5456 C   0  0  0  0  0  0  0  0  0  0  0  0
   -1.5166    3.3903    2.9518 H   0  0  0  0  0  0  0  0  0  0  0  0
    0.2240    3.3791    3.3257 H   0  0  0  0  0  0  0  0  0  0  0  0
   -0.3477    3.9067    1.7239 H   0  0  0  0  0  0  0  0  0  0  0  0
  5  6  2  0  0  0  0
  5  7  1  0  0  0  0
  2  3  1  0  0  0  0
  2  4  1  0  0  0  0
  2  5  1  0  0  0  0
  1  2  1  0  0  0  0
 26 27  2  0  0  0  0
 26 28  1  0  0  0  0
 23 24  1  0  0  0  0
 23 25  1  0  0  0  0
 20 21  1  0  0  0  0
 20 22  1  0  0  0  0
 20 23  1  0  0  0  0
 17 18  1  0  0  0  0
 17 19  1  0  0  0  0
 17 20  1  0  0  0  0
 14 15  1  0  0  0  0
 14 16  1  0  0  0  0
 14 17  1  0  0  0  0
 11 12  1  0  0  0  0
 11 13  1  0  0  0  0
 11 14  1  0  0  0  0
  9 10  1  0  0  0  0
  9 11  1  0  0  0  0
  9 26  1  0  0  0  0
  7  8  1  0  0  0  0
  7  9  1  0  0  0  0
 30 31  1  0  0  0  0
 30 32  1  0  0  0  0
 30 33  1  0  0  0  0
 28 29  1  0  0  0  0
 28 30  1  0  0  0  0
M  END
$$$$
default_name
  -OEChem-02102213163D

 33 32  0     1  0  0  0  0  0999 V2000
   -3.8420   -3.6918    1.5562 H   0  0  0  0  0  0  0  0  0  0  0  0
   -3.8430   -2.7008    1.1032 C   0  0  0  0  0  0  0  0  0  0  0  0
   -4.5510   -2.0608    1.6242 H   0  0  0  0  0  0  0  0  0  0  0  0
   -4.1140   -2.7798    0.0522 H   0  0  0  0  0  0  0  0  0  0  0  0
   -2.4570   -2.1098    1.2172 C   0  0  0  0  0  0  0  0  0  0  0  0
   -1.5600   -2.7438    1.7572 O   0  0  0  0  0  0  0  0  0  0  0  0
   -2.2870   -0.8898    0.7102 N   0  0  0  0  0  0  0  0  0  0  0  0
   -3.0820   -0.4218    0.2992 H   0  0  0  0  0  0  0  0  0  0  0  0
   -1.0240   -0.1468    0.7262 C   0  0  1  0  0  0  0  0  0  0  0  0
   -0.3583   -0.6100    1.4558 H   0  0  0  0  0  0  0  0  0  0  0  0
   -0.3739   -0.2459   -0.6675 C   0  0  0  0  0  0  0  0  0  0  0  0
   -0.1942   -1.2992   -0.8925 H   0  0  0  0  0  0  0  0  0  0  0  0
   -1.0634    0.1491   -1.4149 H   0  0  0  0  0  0  0  0  0  0  0  0
    0.9651    0.5013   -0.7685 C   0  0  0  0  0  0  0  0  0  0  0  0
    0.8262    1.4273   -1.3270 H   0  0  0  0  0  0  0  0  0  0  0  0
    1.3199    0.7394    0.2359 H   0  0  0  0  0  0  0  0  0  0  0  0
    2.0164   -0.3539   -1.4849 C   0  0  0  0  0  0  0  0  0  0  0  0
    2.1608   -1.2883   -0.9418 H   0  0  0  0  0  0  0  0  0  0  0  0
    1.6770   -0.5745   -2.4974 H   0  0  0  0  0  0  0  0  0  0  0  0
    3.3425    0.4014   -1.5496 C   0  0  0  0  0  0  0  0  0  0  0  0
    3.2049    1.3261   -2.1077 H   0  0  0  0  0  0  0  0  0  0  0  0
    3.6739    0.6381   -0.5400 H   0  0  0  0  0  0  0  0  0  0  0  0
    4.3796   -0.3998   -2.2097 N   0  0  0  0  0  0  0  0  0  0  0  0
    5.2357    0.1338   -2.2473 H   0  0  0  0  0  0  0  0  0  0  0  0
    4.5340   -1.2448   -1.6782 H   0  0  0  0  0  0  0  0  0  0  0  0
   -1.2712    1.3099    1.1517 C   0  0  0  0  0  0  0  0  0  0  0  0
   -2.2039    1.9448    0.6639 O   0  0  0  0  0  0  0  0  0  0  0  0
   -0.4306    1.8354    2.0503 N   0  0  0  0  0  0  0  0  0  0  0  0
    0.3001    1.2459    2.4139 H   0  0  0  0  0  0  0  0  0  0  0  0
   -0.5192    3.2082    2.5456 C   0  0  0  0  0  0  0  0  0  0  0  0
   -1.5166    3.3903    2.9518 H   0  0  0  0  0  0  0  0  0  0  0  0
    0.2240    3.3791    3.3257 H   0  0  0  0  0  0  0  0  0  0  0  0
   -0.3477    3.9067    1.7239 H   0  0  0  0  0  0  0  0  0  0  0  0
  5  6  2  0  0  0  0
  5  7  1  0  0  0  0
  2  3  1  0  0  0  0
  2  4  1  0  0  0  0
  2  5  1  0  0  0  0
  1  2  1  0  0  0  0
 26 27  2  0  0  0  0
 26 28  1  0  0  0  0
 23 24  1  0  0  0  0
 23 25  1  0  0  0  0
 20 21  1  0  0  0  0
 20 22  1  0  0  0  0
 20 23  1  0  0  0  0
 17 18  1  0  0  0  0
 17 19  1  0  0  0  0
 17 20  1  0  0  0  0
 14 15  1  0  0  0  0
 14 16  1  0  0  0  0
 14 17  1  0  0  0  0
 11 12  1  0  0  0  0
 11 13  1  0  0  0  0
 11 14  1  0  0  0  0
  9 10  1  0  0  0  0
  9 11  1  0  0  0  0
  9 26  1  0  0  0  0
  7  8  1  0  0  0  0
  7  9  1  0  0  0  0
 30 31  1  0  0  0  0
 30 32  1  0  0  0  0
 30 33  1  0  0  0  0
 28 29  1  0  0  0  0
 28 30  1  0  0  0  0
M  END
$$$$
default_name
  -OEChem-02102213163D

 33 32  0     1  0  0  0  0  0999 V2000
   -3.8420   -3.6918    1.5562 H   0  0  0  0  0  0  0  0  0  0  0  0
   -3.8430   -2.7008    1.1032 C   0  0  0  0  0  0  0  0  0  0  0  0
   -4.5510   -2.0608    1.6242 H   0  0  0  0  0  0  0  0  0  0  0  0
   -4.1140   -2.7798    0.0522 H   0  0  0  0  0  0  0  0  0  0  0  0
   -2.4570   -2.1098    1.2172 C   0  0  0  0  0  0  0  0  0  0  0  0
   -1.5600   -2.7438    1.7572 O   0  0  0  0  0  0  0  0  0  0  0  0
   -2.2870   -0.8898    0.7102 N   0  0  0  0  0  0  0  0  0  0  0  0
   -3.0820   -0.4218    0.2992 H   0  0  0  0  0  0  0  0  0  0  0  0
   -1.0240   -0.1468    0.7262 C   0  0  1  0  0  0  0  0  0  0  0  0
   -0.3583   -0.6100    1.4558 H   0  0  0  0  0  0  0  0  0  0  0  0
   -0.3739   -0.2459   -0.6675 C   0  0  0  0  0  0  0  0  0  0  0  0
   -0.1942   -1.2992   -0.8925 H   0  0  0  0  0  0  0  0  0  0  0  0
   -1.0634    0.1491   -1.4149 H   0  0  0  0  0  0  0  0  0  0  0  0
    0.9651    0.5013   -0.7685 C   0  0  0  0  0  0  0  0  0  0  0  0
    0.7873    1.5302   -1.0825 H   0  0  0  0  0  0  0  0  0  0  0  0
    1.4489    0.5047    0.2099 H   0  0  0  0  0  0  0  0  0  0  0  0
    1.8921   -0.1720   -1.7869 C   0  0  0  0  0  0  0  0  0  0  0  0
    2.0732   -1.2056   -1.4903 H   0  0  0  0  0  0  0  0  0  0  0  0
    1.4232   -0.1566   -2.7712 H   0  0  0  0  0  0  0  0  0  0  0  0
    3.2230    0.5748   -1.8494 C   0  0  0  0  0  0  0  0  0  0  0  0
    3.0466    1.6024   -2.1633 H   0  0  0  0  0  0  0  0  0  0  0  0
    3.6843    0.5758   -0.8632 H   0  0  0  0  0  0  0  0  0  0  0  0
    4.1447   -0.0586   -2.7994 N   0  0  0  0  0  0  0  0  0  0  0  0
    5.0059    0.4674   -2.8254 H   0  0  0  0  0  0  0  0  0  0  0  0
    4.3371   -1.0024   -2.4953 H   0  0  0  0  0  0  0  0  0  0  0  0
   -1.2712    1.3099    1.1517 C   0  0  0  0  0  0  0  0  0  0  0  0
   -2.2039    1.9448    0.6639 O   0  0  0  0  0  0  0  0  0  0  0  0
   -0.4306    1.8354    2.0503 N   0  0  0  0  0  0  0  0  0  0  0  0
    0.3001    1.2459    2.4139 H   0  0  0  0  0  0  0  0  0  0  0  0
   -0.5192    3.2082    2.5456 C   0  0  0  0  0  0  0  0  0  0  0  0
   -1.5166    3.3903    2.9518 H   0  0  0  0  0  0  0  0  0  0  0  0
    0.2240    3.3791    3.3257 H   0  0  0  0  0  0  0  0  0  0  0  0
   -0.3477    3.9067    1.7239 H   0  0  0  0  0  0  0  0  0  0  0  0
  5  6  2  0  0  0  0
  5  7  1  0  0  0  0
  2  3  1  0  0  0  0
  2  4  1  0  0  0  0
  2  5  1  0  0  0  0
  1  2  1  0  0  0  0
 26 27  2  0  0  0  0
 26 28  1  0  0  0  0
 23 24  1  0  0  0  0
 23 25  1  0  0  0  0
 20 21  1  0  0  0  0
 20 22  1  0  0  0  0
 20 23  1  0  0  0  0
 17 18  1  0  0  0  0
 17 19  1  0  0  0  0
 17 20  1  0  0  0  0
 14 15  1  0  0  0  0
 14 16  1  0  0  0  0
 14 17  1  0  0  0  0
 11 12  1  0  0  0  0
 11 13  1  0  0  0  0
 11 14  1  0  0  0  0
  9 10  1  0  0  0  0
  9 11  1  0  0  0  0
  9 26  1  0  0  0  0
  7  8  1  0  0  0  0
  7  9  1  0  0  0  0
 30 31  1  0  0  0  0
 30 32  1  0  0  0  0
 30 33  1  0  0  0  0
 28 29  1  0  0  0  0
 28 30  1  0  0  0  0
M  END
$$$$
default_name
  -OEChem-02102213163D

 33 32  0     1  0  0  0  0  0999 V2000
   -3.8420   -3.6918    1.5562 H   0  0  0  0  0  0  0  0  0  0  0  0
   -3.8430   -2.7008    1.1032 C   0  0  0  0  0  0  0  0  0  0  0  0
   -4.5510   -2.0608    1.6242 H   0  0  0  0  0  0  0  0  0  0  0  0
   -4.1140   -2.7798    0.0522 H   0  0  0  0  0  0  0  0  0  0  0  0
   -2.4570   -2.1098    1.2172 C   0  0  0  0  0  0  0  0  0  0  0  0
   -1.5600   -2.7438    1.7572 O   0  0  0  0  0  0  0  0  0  0  0  0
   -2.2870   -0.8898    0.7102 N   0  0  0  0  0  0  0  0  0  0  0  0
   -3.0820   -0.4218    0.2992 H   0  0  0  0  0  0  0  0  0  0  0  0
   -1.0240   -0.1468    0.7262 C   0  0  1  0  0  0  0  0  0  0  0  0
   -0.3583   -0.6100    1.4558 H   0  0  0  0  0  0  0  0  0  0  0  0
   -0.3739   -0.2459   -0.6675 C   0  0  0  0  0  0  0  0  0  0  0  0
   -0.1942   -1.2992   -0.8925 H   0  0  0  0  0  0  0  0  0  0  0  0
   -1.0634    0.1491   -1.4149 H   0  0  0  0  0  0  0  0  0  0  0  0
    0.9651    0.5013   -0.7685 C   0  0  0  0  0  0  0  0  0  0  0  0
    0.7822    1.5750   -0.8182 H   0  0  0  0  0  0  0  0  0  0  0  0
    1.5663    0.2816    0.1157 H   0  0  0  0  0  0  0  0  0  0  0  0
    1.7371    0.0739   -2.0219 C   0  0  0  0  0  0  0  0  0  0  0  0
    1.9210   -1.0004   -1.9905 H   0  0  0  0  0  0  0  0  0  0  0  0
    1.1506    0.3132   -2.9094 H   0  0  0  0  0  0  0  0  0  0  0  0
    3.0729    0.8120   -2.0848 C   0  0  0  0  0  0  0  0  0  0  0  0
    2.8913    1.8844   -2.1349 H   0  0  0  0  0  0  0  0  0  0  0  0
    3.6527    0.5883   -1.1908 H   0  0  0  0  0  0  0  0  0  0  0  0
    3.8494    0.4080   -3.2625 N   0  0  0  0  0  0  0  0  0  0  0  0
    4.7169    0.9240   -3.2796 H   0  0  0  0  0  0  0  0  0  0  0  0
    4.0483   -0.5806   -3.2051 H   0  0  0  0  0  0  0  0  0  0  0  0
   -1.2712    1.3099    1.1517 C   0  0  0  0  0  0  0  0  0  0  0  0
   -2.2039    1.9448    0.6639 O   0  0  0  0  0  0  0  0  0  0  0  0
   -0.4306    1.8354    2.0503 N   0  0  0  0  0  0  0  0  0  0  0  0
    0.3001    1.2459    2.4139 H   0  0  0  0  0  0  0  0  0  0  0  0
   -0.5192    3.2082    2.5456 C   0  0  0  0  0  0  0  0  0  0  0  0
   -1.5166    3.3903    2.9518 H   0  0  0  0  0  0  0  0  0  0  0  0
    0.2240    3.3791    3.3257 H   0  0  0  0  0  0  0  0  0  0  0  0
   -0.3477    3.9067    1.7239 H   0  0  0  0  0  0  0  0  0  0  0  0
  5  6  2  0  0  0  0
  5  7  1  0  0  0  0
  2  3  1  0  0  0  0
  2  4  1  0  0  0  0
  2  5  1  0  0  0  0
  1  2  1  0  0  0  0
 26 27  2  0  0  0  0
 26 28  1  0  0  0  0
 23 24  1  0  0  0  0
 23 25  1  0  0  0  0
 20 21  1  0  0  0  0
 20 22  1  0  0  0  0
 20 23  1  0  0  0  0
 17 18  1  0  0  0  0
 17 19  1  0  0  0  0
 17 20  1  0  0  0  0
 14 15  1  0  0  0  0
 14 16  1  0  0  0  0
 14 17  1  0  0  0  0
 11 12  1  0  0  0  0
 11 13  1  0  0  0  0
 11 14  1  0  0  0  0
  9 10  1  0  0  0  0
  9 11  1  0  0  0  0
  9 26  1  0  0  0  0
  7  8  1  0  0  0  0
  7  9  1  0  0  0  0
 30 31  1  0  0  0  0
 30 32  1  0  0  0  0
 30 33  1  0  0  0  0
 28 29  1  0  0  0  0
 28 30  1  0  0  0  0
M  END
$$$$
default_name
  -OEChem-02102213163D

 33 32  0     1  0  0  0  0  0999 V2000
   -3.8420   -3.6918    1.5562 H   0  0  0  0  0  0  0  0  0  0  0  0
   -3.8430   -2.7008    1.1032 C   0  0  0  0  0  0  0  0  0  0  0  0
   -4.5510   -2.0608    1.6242 H   0  0  0  0  0  0  0  0  0  0  0  0
   -4.1140   -2.7798    0.0522 H   0  0  0  0  0  0  0  0  0  0  0  0
   -2.4570   -2.1098    1.2172 C   0  0  0  0  0  0  0  0  0  0  0  0
   -1.5600   -2.7438    1.7572 O   0  0  0  0  0  0  0  0  0  0  0  0
   -2.2870   -0.8898    0.7102 N   0  0  0  0  0  0  0  0  0  0  0  0
   -3.0820   -0.4218    0.2992 H   0  0  0  0  0  0  0  0  0  0  0  0
   -1.0240   -0.1468    0.7262 C   0  0  1  0  0  0  0  0  0  0  0  0
   -0.3583   -0.6100    1.4558 H   0  0  0  0  0  0  0  0  0  0  0  0
   -0.3739   -0.2459   -0.6675 C   0  0  0  0  0  0  0  0  0  0  0  0
   -0.4381   -1.2816   -1.0075 H   0  0  0  0  0  0  0  0  0  0  0  0
   -0.9298    0.3778   -1.3689 H   0  0  0  0  0  0  0  0  0  0  0  0
    1.1048    0.1721   -0.6799 C   0  0  0  0  0  0  0  0  0  0  0  0
    1.1955    1.2067   -0.3479 H   0  0  0  0  0  0  0  0  0  0  0  0
    1.6656   -0.4719   -0.0001 H   0  0  0  0  0  0  0  0  0  0  0  0
    1.6954    0.0528   -2.0894 C   0  0  0  0  0  0  0  0  0  0  0  0
    1.6049   -0.9761   -2.4389 H   0  0  0  0  0  0  0  0  0  0  0  0
    1.1536    0.7126   -2.7677 H   0  0  0  0  0  0  0  0  0  0  0  0
    3.1702    0.4499   -2.0687 C   0  0  0  0  0  0  0  0  0  0  0  0
    3.2618    1.4831   -1.7378 H   0  0  0  0  0  0  0  0  0  0  0  0
    3.7096   -0.1966   -1.3784 H   0  0  0  0  0  0  0  0  0  0  0  0
    3.7740    0.3243   -3.4003 N   0  0  0  0  0  0  0  0  0  0  0  0
    4.7418    0.6071   -3.3525 H   0  0  0  0  0  0  0  0  0  0  0  0
    3.7204   -0.6392   -3.6988 H   0  0  0  0  0  0  0  0  0  0  0  0
   -1.2712    1.3099    1.1517 C   0  0  0  0  0  0  0  0  0  0  0  0
   -2.2039    1.9448    0.6639 O   0  0  0  0  0  0  0  0  0  0  0  0
   -0.4306    1.8354    2.0503 N   0  0  0  0  0  0  0  0  0  0  0  0
    0.3001    1.2459    2.4139 H   0  0  0  0  0  0  0  0  0  0  0  0
   -0.5192    3.2082    2.5456 C   0  0  0  0  0  0  0  0  0  0  0  0
   -1.5166    3.3903    2.9518 H   0  0  0  0  0  0  0  0  0  0  0  0
    0.2240    3.3791    3.3257 H   0  0  0  0  0  0  0  0  0  0  0  0
   -0.3477    3.9067    1.7239 H   0  0  0  0  0  0  0  0  0  0  0  0
  5  6  2  0  0  0  0
  5  7  1  0  0  0  0
  2  3  1  0  0  0  0
  2  4  1  0  0  0  0
  2  5  1  0  0  0  0
  1  2  1  0  0  0  0
 26 27  2  0  0  0  0
 26 28  1  0  0  0  0
 23 24  1  0  0  0  0
 23 25  1  0  0  0  0
 20 21  1  0  0  0  0
 20 22  1  0  0  0  0
 20 23  1  0  0  0  0
 17 18  1  0  0  0  0
 17 19  1  0  0  0  0
 17 20  1  0  0  0  0
 14 15  1  0  0  0  0
 14 16  1  0  0  0  0
 14 17  1  0  0  0  0
 11 12  1  0  0  0  0
 11 13  1  0  0  0  0
 11 14  1  0  0  0  0
  9 10  1  0  0  0  0
  9 11  1  0  0  0  0
  9 26  1  0  0  0  0
  7  8  1  0  0  0  0
  7  9  1  0  0  0  0
 30 31  1  0  0  0  0
 30 32  1  0  0  0  0
 30 33  1  0  0  0  0
 28 29  1  0  0  0  0
 28 30  1  0  0  0  0
M  END
$$$$
default_name
  -OEChem-02102213163D

 33 32  0     1  0  0  0  0  0999 V2000
   -3.8420   -3.6918    1.5562 H   0  0  0  0  0  0  0  0  0  0  0  0
   -3.8430   -2.7008    1.1032 C   0  0  0  0  0  0  0  0  0  0  0  0
   -4.5510   -2.0608    1.6242 H   0  0  0  0  0  0  0  0  0  0  0  0
   -4.1140   -2.7798    0.0522 H   0  0  0  0  0  0  0  0  0  0  0  0
   -2.4570   -2.1098    1.2172 C   0  0  0  0  0  0  0  0  0  0  0  0
   -1.5600   -2.7438    1.7572 O   0  0  0  0  0  0  0  0  0  0  0  0
   -2.2870   -0.8898    0.7102 N   0  0  0  0  0  0  0  0  0  0  0  0
   -3.0820   -0.4218    0.2992 H   0  0  0  0  0  0  0  0  0  0  0  0
   -1.0240   -0.1468    0.7262 C   0  0  1  0  0  0  0  0  0  0  0  0
   -0.3583   -0.6100    1.4558 H   0  0  0  0  0  0  0  0  0  0  0  0
   -0.3739   -0.2459   -0.6675 C   0  0  0  0  0  0  0  0  0  0  0  0
   -0.4381   -1.2816   -1.0075 H   0  0  0  0  0  0  0  0  0  0  0  0
   -0.9298    0.3778   -1.3689 H   0  0  0  0  0  0  0  0  0  0  0  0
    1.1048    0.1721   -0.6799 C   0  0  0  0  0  0  0  0  0  0  0  0
    1.2299    1.0920   -0.1081 H   0  0  0  0  0  0  0  0  0  0  0  0
    1.7047   -0.6172   -0.2232 H   0  0  0  0  0  0  0  0  0  0  0  0
    1.5938    0.4117   -2.1128 C   0  0  0  0  0  0  0  0  0  0  0  0
    1.4676   -0.4983   -2.7002 H   0  0  0  0  0  0  0  0  0  0  0  0
    1.0130    1.2160   -2.5654 H   0  0  0  0  0  0  0  0  0  0  0  0
    3.0707    0.8012   -2.0982 C   0  0  0  0  0  0  0  0  0  0  0  0
    3.1966    1.7200   -1.5277 H   0  0  0  0  0  0  0  0  0  0  0  0
    3.6500    0.0068   -1.6305 H   0  0  0  0  0  0  0  0  0  0  0  0
    3.5781    1.0154   -3.4583 N   0  0  0  0  0  0  0  0  0  0  0  0
    4.5500    1.2840   -3.4102 H   0  0  0  0  0  0  0  0  0  0  0  0
    3.4931    0.1563   -3.9828 H   0  0  0  0  0  0  0  0  0  0  0  0
   -1.2712    1.3099    1.1517 C   0  0  0  0  0  0  0  0  0  0  0  0
   -2.2039    1.9448    0.6639 O   0  0  0  0  0  0  0  0  0  0  0  0
   -0.4306    1.8354    2.0503 N   0  0  0  0  0  0  0  0  0  0  0  0
    0.3001    1.2459    2.4139 H   0  0  0  0  0  0  0  0  0  0  0  0
   -0.5192    3.2082    2.5456 C   0  0  0  0  0  0  0  0  0  0  0  0
   -1.5166    3.3903    2.9518 H   0  0  0  0  0  0  0  0  0  0  0  0
    0.2240    3.3791    3.3257 H   0  0  0  0  0  0  0  0  0  0  0  0
   -0.3477    3.9067    1.7239 H   0  0  0  0  0  0  0  0  0  0  0  0
  5  6  2  0  0  0  0
  5  7  1  0  0  0  0
  2  3  1  0  0  0  0
  2  4  1  0  0  0  0
  2  5  1  0  0  0  0
  1  2  1  0  0  0  0
 26 27  2  0  0  0  0
 26 28  1  0  0  0  0
 23 24  1  0  0  0  0
 23 25  1  0  0  0  0
 20 21  1  0  0  0  0
 20 22  1  0  0  0  0
 20 23  1  0  0  0  0
 17 18  1  0  0  0  0
 17 19  1  0  0  0  0
 17 20  1  0  0  0  0
 14 15  1  0  0  0  0
 14 16  1  0  0  0  0
 14 17  1  0  0  0  0
 11 12  1  0  0  0  0
 11 13  1  0  0  0  0
 11 14  1  0  0  0  0
  9 10  1  0  0  0  0
  9 11  1  0  0  0  0
  9 26  1  0  0  0  0
  7  8  1  0  0  0  0
  7  9  1  0  0  0  0
 30 31  1  0  0  0  0
 30 32  1  0  0  0  0
 30 33  1  0  0  0  0
 28 29  1  0  0  0  0
 28 30  1  0  0  0  0
M  END
$$$$
default_name
  -OEChem-02102213163D

 33 32  0     1  0  0  0  0  0999 V2000
   -3.8420   -3.6918    1.5562 H   0  0  0  0  0  0  0  0  0  0  0  0
   -3.8430   -2.7008    1.1032 C   0  0  0  0  0  0  0  0  0  0  0  0
   -4.5510   -2.0608    1.6242 H   0  0  0  0  0  0  0  0  0  0  0  0
   -4.1140   -2.7798    0.0522 H   0  0  0  0  0  0  0  0  0  0  0  0
   -2.4570   -2.1098    1.2172 C   0  0  0  0  0  0  0  0  0  0  0  0
   -1.5600   -2.7438    1.7572 O   0  0  0  0  0  0  0  0  0  0  0  0
   -2.2870   -0.8898    0.7102 N   0  0  0  0  0  0  0  0  0  0  0  0
   -3.0820   -0.4218    0.2992 H   0  0  0  0  0  0  0  0  0  0  0  0
   -1.0240   -0.1468    0.7262 C   0  0  1  0  0  0  0  0  0  0  0  0
   -0.3583   -0.6100    1.4558 H   0  0  0  0  0  0  0  0  0  0  0  0
   -0.3739   -0.2459   -0.6675 C   0  0  0  0  0  0  0  0  0  0  0  0
   -0.4381   -1.2816   -1.0075 H   0  0  0  0  0  0  0  0  0  0  0  0
   -0.9298    0.3778   -1.3689 H   0  0  0  0  0  0  0  0  0  0  0  0
    1.1048    0.1721   -0.6799 C   0  0  0  0  0  0  0  0  0  0  0  0
    1.2799    0.9213    0.0926 H   0  0  0  0  0  0  0  0  0  0  0  0
    1.7266   -0.7019   -0.4777 H   0  0  0  0  0  0  0  0  0  0  0  0
    1.4947    0.7645   -2.0389 C   0  0  0  0  0  0  0  0  0  0  0  0
    1.3176    0.0286   -2.8239 H   0  0  0  0  0  0  0  0  0  0  0  0
    0.8925    1.6522   -2.2348 H   0  0  0  0  0  0  0  0  0  0  0  0
    2.9732    1.1481   -2.0322 C   0  0  0  0  0  0  0  0  0  0  0  0
    3.1489    1.8966   -1.2613 H   0  0  0  0  0  0  0  0  0  0  0  0
    3.5751    0.2662   -1.8191 H   0  0  0  0  0  0  0  0  0  0  0  0
    3.3863    1.6978   -3.3285 N   0  0  0  0  0  0  0  0  0  0  0  0
    4.3621    1.9526   -3.2838 H   0  0  0  0  0  0  0  0  0  0  0  0
    3.2553    0.9959   -4.0430 H   0  0  0  0  0  0  0  0  0  0  0  0
   -1.2712    1.3099    1.1517 C   0  0  0  0  0  0  0  0  0  0  0  0
   -2.2039    1.9448    0.6639 O   0  0  0  0  0  0  0  0  0  0  0  0
   -0.4306    1.8354    2.0503 N   0  0  0  0  0  0  0  0  0  0  0  0
    0.3001    1.2459    2.4139 H   0  0  0  0  0  0  0  0  0  0  0  0
   -0.5192    3.2082    2.5456 C   0  0  0  0  0  0  0  0  0  0  0  0
   -1.5166    3.3903    2.9518 H   0  0  0  0  0  0  0  0  0  0  0  0
    0.2240    3.3791    3.3257 H   0  0  0  0  0  0  0  0  0  0  0  0
   -0.3477    3.9067    1.7239 H   0  0  0  0  0  0  0  0  0  0  0  0
  5  6  2  0  0  0  0
  5  7  1  0  0  0  0
  2  3  1  0  0  0  0
  2  4  1  0  0  0  0
  2  5  1  0  0  0  0
  1  2  1  0  0  0  0
 26 27  2  0  0  0  0
 26 28  1  0  0  0  0
 23 24  1  0  0  0  0
 23 25  1  0  0  0  0
 20 21  1  0  0  0  0
 20 22  1  0  0  0  0
 20 23  1  0  0  0  0
 17 18  1  0  0  0  0
 17 19  1  0  0  0  0
 17 20  1  0  0  0  0
 14 15  1  0  0  0  0
 14 16  1  0  0  0  0
 14 17  1  0  0  0  0
 11 12  1  0  0  0  0
 11 13  1  0  0  0  0
 11 14  1  0  0  0  0
  9 10  1  0  0  0  0
  9 11  1  0  0  0  0
  9 26  1  0  0  0  0
  7  8  1  0  0  0  0
  7  9  1  0  0  0  0
 30 31  1  0  0  0  0
 30 32  1  0  0  0  0
 30 33  1  0  0  0  0
 28 29  1  0  0  0  0
 28 30  1  0  0  0  0
M  END
$$$$
default_name
  -OEChem-02102213163D

 33 32  0     1  0  0  0  0  0999 V2000
   -3.8420   -3.6918    1.5562 H   0  0  0  0  0  0  0  0  0  0  0  0
   -3.8430   -2.7008    1.1032 C   0  0  0  0  0  0  0  0  0  0  0  0
   -4.5510   -2.0608    1.6242 H   0  0  0  0  0  0  0  0  0  0  0  0
   -4.1140   -2.7798    0.0522 H   0  0  0  0  0  0  0  0  0  0  0  0
   -2.4570   -2.1098    1.2172 C   0  0  0  0  0  0  0  0  0  0  0  0
   -1.5600   -2.7438    1.7572 O   0  0  0  0  0  0  0  0  0  0  0  0
   -2.2870   -0.8898    0.7102 N   0  0  0  0  0  0  0  0  0  0  0  0
   -3.0820   -0.4218    0.2992 H   0  0  0  0  0  0  0  0  0  0  0  0
   -1.0240   -0.1468    0.7262 C   0  0  1  0  0  0  0  0  0  0  0  0
   -0.3583   -0.6100    1.4558 H   0  0  0  0  0  0  0  0  0  0  0  0
   -0.3739   -0.2459   -0.6675 C   0  0  0  0  0  0  0  0  0  0  0  0
   -0.4381   -1.2816   -1.0075 H   0  0  0  0  0  0  0  0  0  0  0  0
   -0.9298    0.3778   -1.3689 H   0  0  0  0  0  0  0  0  0  0  0  0
    1.1048    0.1721   -0.6799 C   0  0  0  0  0  0  0  0  0  0  0  0
    1.3419    0.7064    0.2405 H   0  0  0  0  0  0  0  0  0  0  0  0
    1.7296   -0.7205   -0.7461 H   0  0  0  0  0  0  0  0  0  0  0  0
    1.4049    1.0870   -1.8726 C   0  0  0  0  0  0  0  0  0  0  0  0
    1.1651    0.5687   -2.8016 H   0  0  0  0  0  0  0  0  0  0  0  0
    0.8003    1.9914   -1.7983 H   0  0  0  0  0  0  0  0  0  0  0  0
    2.8844    1.4669   -1.8751 C   0  0  0  0  0  0  0  0  0  0  0  0
    3.1220    2.0010   -0.9566 H   0  0  0  0  0  0  0  0  0  0  0  0
    3.4900    0.5639   -1.9314 H   0  0  0  0  0  0  0  0  0  0  0  0
    3.2116    2.3251   -3.0196 N   0  0  0  0  0  0  0  0  0  0  0  0
    4.1908    2.5673   -2.9819 H   0  0  0  0  0  0  0  0  0  0  0  0
    3.0230    1.8224   -3.8752 H   0  0  0  0  0  0  0  0  0  0  0  0
   -1.2712    1.3099    1.1517 C   0  0  0  0  0  0  0  0  0  0  0  0
   -2.2039    1.9448    0.6639 O   0  0  0  0  0  0  0  0  0  0  0  0
   -0.4306    1.8354    2.0503 N   0  0  0  0  0  0  0  0  0  0  0  0
    0.3001    1.2459    2.4139 H   0  0  0  0  0  0  0  0  0  0  0  0
   -0.5192    3.2082    2.5456 C   0  0  0  0  0  0  0  0  0  0  0  0
   -1.5166    3.3903    2.9518 H   0  0  0  0  0  0  0  0  0  0  0  0
    0.2240    3.3791    3.3257 H   0  0  0  0  0  0  0  0  0  0  0  0
   -0.3477    3.9067    1.7239 H   0  0  0  0  0  0  0  0  0  0  0  0
  5  6  2  0  0  0  0
  5  7  1  0  0  0  0
  2  3  1  0  0  0  0
  2  4  1  0  0  0  0
  2  5  1  0  0  0  0
  1  2  1  0  0  0  0
 26 27  2  0  0  0  0
 26 28  1  0  0  0  0
 23 24  1  0  0  0  0
 23 25  1  0  0  0  0
 20 21  1  0  0  0  0
 20 22  1  0  0  0  0
 20 23  1  0  0  0  0
 17 18  1  0  0  0  0
 17 19  1  0  0  0  0
 17 20  1  0  0  0  0
 14 15  1  0  0  0  0
 14 16  1  0  0  0  0
 14 17  1  0  0  0  0
 11 12  1  0  0  0  0
 11 13  1  0  0  0  0
 11 14  1  0  0  0  0
  9 10  1  0  0  0  0
  9 11  1  0  0  0  0
  9 26  1  0  0  0  0
  7  8  1  0  0  0  0
  7  9  1  0  0  0  0
 30 31  1  0  0  0  0
 30 32  1  0  0  0  0
 30 33  1  0  0  0  0
 28 29  1  0  0  0  0
 28 30  1  0  0  0  0
M  END
$$$$
default_name
  -OEChem-02102213163D

 33 32  0     1  0  0  0  0  0999 V2000
   -3.8420   -3.6918    1.5562 H   0  0  0  0  0  0  0  0  0  0  0  0
   -3.8430   -2.7008    1.1032 C   0  0  0  0  0  0  0  0  0  0  0  0
   -4.5510   -2.0608    1.6242 H   0  0  0  0  0  0  0  0  0  0  0  0
   -4.1140   -2.7798    0.0522 H   0  0  0  0  0  0  0  0  0  0  0  0
   -2.4570   -2.1098    1.2172 C   0  0  0  0  0  0  0  0  0  0  0  0
   -1.5600   -2.7438    1.7572 O   0  0  0  0  0  0  0  0  0  0  0  0
   -2.2870   -0.8898    0.7102 N   0  0  0  0  0  0  0  0  0  0  0  0
   -3.0820   -0.4218    0.2992 H   0  0  0  0  0  0  0  0  0  0  0  0
   -1.0240   -0.1468    0.7262 C   0  0  1  0  0  0  0  0  0  0  0  0
   -0.3583   -0.6100    1.4558 H   0  0  0  0  0  0  0  0  0  0  0  0
   -0.3739   -0.2459   -0.6675 C   0  0  0  0  0  0  0  0  0  0  0  0
   -0.4381   -1.2816   -1.0075 H   0  0  0  0  0  0  0  0  0  0  0  0
   -0.9298    0.3778   -1.3689 H   0  0  0  0  0  0  0  0  0  0  0  0
    1.1048    0.1721   -0.6799 C   0  0  0  0  0  0  0  0  0  0  0  0
    1.4117    0.4619    0.3254 H   0  0  0  0  0  0  0  0  0  0  0  0
    1.7135   -0.6716   -1.0103 H   0  0  0  0  0  0  0  0  0  0  0  0
    1.3306    1.3573   -1.6254 C   0  0  0  0  0  0  0  0  0  0  0  0
    1.0205    1.0852   -2.6348 H   0  0  0  0  0  0  0  0  0  0  0  0
    0.7427    2.2105   -1.2857 H   0  0  0  0  0  0  0  0  0  0  0  0
    2.8103    1.7360   -1.6378 C   0  0  0  0  0  0  0  0  0  0  0  0
    3.1176    2.0260   -0.6343 H   0  0  0  0  0  0  0  0  0  0  0  0
    3.4005    0.8796   -1.9598 H   0  0  0  0  0  0  0  0  0  0  0  0
    3.0659    2.8544   -2.5527 N   0  0  0  0  0  0  0  0  0  0  0  0
    4.0480    3.0863   -2.5252 H   0  0  0  0  0  0  0  0  0  0  0  0
    2.8123    2.5795   -3.4910 H   0  0  0  0  0  0  0  0  0  0  0  0
   -1.2712    1.3099    1.1517 C   0  0  0  0  0  0  0  0  0  0  0  0
   -2.2039    1.9448    0.6639 O   0  0  0  0  0  0  0  0  0  0  0  0
   -0.4306    1.8354    2.0503 N   0  0  0  0  0  0  0  0  0  0  0  0
    0.3001    1.2459    2.4139 H   0  0  0  0  0  0  0  0  0  0  0  0
   -0.5192    3.2082    2.5456 C   0  0  0  0  0  0  0  0  0  0  0  0
   -1.5166    3.3903    2.9518 H   0  0  0  0  0  0  0  0  0  0  0  0
    0.2240    3.3791    3.3257 H   0  0  0  0  0  0  0  0  0  0  0  0
   -0.3477    3.9067    1.7239 H   0  0  0  0  0  0  0  0  0  0  0  0
  5  6  2  0  0  0  0
  5  7  1  0  0  0  0
  2  3  1  0  0  0  0
  2  4  1  0  0  0  0
  2  5  1  0  0  0  0
  1  2  1  0  0  0  0
 26 27  2  0  0  0  0
 26 28  1  0  0  0  0
 23 24  1  0  0  0  0
 23 25  1  0  0  0  0
 20 21  1  0  0  0  0
 20 22  1  0  0  0  0
 20 23  1  0  0  0  0
 17 18  1  0  0  0  0
 17 19  1  0  0  0  0
 17 20  1  0  0  0  0
 14 15  1  0  0  0  0
 14 16  1  0  0  0  0
 14 17  1  0  0  0  0
 11 12  1  0  0  0  0
 11 13  1  0  0  0  0
 11 14  1  0  0  0  0
  9 10  1  0  0  0  0
  9 11  1  0  0  0  0
  9 26  1  0  0  0  0
  7  8  1  0  0  0  0
  7  9  1  0  0  0  0
 30 31  1  0  0  0  0
 30 32  1  0  0  0  0
 30 33  1  0  0  0  0
 28 29  1  0  0  0  0
 28 30  1  0  0  0  0
M  END
$$$$
default_name
  -OEChem-02102213163D

 33 32  0     1  0  0  0  0  0999 V2000
   -3.8420   -3.6918    1.5562 H   0  0  0  0  0  0  0  0  0  0  0  0
   -3.8430   -2.7008    1.1032 C   0  0  0  0  0  0  0  0  0  0  0  0
   -4.5510   -2.0608    1.6242 H   0  0  0  0  0  0  0  0  0  0  0  0
   -4.1140   -2.7798    0.0522 H   0  0  0  0  0  0  0  0  0  0  0  0
   -2.4570   -2.1098    1.2172 C   0  0  0  0  0  0  0  0  0  0  0  0
   -1.5600   -2.7438    1.7572 O   0  0  0  0  0  0  0  0  0  0  0  0
   -2.2870   -0.8898    0.7102 N   0  0  0  0  0  0  0  0  0  0  0  0
   -3.0820   -0.4218    0.2992 H   0  0  0  0  0  0  0  0  0  0  0  0
   -1.0240   -0.1468    0.7262 C   0  0  1  0  0  0  0  0  0  0  0  0
   -0.3583   -0.6100    1.4558 H   0  0  0  0  0  0  0  0  0  0  0  0
   -0.3739   -0.2459   -0.6675 C   0  0  0  0  0  0  0  0  0  0  0  0
   -0.4381   -1.2816   -1.0075 H   0  0  0  0  0  0  0  0  0  0  0  0
   -0.9298    0.3778   -1.3689 H   0  0  0  0  0  0  0  0  0  0  0  0
    1.1048    0.1721   -0.6799 C   0  0  0  0  0  0  0  0  0  0  0  0
    1.4846    0.2044    0.3416 H   0  0  0  0  0  0  0  0  0  0  0  0
    1.6795   -0.5585   -1.2521 H   0  0  0  0  0  0  0  0  0  0  0  0
    1.2767    1.5570   -1.3141 C   0  0  0  0  0  0  0  0  0  0  0  0
    0.8937    1.5428   -2.3349 H   0  0  0  0  0  0  0  0  0  0  0  0
    0.7236    2.2946   -0.7320 H   0  0  0  0  0  0  0  0  0  0  0  0
    2.7560    1.9369   -1.3363 C   0  0  0  0  0  0  0  0  0  0  0  0
    3.1362    1.9698   -0.3165 H   0  0  0  0  0  0  0  0  0  0  0  0
    3.3127    1.1918   -1.9023 H   0  0  0  0  0  0  0  0  0  0  0  0
    2.9592    3.2497   -1.9597 N   0  0  0  0  0  0  0  0  0  0  0  0
    3.9432    3.4741   -1.9448 H   0  0  0  0  0  0  0  0  0  0  0  0
    2.6373    3.2155   -2.9165 H   0  0  0  0  0  0  0  0  0  0  0  0
   -1.2712    1.3099    1.1517 C   0  0  0  0  0  0  0  0  0  0  0  0
   -2.2039    1.9448    0.6639 O   0  0  0  0  0  0  0  0  0  0  0  0
   -0.4306    1.8354    2.0503 N   0  0  0  0  0  0  0  0  0  0  0  0
    0.3001    1.2459    2.4139 H   0  0  0  0  0  0  0  0  0  0  0  0
   -0.5192    3.2082    2.5456 C   0  0  0  0  0  0  0  0  0  0  0  0
   -1.5166    3.3903    2.9518 H   0  0  0  0  0  0  0  0  0  0  0  0
    0.2240    3.3791    3.3257 H   0  0  0  0  0  0  0  0  0  0  0  0
   -0.3477    3.9067    1.7239 H   0  0  0  0  0  0  0  0  0  0  0  0
  5  6  2  0  0  0  0
  5  7  1  0  0  0  0
  2  3  1  0  0  0  0
  2  4  1  0  0  0  0
  2  5  1  0  0  0  0
  1  2  1  0  0  0  0
 26 27  2  0  0  0  0
 26 28  1  0  0  0  0
 23 24  1  0  0  0  0
 23 25  1  0  0  0  0
 20 21  1  0  0  0  0
 20 22  1  0  0  0  0
 20 23  1  0  0  0  0
 17 18  1  0  0  0  0
 17 19  1  0  0  0  0
 17 20  1  0  0  0  0
 14 15  1  0  0  0  0
 14 16  1  0  0  0  0
 14 17  1  0  0  0  0
 11 12  1  0  0  0  0
 11 13  1  0  0  0  0
 11 14  1  0  0  0  0
  9 10  1  0  0  0  0
  9 11  1  0  0  0  0
  9 26  1  0  0  0  0
  7  8  1  0  0  0  0
  7  9  1  0  0  0  0
 30 31  1  0  0  0  0
 30 32  1  0  0  0  0
 30 33  1  0  0  0  0
 28 29  1  0  0  0  0
 28 30  1  0  0  0  0
M  END
$$$$
default_name
  -OEChem-02102213163D

 33 32  0     1  0  0  0  0  0999 V2000
   -3.8420   -3.6918    1.5562 H   0  0  0  0  0  0  0  0  0  0  0  0
   -3.8430   -2.7008    1.1032 C   0  0  0  0  0  0  0  0  0  0  0  0
   -4.5510   -2.0608    1.6242 H   0  0  0  0  0  0  0  0  0  0  0  0
   -4.1140   -2.7798    0.0522 H   0  0  0  0  0  0  0  0  0  0  0  0
   -2.4570   -2.1098    1.2172 C   0  0  0  0  0  0  0  0  0  0  0  0
   -1.5600   -2.7438    1.7572 O   0  0  0  0  0  0  0  0  0  0  0  0
   -2.2870   -0.8898    0.7102 N   0  0  0  0  0  0  0  0  0  0  0  0
   -3.0820   -0.4218    0.2992 H   0  0  0  0  0  0  0  0  0  0  0  0
   -1.0240   -0.1468    0.7262 C   0  0  1  0  0  0  0  0  0  0  0  0
   -0.3583   -0.6100    1.4558 H   0  0  0  0  0  0  0  0  0  0  0  0
   -0.3739   -0.2459   -0.6675 C   0  0  0  0  0  0  0  0  0  0  0  0
   -0.4381   -1.2816   -1.0075 H   0  0  0  0  0  0  0  0  0  0  0  0
   -0.9298    0.3778   -1.3689 H   0  0  0  0  0  0  0  0  0  0  0  0
    1.1048    0.1721   -0.6799 C   0  0  0  0  0  0  0  0  0  0  0  0
    1.5557   -0.0486    0.2880 H   0  0  0  0  0  0  0  0  0  0  0  0
    1.6299   -0.3890   -1.4551 H   0  0  0  0  0  0  0  0  0  0  0  0
    1.2471    1.6725   -0.9598 C   0  0  0  0  0  0  0  0  0  0  0  0
    0.7933    1.9104   -1.9223 H   0  0  0  0  0  0  0  0  0  0  0  0
    0.7442    2.2380   -0.1748 H   0  0  0  0  0  0  0  0  0  0  0  0
    2.7253    2.0560   -0.9912 C   0  0  0  0  0  0  0  0  0  0  0  0
    3.1763    1.8365   -0.0249 H   0  0  0  0  0  0  0  0  0  0  0  0
    3.2327    1.4792   -1.7628 H   0  0  0  0  0  0  0  0  0  0  0  0
    2.8986    3.4841   -1.2809 N   0  0  0  0  0  0  0  0  0  0  0  0
    3.8837    3.7044   -1.2801 H   0  0  0  0  0  0  0  0  0  0  0  0
    2.5101    3.6871   -2.1909 H   0  0  0  0  0  0  0  0  0  0  0  0
   -1.2712    1.3099    1.1517 C   0  0  0  0  0  0  0  0  0  0  0  0
   -2.2039    1.9448    0.6639 O   0  0  0  0  0  0  0  0  0  0  0  0
   -0.4306    1.8354    2.0503 N   0  0  0  0  0  0  0  0  0  0  0  0
    0.3001    1.2459    2.4139 H   0  0  0  0  0  0  0  0  0  0  0  0
   -0.5192    3.2082    2.5456 C   0  0  0  0  0  0  0  0  0  0  0  0
   -1.5166    3.3903    2.9518 H   0  0  0  0  0  0  0  0  0  0  0  0
    0.2240    3.3791    3.3257 H   0  0  0  0  0  0  0  0  0  0  0  0
   -0.3477    3.9067    1.7239 H   0  0  0  0  0  0  0  0  0  0  0  0
  5  6  2  0  0  0  0
  5  7  1  0  0  0  0
  2  3  1  0  0  0  0
  2  4  1  0  0  0  0
  2  5  1  0  0  0  0
  1  2  1  0  0  0  0
 26 27  2  0  0  0  0
 26 28  1  0  0  0  0
 23 24  1  0  0  0  0
 23 25  1  0  0  0  0
 20 21  1  0  0  0  0
 20 22  1  0  0  0  0
 20 23  1  0  0  0  0
 17 18  1  0  0  0  0
 17 19  1  0  0  0  0
 17 20  1  0  0  0  0
 14 15  1  0  0  0  0
 14 16  1  0  0  0  0
 14 17  1  0  0  0  0
 11 12  1  0  0  0  0
 11 13  1  0  0  0  0
 11 14  1  0  0  0  0
  9 10  1  0  0  0  0
  9 11  1  0  0  0  0
  9 26  1  0  0  0  0
  7  8  1  0  0  0  0
  7  9  1  0  0  0  0
 30 31  1  0  0  0  0
 30 32  1  0  0  0  0
 30 33  1  0  0  0  0
 28 29  1  0  0  0  0
 28 30  1  0  0  0  0
M  END
$$$$
default_name
  -OEChem-02102213163D

 33 32  0     1  0  0  0  0  0999 V2000
   -3.8420   -3.6918    1.5562 H   0  0  0  0  0  0  0  0  0  0  0  0
   -3.8430   -2.7008    1.1032 C   0  0  0  0  0  0  0  0  0  0  0  0
   -4.5510   -2.0608    1.6242 H   0  0  0  0  0  0  0  0  0  0  0  0
   -4.1140   -2.7798    0.0522 H   0  0  0  0  0  0  0  0  0  0  0  0
   -2.4570   -2.1098    1.2172 C   0  0  0  0  0  0  0  0  0  0  0  0
   -1.5600   -2.7438    1.7572 O   0  0  0  0  0  0  0  0  0  0  0  0
   -2.2870   -0.8898    0.7102 N   0  0  0  0  0  0  0  0  0  0  0  0
   -3.0820   -0.4218    0.2992 H   0  0  0  0  0  0  0  0  0  0  0  0
   -1.0240   -0.1468    0.7262 C   0  0  1  0  0  0  0  0  0  0  0  0
   -0.3583   -0.6100    1.4558 H   0  0  0  0  0  0  0  0  0  0  0  0
   -0.3739   -0.2459   -0.6675 C   0  0  0  0  0  0  0  0  0  0  0  0
   -0.4381   -1.2816   -1.0075 H   0  0  0  0  0  0  0  0  0  0  0  0
   -0.9298    0.3778   -1.3689 H   0  0  0  0  0  0  0  0  0  0  0  0
    1.1048    0.1721   -0.6799 C   0  0  0  0  0  0  0  0  0  0  0  0
    1.6200   -0.2796    0.1682 H   0  0  0  0  0  0  0  0  0  0  0  0
    1.5680   -0.1746   -1.6055 H   0  0  0  0  0  0  0  0  0  0  0  0
    1.2436    1.6958   -0.5868 C   0  0  0  0  0  0  0  0  0  0  0  0
    0.7261    2.1629   -1.4252 H   0  0  0  0  0  0  0  0  0  0  0  0
    0.8033    2.0445    0.3478 H   0  0  0  0  0  0  0  0  0  0  0  0
    2.7201    2.0852   -0.6261 C   0  0  0  0  0  0  0  0  0  0  0  0
    3.2354    1.6349    0.2208 H   0  0  0  0  0  0  0  0  0  0  0  0
    3.1657    1.7222   -1.5508 H   0  0  0  0  0  0  0  0  0  0  0  0
    2.8884    3.5415   -0.5625 N   0  0  0  0  0  0  0  0  0  0  0  0
    3.8735    3.7614   -0.5766 H   0  0  0  0  0  0  0  0  0  0  0  0
    2.4393    3.9622   -1.3636 H   0  0  0  0  0  0  0  0  0  0  0  0
   -1.2712    1.3099    1.1517 C   0  0  0  0  0  0  0  0  0  0  0  0
   -2.2039    1.9448    0.6639 O   0  0  0  0  0  0  0  0  0  0  0  0
   -0.4306    1.8354    2.0503 N   0  0  0  0  0  0  0  0  0  0  0  0
    0.3001    1.2459    2.4139 H   0  0  0  0  0  0  0  0  0  0  0  0
   -0.5192    3.2082    2.5456 C   0  0  0  0  0  0  0  0  0  0  0  0
   -1.5166    3.3903    2.9518 H   0  0  0  0  0  0  0  0  0  0  0  0
    0.2240    3.3791    3.3257 H   0  0  0  0  0  0  0  0  0  0  0  0
   -0.3477    3.9067    1.7239 H   0  0  0  0  0  0  0  0  0  0  0  0
  5  6  2  0  0  0  0
  5  7  1  0  0  0  0
  2  3  1  0  0  0  0
  2  4  1  0  0  0  0
  2  5  1  0  0  0  0
  1  2  1  0  0  0  0
 26 27  2  0  0  0  0
 26 28  1  0  0  0  0
 23 24  1  0  0  0  0
 23 25  1  0  0  0  0
 20 21  1  0  0  0  0
 20 22  1  0  0  0  0
 20 23  1  0  0  0  0
 17 18  1  0  0  0  0
 17 19  1  0  0  0  0
 17 20  1  0  0  0  0
 14 15  1  0  0  0  0
 14 16  1  0  0  0  0
 14 17  1  0  0  0  0
 11 12  1  0  0  0  0
 11 13  1  0  0  0  0
 11 14  1  0  0  0  0
  9 10  1  0  0  0  0
  9 11  1  0  0  0  0
  9 26  1  0  0  0  0
  7  8  1  0  0  0  0
  7  9  1  0  0  0  0
 30 31  1  0  0  0  0
 30 32  1  0  0  0  0
 30 33  1  0  0  0  0
 28 29  1  0  0  0  0
 28 30  1  0  0  0  0
M  END
$$$$
default_name
  -OEChem-02102213163D

 33 32  0     1  0  0  0  0  0999 V2000
   -3.8420   -3.6918    1.5562 H   0  0  0  0  0  0  0  0  0  0  0  0
   -3.8430   -2.7008    1.1032 C   0  0  0  0  0  0  0  0  0  0  0  0
   -4.5510   -2.0608    1.6242 H   0  0  0  0  0  0  0  0  0  0  0  0
   -4.1140   -2.7798    0.0522 H   0  0  0  0  0  0  0  0  0  0  0  0
   -2.4570   -2.1098    1.2172 C   0  0  0  0  0  0  0  0  0  0  0  0
   -1.5600   -2.7438    1.7572 O   0  0  0  0  0  0  0  0  0  0  0  0
   -2.2870   -0.8898    0.7102 N   0  0  0  0  0  0  0  0  0  0  0  0
   -3.0820   -0.4218    0.2992 H   0  0  0  0  0  0  0  0  0  0  0  0
   -1.0240   -0.1468    0.7262 C   0  0  1  0  0  0  0  0  0  0  0  0
   -0.3583   -0.6100    1.4558 H   0  0  0  0  0  0  0  0  0  0  0  0
   -0.3739   -0.2459   -0.6675 C   0  0  0  0  0  0  0  0  0  0  0  0
   -0.4381   -1.2816   -1.0075 H   0  0  0  0  0  0  0  0  0  0  0  0
   -0.9298    0.3778   -1.3689 H   0  0  0  0  0  0  0  0  0  0  0  0
    1.1048    0.1721   -0.6799 C   0  0  0  0  0  0  0  0  0  0  0  0
    1.6732   -0.4732   -0.0096 H   0  0  0  0  0  0  0  0  0  0  0  0
    1.4981    0.0701   -1.6930 H   0  0  0  0  0  0  0  0  0  0  0  0
    1.2666    1.6255   -0.2204 C   0  0  0  0  0  0  0  0  0  0  0  0
    0.6967    2.2832   -0.8773 H   0  0  0  0  0  0  0  0  0  0  0  0
    0.8968    1.7274    0.8003 H   0  0  0  0  0  0  0  0  0  0  0  0
    2.7409    2.0224   -0.2658 C   0  0  0  0  0  0  0  0  0  0  0  0
    3.3093    1.3789    0.4037 H   0  0  0  0  0  0  0  0  0  0  0  0
    3.1165    1.9043   -1.2808 H   0  0  0  0  0  0  0  0  0  0  0  0
    2.9293    3.4181    0.1463 N   0  0  0  0  0  0  0  0  0  0  0  0
    3.9133    3.6413    0.1179 H   0  0  0  0  0  0  0  0  0  0  0  0
    2.4297    4.0220   -0.4909 H   0  0  0  0  0  0  0  0  0  0  0  0
   -1.2712    1.3099    1.1517 C   0  0  0  0  0  0  0  0  0  0  0  0
   -2.2039    1.9448    0.6639 O   0  0  0  0  0  0  0  0  0  0  0  0
   -0.4306    1.8354    2.0503 N   0  0  0  0  0  0  0  0  0  0  0  0
    0.3001    1.2459    2.4139 H   0  0  0  0  0  0  0  0  0  0  0  0
   -0.5192    3.2082    2.5456 C   0  0  0  0  0  0  0  0  0  0  0  0
   -1.5166    3.3903    2.9518 H   0  0  0  0  0  0  0  0  0  0  0  0
    0.2240    3.3791    3.3257 H   0  0  0  0  0  0  0  0  0  0  0  0
   -0.3477    3.9067    1.7239 H   0  0  0  0  0  0  0  0  0  0  0  0
  5  6  2  0  0  0  0
  5  7  1  0  0  0  0
  2  3  1  0  0  0  0
  2  4  1  0  0  0  0
  2  5  1  0  0  0  0
  1  2  1  0  0  0  0
 26 27  2  0  0  0  0
 26 28  1  0  0  0  0
 23 24  1  0  0  0  0
 23 25  1  0  0  0  0
 20 21  1  0  0  0  0
 20 22  1  0  0  0  0
 20 23  1  0  0  0  0
 17 18  1  0  0  0  0
 17 19  1  0  0  0  0
 17 20  1  0  0  0  0
 14 15  1  0  0  0  0
 14 16  1  0  0  0  0
 14 17  1  0  0  0  0
 11 12  1  0  0  0  0
 11 13  1  0  0  0  0
 11 14  1  0  0  0  0
  9 10  1  0  0  0  0
  9 11  1  0  0  0  0
  9 26  1  0  0  0  0
  7  8  1  0  0  0  0
  7  9  1  0  0  0  0
 30 31  1  0  0  0  0
 30 32  1  0  0  0  0
 30 33  1  0  0  0  0
 28 29  1  0  0  0  0
 28 30  1  0  0  0  0
M  END
$$$$
default_name
  -OEChem-02102213163D

 33 32  0     1  0  0  0  0  0999 V2000
   -3.8420   -3.6918    1.5562 H   0  0  0  0  0  0  0  0  0  0  0  0
   -3.8430   -2.7008    1.1032 C   0  0  0  0  0  0  0  0  0  0  0  0
   -4.5510   -2.0608    1.6242 H   0  0  0  0  0  0  0  0  0  0  0  0
   -4.1140   -2.7798    0.0522 H   0  0  0  0  0  0  0  0  0  0  0  0
   -2.4570   -2.1098    1.2172 C   0  0  0  0  0  0  0  0  0  0  0  0
   -1.5600   -2.7438    1.7572 O   0  0  0  0  0  0  0  0  0  0  0  0
   -2.2870   -0.8898    0.7102 N   0  0  0  0  0  0  0  0  0  0  0  0
   -3.0820   -0.4218    0.2992 H   0  0  0  0  0  0  0  0  0  0  0  0
   -1.0240   -0.1468    0.7262 C   0  0  1  0  0  0  0  0  0  0  0  0
   -0.3583   -0.6100    1.4558 H   0  0  0  0  0  0  0  0  0  0  0  0
   -0.3739   -0.2459   -0.6675 C   0  0  0  0  0  0  0  0  0  0  0  0
   -0.4381   -1.2816   -1.0075 H   0  0  0  0  0  0  0  0  0  0  0  0
   -0.9298    0.3778   -1.3689 H   0  0  0  0  0  0  0  0  0  0  0  0
    1.1048    0.1721   -0.6799 C   0  0  0  0  0  0  0  0  0  0  0  0
    1.7117   -0.6159   -0.2332 H   0  0  0  0  0  0  0  0  0  0  0  0
    1.4249    0.3284   -1.7117 H   0  0  0  0  0  0  0  0  0  0  0  0
    1.3144    1.4662    0.1144 C   0  0  0  0  0  0  0  0  0  0  0  0
    0.7071    2.2630   -0.3162 H   0  0  0  0  0  0  0  0  0  0  0  0
    1.0183    1.3081    1.1518 H   0  0  0  0  0  0  0  0  0  0  0  0
    2.7862    1.8720    0.0652 C   0  0  0  0  0  0  0  0  0  0  0  0
    3.3930    1.0859    0.5115 H   0  0  0  0  0  0  0  0  0  0  0  0
    3.0884    2.0131   -0.9712 H   0  0  0  0  0  0  0  0  0  0  0  0
    3.0184    3.1223    0.7974 N   0  0  0  0  0  0  0  0  0  0  0  0
    4.0004    3.3523    0.7560 H   0  0  0  0  0  0  0  0  0  0  0  0
    2.4821    3.8625    0.3676 H   0  0  0  0  0  0  0  0  0  0  0  0
   -1.2712    1.3099    1.1517 C   0  0  0  0  0  0  0  0  0  0  0  0
   -2.2039    1.9448    0.6639 O   0  0  0  0  0  0  0  0  0  0  0  0
   -0.4306    1.8354    2.0503 N   0  0  0  0  0  0  0  0  0  0  0  0
    0.3001    1.2459    2.4139 H   0  0  0  0  0  0  0  0  0  0  0  0
   -0.5192    3.2082    2.5456 C   0  0  0  0  0  0  0  0  0  0  0  0
   -1.5166    3.3903    2.9518 H   0  0  0  0  0  0  0  0  0  0  0  0
    0.2240    3.3791    3.3257 H   0  0  0  0  0  0  0  0  0  0  0  0
   -0.3477    3.9067    1.7239 H   0  0  0  0  0  0  0  0  0  0  0  0
  5  6  2  0  0  0  0
  5  7  1  0  0  0  0
  2  3  1  0  0  0  0
  2  4  1  0  0  0  0
  2  5  1  0  0  0  0
  1  2  1  0  0  0  0
 26 27  2  0  0  0  0
 26 28  1  0  0  0  0
 23 24  1  0  0  0  0
 23 25  1  0  0  0  0
 20 21  1  0  0  0  0
 20 22  1  0  0  0  0
 20 23  1  0  0  0  0
 17 18  1  0  0  0  0
 17 19  1  0  0  0  0
 17 20  1  0  0  0  0
 14 15  1  0  0  0  0
 14 16  1  0  0  0  0
 14 17  1  0  0  0  0
 11 12  1  0  0  0  0
 11 13  1  0  0  0  0
 11 14  1  0  0  0  0
  9 10  1  0  0  0  0
  9 11  1  0  0  0  0
  9 26  1  0  0  0  0
  7  8  1  0  0  0  0
  7  9  1  0  0  0  0
 30 31  1  0  0  0  0
 30 32  1  0  0  0  0
 30 33  1  0  0  0  0
 28 29  1  0  0  0  0
 28 30  1  0  0  0  0
M  END
$$$$
default_name
  -OEChem-02102213163D

 33 32  0     1  0  0  0  0  0999 V2000
   -3.8420   -3.6918    1.5562 H   0  0  0  0  0  0  0  0  0  0  0  0
   -3.8430   -2.7008    1.1032 C   0  0  0  0  0  0  0  0  0  0  0  0
   -4.5510   -2.0608    1.6242 H   0  0  0  0  0  0  0  0  0  0  0  0
   -4.1140   -2.7798    0.0522 H   0  0  0  0  0  0  0  0  0  0  0  0
   -2.4570   -2.1098    1.2172 C   0  0  0  0  0  0  0  0  0  0  0  0
   -1.5600   -2.7438    1.7572 O   0  0  0  0  0  0  0  0  0  0  0  0
   -2.2870   -0.8898    0.7102 N   0  0  0  0  0  0  0  0  0  0  0  0
   -3.0820   -0.4218    0.2992 H   0  0  0  0  0  0  0  0  0  0  0  0
   -1.0240   -0.1468    0.7262 C   0  0  1  0  0  0  0  0  0  0  0  0
   -0.3583   -0.6100    1.4558 H   0  0  0  0  0  0  0  0  0  0  0  0
   -0.3739   -0.2459   -0.6675 C   0  0  0  0  0  0  0  0  0  0  0  0
   -0.4381   -1.2816   -1.0075 H   0  0  0  0  0  0  0  0  0  0  0  0
   -0.9298    0.3778   -1.3689 H   0  0  0  0  0  0  0  0  0  0  0  0
    1.1048    0.1721   -0.6799 C   0  0  0  0  0  0  0  0  0  0  0  0
    1.7328   -0.6982   -0.4875 H   0  0  0  0  0  0  0  0  0  0  0  0
    1.3535    0.5827   -1.6602 H   0  0  0  0  0  0  0  0  0  0  0  0
    1.3839    1.2289    0.3947 C   0  0  0  0  0  0  0  0  0  0  0  0
    0.7567    2.1037    0.2201 H   0  0  0  0  0  0  0  0  0  0  0  0
    1.1595    0.8153    1.3783 H   0  0  0  0  0  0  0  0  0  0  0  0
    2.8529    1.6442    0.3442 C   0  0  0  0  0  0  0  0  0  0  0  0
    3.4809    0.7758    0.5367 H   0  0  0  0  0  0  0  0  0  0  0  0
    3.0832    2.0411   -0.6431 H   0  0  0  0  0  0  0  0  0  0  0  0
    3.1497    2.6742    1.3464 N   0  0  0  0  0  0  0  0  0  0  0  0
    4.1288    2.9140    1.2942 H   0  0  0  0  0  0  0  0  0  0  0  0
    2.5927    3.4945    1.1534 H   0  0  0  0  0  0  0  0  0  0  0  0
   -1.2712    1.3099    1.1517 C   0  0  0  0  0  0  0  0  0  0  0  0
   -2.2039    1.9448    0.6639 O   0  0  0  0  0  0  0  0  0  0  0  0
   -0.4306    1.8354    2.0503 N   0  0  0  0  0  0  0  0  0  0  0  0
    0.3001    1.2459    2.4139 H   0  0  0  0  0  0  0  0  0  0  0  0
   -0.5192    3.2082    2.5456 C   0  0  0  0  0  0  0  0  0  0  0  0
   -1.5166    3.3903    2.9518 H   0  0  0  0  0  0  0  0  0  0  0  0
    0.2240    3.3791    3.3257 H   0  0  0  0  0  0  0  0  0  0  0  0
   -0.3477    3.9067    1.7239 H   0  0  0  0  0  0  0  0  0  0  0  0
  5  6  2  0  0  0  0
  5  7  1  0  0  0  0
  2  3  1  0  0  0  0
  2  4  1  0  0  0  0
  2  5  1  0  0  0  0
  1  2  1  0  0  0  0
 26 27  2  0  0  0  0
 26 28  1  0  0  0  0
 23 24  1  0  0  0  0
 23 25  1  0  0  0  0
 20 21  1  0  0  0  0
 20 22  1  0  0  0  0
 20 23  1  0  0  0  0
 17 18  1  0  0  0  0
 17 19  1  0  0  0  0
 17 20  1  0  0  0  0
 14 15  1  0  0  0  0
 14 16  1  0  0  0  0
 14 17  1  0  0  0  0
 11 12  1  0  0  0  0
 11 13  1  0  0  0  0
 11 14  1  0  0  0  0
  9 10  1  0  0  0  0
  9 11  1  0  0  0  0
  9 26  1  0  0  0  0
  7  8  1  0  0  0  0
  7  9  1  0  0  0  0
 30 31  1  0  0  0  0
 30 32  1  0  0  0  0
 30 33  1  0  0  0  0
 28 29  1  0  0  0  0
 28 30  1  0  0  0  0
M  END
$$$$
default_name
  -OEChem-02102213163D

 33 32  0     1  0  0  0  0  0999 V2000
   -3.8420   -3.6918    1.5562 H   0  0  0  0  0  0  0  0  0  0  0  0
   -3.8430   -2.7008    1.1032 C   0  0  0  0  0  0  0  0  0  0  0  0
   -4.5510   -2.0608    1.6242 H   0  0  0  0  0  0  0  0  0  0  0  0
   -4.1140   -2.7798    0.0522 H   0  0  0  0  0  0  0  0  0  0  0  0
   -2.4570   -2.1098    1.2172 C   0  0  0  0  0  0  0  0  0  0  0  0
   -1.5600   -2.7438    1.7572 O   0  0  0  0  0  0  0  0  0  0  0  0
   -2.2870   -0.8898    0.7102 N   0  0  0  0  0  0  0  0  0  0  0  0
   -3.0820   -0.4218    0.2992 H   0  0  0  0  0  0  0  0  0  0  0  0
   -1.0240   -0.1468    0.7262 C   0  0  1  0  0  0  0  0  0  0  0  0
   -0.3583   -0.6100    1.4558 H   0  0  0  0  0  0  0  0  0  0  0  0
   -0.3739   -0.2459   -0.6675 C   0  0  0  0  0  0  0  0  0  0  0  0
   -0.4381   -1.2816   -1.0075 H   0  0  0  0  0  0  0  0  0  0  0  0
   -0.9298    0.3778   -1.3689 H   0  0  0  0  0  0  0  0  0  0  0  0
    1.1048    0.1721   -0.6799 C   0  0  0  0  0  0  0  0  0  0  0  0
    1.7351   -0.7144   -0.7552 H   0  0  0  0  0  0  0  0  0  0  0  0
    1.2886    0.8156   -1.5422 H   0  0  0  0  0  0  0  0  0  0  0  0
    1.4702    0.9298    0.6015 C   0  0  0  0  0  0  0  0  0  0  0  0
    0.8419    1.8161    0.6950 H   0  0  0  0  0  0  0  0  0  0  0  0
    1.3108    0.2826    1.4645 H   0  0  0  0  0  0  0  0  0  0  0  0
    2.9366    1.3546    0.5523 C   0  0  0  0  0  0  0  0  0  0  0  0
    3.5669    0.4699    0.4777 H   0  0  0  0  0  0  0  0  0  0  0  0
    3.1014    1.9865   -0.3189 H   0  0  0  0  0  0  0  0  0  0  0  0
    3.3142    2.1044    1.7558 N   0  0  0  0  0  0  0  0  0  0  0  0
    4.2899    2.3563    1.6959 H   0  0  0  0  0  0  0  0  0  0  0  0
    2.7541    2.9431    1.8130 H   0  0  0  0  0  0  0  0  0  0  0  0
   -1.2712    1.3099    1.1517 C   0  0  0  0  0  0  0  0  0  0  0  0
   -2.2039    1.9448    0.6639 O   0  0  0  0  0  0  0  0  0  0  0  0
   -0.4306    1.8354    2.0503 N   0  0  0  0  0  0  0  0  0  0  0  0
    0.3001    1.2459    2.4139 H   0  0  0  0  0  0  0  0  0  0  0  0
   -0.5192    3.2082    2.5456 C   0  0  0  0  0  0  0  0  0  0  0  0
   -1.5166    3.3903    2.9518 H   0  0  0  0  0  0  0  0  0  0  0  0
    0.2240    3.3791    3.3257 H   0  0  0  0  0  0  0  0  0  0  0  0
   -0.3477    3.9067    1.7239 H   0  0  0  0  0  0  0  0  0  0  0  0
  5  6  2  0  0  0  0
  5  7  1  0  0  0  0
  2  3  1  0  0  0  0
  2  4  1  0  0  0  0
  2  5  1  0  0  0  0
  1  2  1  0  0  0  0
 26 27  2  0  0  0  0
 26 28  1  0  0  0  0
 23 24  1  0  0  0  0
 23 25  1  0  0  0  0
 20 21  1  0  0  0  0
 20 22  1  0  0  0  0
 20 23  1  0  0  0  0
 17 18  1  0  0  0  0
 17 19  1  0  0  0  0
 17 20  1  0  0  0  0
 14 15  1  0  0  0  0
 14 16  1  0  0  0  0
 14 17  1  0  0  0  0
 11 12  1  0  0  0  0
 11 13  1  0  0  0  0
 11 14  1  0  0  0  0
  9 10  1  0  0  0  0
  9 11  1  0  0  0  0
  9 26  1  0  0  0  0
  7  8  1  0  0  0  0
  7  9  1  0  0  0  0
 30 31  1  0  0  0  0
 30 32  1  0  0  0  0
 30 33  1  0  0  0  0
 28 29  1  0  0  0  0
 28 30  1  0  0  0  0
M  END
$$$$
default_name
  -OEChem-02102213163D

 33 32  0     1  0  0  0  0  0999 V2000
   -3.8420   -3.6918    1.5562 H   0  0  0  0  0  0  0  0  0  0  0  0
   -3.8430   -2.7008    1.1032 C   0  0  0  0  0  0  0  0  0  0  0  0
   -4.5510   -2.0608    1.6242 H   0  0  0  0  0  0  0  0  0  0  0  0
   -4.1140   -2.7798    0.0522 H   0  0  0  0  0  0  0  0  0  0  0  0
   -2.4570   -2.1098    1.2172 C   0  0  0  0  0  0  0  0  0  0  0  0
   -1.5600   -2.7438    1.7572 O   0  0  0  0  0  0  0  0  0  0  0  0
   -2.2870   -0.8898    0.7102 N   0  0  0  0  0  0  0  0  0  0  0  0
   -3.0820   -0.4218    0.2992 H   0  0  0  0  0  0  0  0  0  0  0  0
   -1.0240   -0.1468    0.7262 C   0  0  1  0  0  0  0  0  0  0  0  0
   -0.3583   -0.6100    1.4558 H   0  0  0  0  0  0  0  0  0  0  0  0
   -0.3739   -0.2459   -0.6675 C   0  0  0  0  0  0  0  0  0  0  0  0
   -0.4381   -1.2816   -1.0075 H   0  0  0  0  0  0  0  0  0  0  0  0
   -0.9298    0.3778   -1.3689 H   0  0  0  0  0  0  0  0  0  0  0  0
    1.1048    0.1721   -0.6799 C   0  0  0  0  0  0  0  0  0  0  0  0
    1.7185   -0.6634   -1.0179 H   0  0  0  0  0  0  0  0  0  0  0  0
    1.2348    1.0114   -1.3656 H   0  0  0  0  0  0  0  0  0  0  0  0
    1.5675    0.5891    0.7207 C   0  0  0  0  0  0  0  0  0  0  0  0
    0.9571    1.4199    1.0760 H   0  0  0  0  0  0  0  0  0  0  0  0
    1.4619   -0.2537    1.4044 H   0  0  0  0  0  0  0  0  0  0  0  0
    3.0314    1.0228    0.6753 C   0  0  0  0  0  0  0  0  0  0  0  0
    3.6451    0.1889    0.3384 H   0  0  0  0  0  0  0  0  0  0  0  0
    3.1417    1.8529   -0.0205 H   0  0  0  0  0  0  0  0  0  0  0  0
    3.5007    1.4517    1.9978 N   0  0  0  0  0  0  0  0  0  0  0  0
    4.4725    1.7172    1.9337 H   0  0  0  0  0  0  0  0  0  0  0  0
    2.9553    2.2459    2.3014 H   0  0  0  0  0  0  0  0  0  0  0  0
   -1.2712    1.3099    1.1517 C   0  0  0  0  0  0  0  0  0  0  0  0
   -2.2039    1.9448    0.6639 O   0  0  0  0  0  0  0  0  0  0  0  0
   -0.4306    1.8354    2.0503 N   0  0  0  0  0  0  0  0  0  0  0  0
    0.3001    1.2459    2.4139 H   0  0  0  0  0  0  0  0  0  0  0  0
   -0.5192    3.2082    2.5456 C   0  0  0  0  0  0  0  0  0  0  0  0
   -1.5166    3.3903    2.9518 H   0  0  0  0  0  0  0  0  0  0  0  0
    0.2240    3.3791    3.3257 H   0  0  0  0  0  0  0  0  0  0  0  0
   -0.3477    3.9067    1.7239 H   0  0  0  0  0  0  0  0  0  0  0  0
  5  6  2  0  0  0  0
  5  7  1  0  0  0  0
  2  3  1  0  0  0  0
  2  4  1  0  0  0  0
  2  5  1  0  0  0  0
  1  2  1  0  0  0  0
 26 27  2  0  0  0  0
 26 28  1  0  0  0  0
 23 24  1  0  0  0  0
 23 25  1  0  0  0  0
 20 21  1  0  0  0  0
 20 22  1  0  0  0  0
 20 23  1  0  0  0  0
 17 18  1  0  0  0  0
 17 19  1  0  0  0  0
 17 20  1  0  0  0  0
 14 15  1  0  0  0  0
 14 16  1  0  0  0  0
 14 17  1  0  0  0  0
 11 12  1  0  0  0  0
 11 13  1  0  0  0  0
 11 14  1  0  0  0  0
  9 10  1  0  0  0  0
  9 11  1  0  0  0  0
  9 26  1  0  0  0  0
  7  8  1  0  0  0  0
  7  9  1  0  0  0  0
 30 31  1  0  0  0  0
 30 32  1  0  0  0  0
 30 33  1  0  0  0  0
 28 29  1  0  0  0  0
 28 30  1  0  0  0  0
M  END
$$$$
default_name
  -OEChem-02102213163D

 33 32  0     1  0  0  0  0  0999 V2000
   -3.8420   -3.6918    1.5562 H   0  0  0  0  0  0  0  0  0  0  0  0
   -3.8430   -2.7008    1.1032 C   0  0  0  0  0  0  0  0  0  0  0  0
   -4.5510   -2.0608    1.6242 H   0  0  0  0  0  0  0  0  0  0  0  0
   -4.1140   -2.7798    0.0522 H   0  0  0  0  0  0  0  0  0  0  0  0
   -2.4570   -2.1098    1.2172 C   0  0  0  0  0  0  0  0  0  0  0  0
   -1.5600   -2.7438    1.7572 O   0  0  0  0  0  0  0  0  0  0  0  0
   -2.2870   -0.8898    0.7102 N   0  0  0  0  0  0  0  0  0  0  0  0
   -3.0820   -0.4218    0.2992 H   0  0  0  0  0  0  0  0  0  0  0  0
   -1.0240   -0.1468    0.7262 C   0  0  1  0  0  0  0  0  0  0  0  0
   -0.3583   -0.6100    1.4558 H   0  0  0  0  0  0  0  0  0  0  0  0
   -0.3739   -0.2459   -0.6675 C   0  0  0  0  0  0  0  0  0  0  0  0
   -0.4381   -1.2816   -1.0075 H   0  0  0  0  0  0  0  0  0  0  0  0
   -0.9298    0.3778   -1.3689 H   0  0  0  0  0  0  0  0  0  0  0  0
    1.1048    0.1721   -0.6799 C   0  0  0  0  0  0  0  0  0  0  0  0
    1.6840   -0.5487   -1.2577 H   0  0  0  0  0  0  0  0  0  0  0  0
    1.1956    1.1566   -1.1424 H   0  0  0  0  0  0  0  0  0  0  0  0
    1.6691    0.2302    0.7441 C   0  0  0  0  0  0  0  0  0  0  0  0
    1.0944    0.9421    1.3373 H   0  0  0  0  0  0  0  0  0  0  0  0
    1.6025   -0.7571    1.2021 H   0  0  0  0  0  0  0  0  0  0  0  0
    3.1309    0.6714    0.7048 C   0  0  0  0  0  0  0  0  0  0  0  0
    3.7103   -0.0480    0.1283 H   0  0  0  0  0  0  0  0  0  0  0  0
    3.2013    1.6495    0.2315 H   0  0  0  0  0  0  0  0  0  0  0  0
    3.6966    0.7606    2.0558 N   0  0  0  0  0  0  0  0  0  0  0  0
    4.6644    1.0403    1.9914 H   0  0  0  0  0  0  0  0  0  0  0  0
    3.1826    1.4503    2.5854 H   0  0  0  0  0  0  0  0  0  0  0  0
   -1.2712    1.3099    1.1517 C   0  0  0  0  0  0  0  0  0  0  0  0
   -2.2039    1.9448    0.6639 O   0  0  0  0  0  0  0  0  0  0  0  0
   -0.4306    1.8354    2.0503 N   0  0  0  0  0  0  0  0  0  0  0  0
    0.3001    1.2459    2.4139 H   0  0  0  0  0  0  0  0  0  0  0  0
   -0.5192    3.2082    2.5456 C   0  0  0  0  0  0  0  0  0  0  0  0
   -1.5166    3.3903    2.9518 H   0  0  0  0  0  0  0  0  0  0  0  0
    0.2240    3.3791    3.3257 H   0  0  0  0  0  0  0  0  0  0  0  0
   -0.3477    3.9067    1.7239 H   0  0  0  0  0  0  0  0  0  0  0  0
  5  6  2  0  0  0  0
  5  7  1  0  0  0  0
  2  3  1  0  0  0  0
  2  4  1  0  0  0  0
  2  5  1  0  0  0  0
  1  2  1  0  0  0  0
 26 27  2  0  0  0  0
 26 28  1  0  0  0  0
 23 24  1  0  0  0  0
 23 25  1  0  0  0  0
 20 21  1  0  0  0  0
 20 22  1  0  0  0  0
 20 23  1  0  0  0  0
 17 18  1  0  0  0  0
 17 19  1  0  0  0  0
 17 20  1  0  0  0  0
 14 15  1  0  0  0  0
 14 16  1  0  0  0  0
 14 17  1  0  0  0  0
 11 12  1  0  0  0  0
 11 13  1  0  0  0  0
 11 14  1  0  0  0  0
  9 10  1  0  0  0  0
  9 11  1  0  0  0  0
  9 26  1  0  0  0  0
  7  8  1  0  0  0  0
  7  9  1  0  0  0  0
 30 31  1  0  0  0  0
 30 32  1  0  0  0  0
 30 33  1  0  0  0  0
 28 29  1  0  0  0  0
 28 30  1  0  0  0  0
M  END
$$$$
default_name
  -OEChem-02102213163D

 33 32  0     1  0  0  0  0  0999 V2000
   -3.8420   -3.6918    1.5562 H   0  0  0  0  0  0  0  0  0  0  0  0
   -3.8430   -2.7008    1.1032 C   0  0  0  0  0  0  0  0  0  0  0  0
   -4.5510   -2.0608    1.6242 H   0  0  0  0  0  0  0  0  0  0  0  0
   -4.1140   -2.7798    0.0522 H   0  0  0  0  0  0  0  0  0  0  0  0
   -2.4570   -2.1098    1.2172 C   0  0  0  0  0  0  0  0  0  0  0  0
   -1.5600   -2.7438    1.7572 O   0  0  0  0  0  0  0  0  0  0  0  0
   -2.2870   -0.8898    0.7102 N   0  0  0  0  0  0  0  0  0  0  0  0
   -3.0820   -0.4218    0.2992 H   0  0  0  0  0  0  0  0  0  0  0  0
   -1.0240   -0.1468    0.7262 C   0  0  1  0  0  0  0  0  0  0  0  0
   -0.3583   -0.6100    1.4558 H   0  0  0  0  0  0  0  0  0  0  0  0
   -0.3739   -0.2459   -0.6675 C   0  0  0  0  0  0  0  0  0  0  0  0
   -0.4381   -1.2816   -1.0075 H   0  0  0  0  0  0  0  0  0  0  0  0
   -0.9298    0.3778   -1.3689 H   0  0  0  0  0  0  0  0  0  0  0  0
    1.1048    0.1721   -0.6799 C   0  0  0  0  0  0  0  0  0  0  0  0
    1.6341   -0.3780   -1.4584 H   0  0  0  0  0  0  0  0  0  0  0  0
    1.1738    1.2414   -0.8880 H   0  0  0  0  0  0  0  0  0  0  0  0
    1.7682   -0.1226    0.6702 C   0  0  0  0  0  0  0  0  0  0  0  0
    1.2444    0.4152    1.4610 H   0  0  0  0  0  0  0  0  0  0  0  0
    1.7230   -1.1932    0.8715 H   0  0  0  0  0  0  0  0  0  0  0  0
    3.2284    0.3245    0.6387 C   0  0  0  0  0  0  0  0  0  0  0  0
    3.7580   -0.2246   -0.1381 H   0  0  0  0  0  0  0  0  0  0  0  0
    3.2762    1.3901    0.4202 H   0  0  0  0  0  0  0  0  0  0  0  0
    3.8884    0.0782    1.9260 N   0  0  0  0  0  0  0  0  0  0  0  0
    4.8523    0.3717    1.8650 H   0  0  0  0  0  0  0  0  0  0  0  0
    3.4205    0.6107    2.6455 H   0  0  0  0  0  0  0  0  0  0  0  0
   -1.2712    1.3099    1.1517 C   0  0  0  0  0  0  0  0  0  0  0  0
   -2.2039    1.9448    0.6639 O   0  0  0  0  0  0  0  0  0  0  0  0
   -0.4306    1.8354    2.0503 N   0  0  0  0  0  0  0  0  0  0  0  0
    0.3001    1.2459    2.4139 H   0  0  0  0  0  0  0  0  0  0  0  0
   -0.5192    3.2082    2.5456 C   0  0  0  0  0  0  0  0  0  0  0  0
   -1.5166    3.3903    2.9518 H   0  0  0  0  0  0  0  0  0  0  0  0
    0.2240    3.3791    3.3257 H   0  0  0  0  0  0  0  0  0  0  0  0
   -0.3477    3.9067    1.7239 H   0  0  0  0  0  0  0  0  0  0  0  0
  5  6  2  0  0  0  0
  5  7  1  0  0  0  0
  2  3  1  0  0  0  0
  2  4  1  0  0  0  0
  2  5  1  0  0  0  0
  1  2  1  0  0  0  0
 26 27  2  0  0  0  0
 26 28  1  0  0  0  0
 23 24  1  0  0  0  0
 23 25  1  0  0  0  0
 20 21  1  0  0  0  0
 20 22  1  0  0  0  0
 20 23  1  0  0  0  0
 17 18  1  0  0  0  0
 17 19  1  0  0  0  0
 17 20  1  0  0  0  0
 14 15  1  0  0  0  0
 14 16  1  0  0  0  0
 14 17  1  0  0  0  0
 11 12  1  0  0  0  0
 11 13  1  0  0  0  0
 11 14  1  0  0  0  0
  9 10  1  0  0  0  0
  9 11  1  0  0  0  0
  9 26  1  0  0  0  0
  7  8  1  0  0  0  0
  7  9  1  0  0  0  0
 30 31  1  0  0  0  0
 30 32  1  0  0  0  0
 30 33  1  0  0  0  0
 28 29  1  0  0  0  0
 28 30  1  0  0  0  0
M  END
$$$$
default_name
  -OEChem-02102213163D

 33 32  0     1  0  0  0  0  0999 V2000
   -3.8420   -3.6918    1.5562 H   0  0  0  0  0  0  0  0  0  0  0  0
   -3.8430   -2.7008    1.1032 C   0  0  0  0  0  0  0  0  0  0  0  0
   -4.5510   -2.0608    1.6242 H   0  0  0  0  0  0  0  0  0  0  0  0
   -4.1140   -2.7798    0.0522 H   0  0  0  0  0  0  0  0  0  0  0  0
   -2.4570   -2.1098    1.2172 C   0  0  0  0  0  0  0  0  0  0  0  0
   -1.5600   -2.7438    1.7572 O   0  0  0  0  0  0  0  0  0  0  0  0
   -2.2870   -0.8898    0.7102 N   0  0  0  0  0  0  0  0  0  0  0  0
   -3.0820   -0.4218    0.2992 H   0  0  0  0  0  0  0  0  0  0  0  0
   -1.0240   -0.1468    0.7262 C   0  0  1  0  0  0  0  0  0  0  0  0
   -0.3583   -0.6100    1.4558 H   0  0  0  0  0  0  0  0  0  0  0  0
   -0.3739   -0.2459   -0.6675 C   0  0  0  0  0  0  0  0  0  0  0  0
   -0.4381   -1.2816   -1.0075 H   0  0  0  0  0  0  0  0  0  0  0  0
   -0.9298    0.3778   -1.3689 H   0  0  0  0  0  0  0  0  0  0  0  0
    1.1048    0.1721   -0.6799 C   0  0  0  0  0  0  0  0  0  0  0  0
    1.5721   -0.1631   -1.6063 H   0  0  0  0  0  0  0  0  0  0  0  0
    1.1708    1.2599   -0.6195 H   0  0  0  0  0  0  0  0  0  0  0  0
    1.8580   -0.4451    0.5039 C   0  0  0  0  0  0  0  0  0  0  0  0
    1.3969   -0.1249    1.4387 H   0  0  0  0  0  0  0  0  0  0  0  0
    1.8152   -1.5324    0.4350 H   0  0  0  0  0  0  0  0  0  0  0  0
    3.3173    0.0057    0.4817 C   0  0  0  0  0  0  0  0  0  0  0  0
    3.7849   -0.3290   -0.4428 H   0  0  0  0  0  0  0  0  0  0  0  0
    3.3613    1.0924    0.5325 H   0  0  0  0  0  0  0  0  0  0  0  0
    4.0631   -0.5491    1.6171 N   0  0  0  0  0  0  0  0  0  0  0  0
    5.0235   -0.2430    1.5631 H   0  0  0  0  0  0  0  0  0  0  0  0
    3.6527   -0.2158    2.4778 H   0  0  0  0  0  0  0  0  0  0  0  0
   -1.2712    1.3099    1.1517 C   0  0  0  0  0  0  0  0  0  0  0  0
   -2.2039    1.9448    0.6639 O   0  0  0  0  0  0  0  0  0  0  0  0
   -0.4306    1.8354    2.0503 N   0  0  0  0  0  0  0  0  0  0  0  0
    0.3001    1.2459    2.4139 H   0  0  0  0  0  0  0  0  0  0  0  0
   -0.5192    3.2082    2.5456 C   0  0  0  0  0  0  0  0  0  0  0  0
   -1.5166    3.3903    2.9518 H   0  0  0  0  0  0  0  0  0  0  0  0
    0.2240    3.3791    3.3257 H   0  0  0  0  0  0  0  0  0  0  0  0
   -0.3477    3.9067    1.7239 H   0  0  0  0  0  0  0  0  0  0  0  0
  5  6  2  0  0  0  0
  5  7  1  0  0  0  0
  2  3  1  0  0  0  0
  2  4  1  0  0  0  0
  2  5  1  0  0  0  0
  1  2  1  0  0  0  0
 26 27  2  0  0  0  0
 26 28  1  0  0  0  0
 23 24  1  0  0  0  0
 23 25  1  0  0  0  0
 20 21  1  0  0  0  0
 20 22  1  0  0  0  0
 20 23  1  0  0  0  0
 17 18  1  0  0  0  0
 17 19  1  0  0  0  0
 17 20  1  0  0  0  0
 14 15  1  0  0  0  0
 14 16  1  0  0  0  0
 14 17  1  0  0  0  0
 11 12  1  0  0  0  0
 11 13  1  0  0  0  0
 11 14  1  0  0  0  0
  9 10  1  0  0  0  0
  9 11  1  0  0  0  0
  9 26  1  0  0  0  0
  7  8  1  0  0  0  0
  7  9  1  0  0  0  0
 30 31  1  0  0  0  0
 30 32  1  0  0  0  0
 30 33  1  0  0  0  0
 28 29  1  0  0  0  0
 28 30  1  0  0  0  0
M  END
$$$$
default_name
  -OEChem-02102213163D

 33 32  0     1  0  0  0  0  0999 V2000
   -3.8420   -3.6918    1.5562 H   0  0  0  0  0  0  0  0  0  0  0  0
   -3.8430   -2.7008    1.1032 C   0  0  0  0  0  0  0  0  0  0  0  0
   -4.5510   -2.0608    1.6242 H   0  0  0  0  0  0  0  0  0  0  0  0
   -4.1140   -2.7798    0.0522 H   0  0  0  0  0  0  0  0  0  0  0  0
   -2.4570   -2.1098    1.2172 C   0  0  0  0  0  0  0  0  0  0  0  0
   -1.5600   -2.7438    1.7572 O   0  0  0  0  0  0  0  0  0  0  0  0
   -2.2870   -0.8898    0.7102 N   0  0  0  0  0  0  0  0  0  0  0  0
   -3.0820   -0.4218    0.2992 H   0  0  0  0  0  0  0  0  0  0  0  0
   -1.0240   -0.1468    0.7262 C   0  0  1  0  0  0  0  0  0  0  0  0
   -0.3583   -0.6100    1.4558 H   0  0  0  0  0  0  0  0  0  0  0  0
   -0.3739   -0.2459   -0.6675 C   0  0  0  0  0  0  0  0  0  0  0  0
   -0.4381   -1.2816   -1.0075 H   0  0  0  0  0  0  0  0  0  0  0  0
   -0.9298    0.3778   -1.3689 H   0  0  0  0  0  0  0  0  0  0  0  0
    1.1048    0.1721   -0.6799 C   0  0  0  0  0  0  0  0  0  0  0  0
    1.5023    0.0814   -1.6912 H   0  0  0  0  0  0  0  0  0  0  0  0
    1.1868    1.2110   -0.3554 H   0  0  0  0  0  0  0  0  0  0  0  0
    1.9323   -0.7154    0.2567 C   0  0  0  0  0  0  0  0  0  0  0  0
    1.5415   -0.6414    1.2720 H   0  0  0  0  0  0  0  0  0  0  0  0
    1.8728   -1.7516   -0.0776 H   0  0  0  0  0  0  0  0  0  0  0  0
    3.3913   -0.2633    0.2443 C   0  0  0  0  0  0  0  0  0  0  0  0
    3.7893   -0.3540   -0.7651 H   0  0  0  0  0  0  0  0  0  0  0  0
    3.4508    0.7767    0.5608 H   0  0  0  0  0  0  0  0  0  0  0  0
    4.2088   -1.0784    1.1502 N   0  0  0  0  0  0  0  0  0  0  0  0
    5.1664   -0.7620    1.1064 H   0  0  0  0  0  0  0  0  0  0  0  0
    3.8634   -0.9728    2.0936 H   0  0  0  0  0  0  0  0  0  0  0  0
   -1.2712    1.3099    1.1517 C   0  0  0  0  0  0  0  0  0  0  0  0
   -2.2039    1.9448    0.6639 O   0  0  0  0  0  0  0  0  0  0  0  0
   -0.4306    1.8354    2.0503 N   0  0  0  0  0  0  0  0  0  0  0  0
    0.3001    1.2459    2.4139 H   0  0  0  0  0  0  0  0  0  0  0  0
   -0.5192    3.2082    2.5456 C   0  0  0  0  0  0  0  0  0  0  0  0
   -1.5166    3.3903    2.9518 H   0  0  0  0  0  0  0  0  0  0  0  0
    0.2240    3.3791    3.3257 H   0  0  0  0  0  0  0  0  0  0  0  0
   -0.3477    3.9067    1.7239 H   0  0  0  0  0  0  0  0  0  0  0  0
  5  6  2  0  0  0  0
  5  7  1  0  0  0  0
  2  3  1  0  0  0  0
  2  4  1  0  0  0  0
  2  5  1  0  0  0  0
  1  2  1  0  0  0  0
 26 27  2  0  0  0  0
 26 28  1  0  0  0  0
 23 24  1  0  0  0  0
 23 25  1  0  0  0  0
 20 21  1  0  0  0  0
 20 22  1  0  0  0  0
 20 23  1  0  0  0  0
 17 18  1  0  0  0  0
 17 19  1  0  0  0  0
 17 20  1  0  0  0  0
 14 15  1  0  0  0  0
 14 16  1  0  0  0  0
 14 17  1  0  0  0  0
 11 12  1  0  0  0  0
 11 13  1  0  0  0  0
 11 14  1  0  0  0  0
  9 10  1  0  0  0  0
  9 11  1  0  0  0  0
  9 26  1  0  0  0  0
  7  8  1  0  0  0  0
  7  9  1  0  0  0  0
 30 31  1  0  0  0  0
 30 32  1  0  0  0  0
 30 33  1  0  0  0  0
 28 29  1  0  0  0  0
 28 30  1  0  0  0  0
M  END
$$$$
default_name
  -OEChem-02102213163D

 33 32  0     1  0  0  0  0  0999 V2000
   -3.8420   -3.6918    1.5562 H   0  0  0  0  0  0  0  0  0  0  0  0
   -3.8430   -2.7008    1.1032 C   0  0  0  0  0  0  0  0  0  0  0  0
   -4.5510   -2.0608    1.6242 H   0  0  0  0  0  0  0  0  0  0  0  0
   -4.1140   -2.7798    0.0522 H   0  0  0  0  0  0  0  0  0  0  0  0
   -2.4570   -2.1098    1.2172 C   0  0  0  0  0  0  0  0  0  0  0  0
   -1.5600   -2.7438    1.7572 O   0  0  0  0  0  0  0  0  0  0  0  0
   -2.2870   -0.8898    0.7102 N   0  0  0  0  0  0  0  0  0  0  0  0
   -3.0820   -0.4218    0.2992 H   0  0  0  0  0  0  0  0  0  0  0  0
   -1.0240   -0.1468    0.7262 C   0  0  1  0  0  0  0  0  0  0  0  0
   -0.3583   -0.6100    1.4558 H   0  0  0  0  0  0  0  0  0  0  0  0
   -0.3739   -0.2459   -0.6675 C   0  0  0  0  0  0  0  0  0  0  0  0
   -0.4381   -1.2816   -1.0075 H   0  0  0  0  0  0  0  0  0  0  0  0
   -0.9298    0.3778   -1.3689 H   0  0  0  0  0  0  0  0  0  0  0  0
    1.1048    0.1721   -0.6799 C   0  0  0  0  0  0  0  0  0  0  0  0
    1.4293    0.3389   -1.7074 H   0  0  0  0  0  0  0  0  0  0  0  0
    1.2208    1.0980   -0.1136 H   0  0  0  0  0  0  0  0  0  0  0  0
    1.9862   -0.9151   -0.0547 C   0  0  0  0  0  0  0  0  0  0  0  0
    1.6683   -1.0990    0.9721 H   0  0  0  0  0  0  0  0  0  0  0  0
    1.8920   -1.8357   -0.6313 H   0  0  0  0  0  0  0  0  0  0  0  0
    3.4456   -0.4643   -0.0572 C   0  0  0  0  0  0  0  0  0  0  0  0
    3.7708   -0.2978   -1.0829 H   0  0  0  0  0  0  0  0  0  0  0  0
    3.5386    0.4645    0.5033 H   0  0  0  0  0  0  0  0  0  0  0  0
    4.3155   -1.4737    0.5572 N   0  0  0  0  0  0  0  0  0  0  0  0
    5.2711   -1.1499    0.5260 H   0  0  0  0  0  0  0  0  0  0  0  0
    4.0384   -1.6088    1.5191 H   0  0  0  0  0  0  0  0  0  0  0  0
   -1.2712    1.3099    1.1517 C   0  0  0  0  0  0  0  0  0  0  0  0
   -2.2039    1.9448    0.6639 O   0  0  0  0  0  0  0  0  0  0  0  0
   -0.4306    1.8354    2.0503 N   0  0  0  0  0  0  0  0  0  0  0  0
    0.3001    1.2459    2.4139 H   0  0  0  0  0  0  0  0  0  0  0  0
   -0.5192    3.2082    2.5456 C   0  0  0  0  0  0  0  0  0  0  0  0
   -1.5166    3.3903    2.9518 H   0  0  0  0  0  0  0  0  0  0  0  0
    0.2240    3.3791    3.3257 H   0  0  0  0  0  0  0  0  0  0  0  0
   -0.3477    3.9067    1.7239 H   0  0  0  0  0  0  0  0  0  0  0  0
  5  6  2  0  0  0  0
  5  7  1  0  0  0  0
  2  3  1  0  0  0  0
  2  4  1  0  0  0  0
  2  5  1  0  0  0  0
  1  2  1  0  0  0  0
 26 27  2  0  0  0  0
 26 28  1  0  0  0  0
 23 24  1  0  0  0  0
 23 25  1  0  0  0  0
 20 21  1  0  0  0  0
 20 22  1  0  0  0  0
 20 23  1  0  0  0  0
 17 18  1  0  0  0  0
 17 19  1  0  0  0  0
 17 20  1  0  0  0  0
 14 15  1  0  0  0  0
 14 16  1  0  0  0  0
 14 17  1  0  0  0  0
 11 12  1  0  0  0  0
 11 13  1  0  0  0  0
 11 14  1  0  0  0  0
  9 10  1  0  0  0  0
  9 11  1  0  0  0  0
  9 26  1  0  0  0  0
  7  8  1  0  0  0  0
  7  9  1  0  0  0  0
 30 31  1  0  0  0  0
 30 32  1  0  0  0  0
 30 33  1  0  0  0  0
 28 29  1  0  0  0  0
 28 30  1  0  0  0  0
M  END
$$$$
default_name
  -OEChem-02102213163D

 33 32  0     1  0  0  0  0  0999 V2000
   -3.8420   -3.6918    1.5562 H   0  0  0  0  0  0  0  0  0  0  0  0
   -3.8430   -2.7008    1.1032 C   0  0  0  0  0  0  0  0  0  0  0  0
   -4.5510   -2.0608    1.6242 H   0  0  0  0  0  0  0  0  0  0  0  0
   -4.1140   -2.7798    0.0522 H   0  0  0  0  0  0  0  0  0  0  0  0
   -2.4570   -2.1098    1.2172 C   0  0  0  0  0  0  0  0  0  0  0  0
   -1.5600   -2.7438    1.7572 O   0  0  0  0  0  0  0  0  0  0  0  0
   -2.2870   -0.8898    0.7102 N   0  0  0  0  0  0  0  0  0  0  0  0
   -3.0820   -0.4218    0.2992 H   0  0  0  0  0  0  0  0  0  0  0  0
   -1.0240   -0.1468    0.7262 C   0  0  1  0  0  0  0  0  0  0  0  0
   -0.3583   -0.6100    1.4558 H   0  0  0  0  0  0  0  0  0  0  0  0
   -0.3739   -0.2459   -0.6675 C   0  0  0  0  0  0  0  0  0  0  0  0
   -0.4381   -1.2816   -1.0075 H   0  0  0  0  0  0  0  0  0  0  0  0
   -0.9298    0.3778   -1.3689 H   0  0  0  0  0  0  0  0  0  0  0  0
    1.1048    0.1721   -0.6799 C   0  0  0  0  0  0  0  0  0  0  0  0
    1.3583    0.5918   -1.6538 H   0  0  0  0  0  0  0  0  0  0  0  0
    1.2705    0.9285    0.0894 H   0  0  0  0  0  0  0  0  0  0  0  0
    2.0158   -1.0305   -0.4089 C   0  0  0  0  0  0  0  0  0  0  0  0
    1.7688   -1.4666    0.5595 H   0  0  0  0  0  0  0  0  0  0  0  0
    1.8713   -1.7791   -1.1885 H   0  0  0  0  0  0  0  0  0  0  0  0
    3.4763   -0.5834   -0.4022 C   0  0  0  0  0  0  0  0  0  0  0  0
    3.7306   -0.1644   -1.3745 H   0  0  0  0  0  0  0  0  0  0  0  0
    3.6186    0.1771    0.3638 H   0  0  0  0  0  0  0  0  0  0  0  0
    4.3761   -1.7081   -0.1216 N   0  0  0  0  0  0  0  0  0  0  0  0
    5.3306   -1.3801   -0.1387 H   0  0  0  0  0  0  0  0  0  0  0  0
    4.1656   -2.0805    0.7934 H   0  0  0  0  0  0  0  0  0  0  0  0
   -1.2712    1.3099    1.1517 C   0  0  0  0  0  0  0  0  0  0  0  0
   -2.2039    1.9448    0.6639 O   0  0  0  0  0  0  0  0  0  0  0  0
   -0.4306    1.8354    2.0503 N   0  0  0  0  0  0  0  0  0  0  0  0
    0.3001    1.2459    2.4139 H   0  0  0  0  0  0  0  0  0  0  0  0
   -0.5192    3.2082    2.5456 C   0  0  0  0  0  0  0  0  0  0  0  0
   -1.5166    3.3903    2.9518 H   0  0  0  0  0  0  0  0  0  0  0  0
    0.2240    3.3791    3.3257 H   0  0  0  0  0  0  0  0  0  0  0  0
   -0.3477    3.9067    1.7239 H   0  0  0  0  0  0  0  0  0  0  0  0
  5  6  2  0  0  0  0
  5  7  1  0  0  0  0
  2  3  1  0  0  0  0
  2  4  1  0  0  0  0
  2  5  1  0  0  0  0
  1  2  1  0  0  0  0
 26 27  2  0  0  0  0
 26 28  1  0  0  0  0
 23 24  1  0  0  0  0
 23 25  1  0  0  0  0
 20 21  1  0  0  0  0
 20 22  1  0  0  0  0
 20 23  1  0  0  0  0
 17 18  1  0  0  0  0
 17 19  1  0  0  0  0
 17 20  1  0  0  0  0
 14 15  1  0  0  0  0
 14 16  1  0  0  0  0
 14 17  1  0  0  0  0
 11 12  1  0  0  0  0
 11 13  1  0  0  0  0
 11 14  1  0  0  0  0
  9 10  1  0  0  0  0
  9 11  1  0  0  0  0
  9 26  1  0  0  0  0
  7  8  1  0  0  0  0
  7  9  1  0  0  0  0
 30 31  1  0  0  0  0
 30 32  1  0  0  0  0
 30 33  1  0  0  0  0
 28 29  1  0  0  0  0
 28 30  1  0  0  0  0
M  END
$$$$
default_name
  -OEChem-02102213163D

 33 32  0     1  0  0  0  0  0999 V2000
   -3.8420   -3.6918    1.5562 H   0  0  0  0  0  0  0  0  0  0  0  0
   -3.8430   -2.7008    1.1032 C   0  0  0  0  0  0  0  0  0  0  0  0
   -4.5510   -2.0608    1.6242 H   0  0  0  0  0  0  0  0  0  0  0  0
   -4.1140   -2.7798    0.0522 H   0  0  0  0  0  0  0  0  0  0  0  0
   -2.4570   -2.1098    1.2172 C   0  0  0  0  0  0  0  0  0  0  0  0
   -1.5600   -2.7438    1.7572 O   0  0  0  0  0  0  0  0  0  0  0  0
   -2.2870   -0.8898    0.7102 N   0  0  0  0  0  0  0  0  0  0  0  0
   -3.0820   -0.4218    0.2992 H   0  0  0  0  0  0  0  0  0  0  0  0
   -1.0240   -0.1468    0.7262 C   0  0  1  0  0  0  0  0  0  0  0  0
   -0.3583   -0.6100    1.4558 H   0  0  0  0  0  0  0  0  0  0  0  0
   -0.3739   -0.2459   -0.6675 C   0  0  0  0  0  0  0  0  0  0  0  0
   -0.4381   -1.2816   -1.0075 H   0  0  0  0  0  0  0  0  0  0  0  0
   -0.9298    0.3778   -1.3689 H   0  0  0  0  0  0  0  0  0  0  0  0
    1.1048    0.1721   -0.6799 C   0  0  0  0  0  0  0  0  0  0  0  0
    1.2940    0.8229   -1.5340 H   0  0  0  0  0  0  0  0  0  0  0  0
    1.3323    0.7140    0.2398 H   0  0  0  0  0  0  0  0  0  0  0  0
    2.0193   -1.0539   -0.7820 C   0  0  0  0  0  0  0  0  0  0  0  0
    1.8360   -1.7191    0.0623 H   0  0  0  0  0  0  0  0  0  0  0  0
    1.8122   -1.5856   -1.7111 H   0  0  0  0  0  0  0  0  0  0  0  0
    3.4815   -0.6125   -0.7674 C   0  0  0  0  0  0  0  0  0  0  0  0
    3.6715    0.0371   -1.6202 H   0  0  0  0  0  0  0  0  0  0  0  0
    3.6855   -0.0659    0.1519 H   0  0  0  0  0  0  0  0  0  0  0  0
    4.3863   -1.7655   -0.8399 N   0  0  0  0  0  0  0  0  0  0  0  0
    5.3408   -1.4372   -0.8422 H   0  0  0  0  0  0  0  0  0  0  0  0
    4.2364   -2.3556   -0.0339 H   0  0  0  0  0  0  0  0  0  0  0  0
   -1.2712    1.3099    1.1517 C   0  0  0  0  0  0  0  0  0  0  0  0
   -2.2039    1.9448    0.6639 O   0  0  0  0  0  0  0  0  0  0  0  0
   -0.4306    1.8354    2.0503 N   0  0  0  0  0  0  0  0  0  0  0  0
    0.3001    1.2459    2.4139 H   0  0  0  0  0  0  0  0  0  0  0  0
   -0.5192    3.2082    2.5456 C   0  0  0  0  0  0  0  0  0  0  0  0
   -1.5166    3.3903    2.9518 H   0  0  0  0  0  0  0  0  0  0  0  0
    0.2240    3.3791    3.3257 H   0  0  0  0  0  0  0  0  0  0  0  0
   -0.3477    3.9067    1.7239 H   0  0  0  0  0  0  0  0  0  0  0  0
  5  6  2  0  0  0  0
  5  7  1  0  0  0  0
  2  3  1  0  0  0  0
  2  4  1  0  0  0  0
  2  5  1  0  0  0  0
  1  2  1  0  0  0  0
 26 27  2  0  0  0  0
 26 28  1  0  0  0  0
 23 24  1  0  0  0  0
 23 25  1  0  0  0  0
 20 21  1  0  0  0  0
 20 22  1  0  0  0  0
 20 23  1  0  0  0  0
 17 18  1  0  0  0  0
 17 19  1  0  0  0  0
 17 20  1  0  0  0  0
 14 15  1  0  0  0  0
 14 16  1  0  0  0  0
 14 17  1  0  0  0  0
 11 12  1  0  0  0  0
 11 13  1  0  0  0  0
 11 14  1  0  0  0  0
  9 10  1  0  0  0  0
  9 11  1  0  0  0  0
  9 26  1  0  0  0  0
  7  8  1  0  0  0  0
  7  9  1  0  0  0  0
 30 31  1  0  0  0  0
 30 32  1  0  0  0  0
 30 33  1  0  0  0  0
 28 29  1  0  0  0  0
 28 30  1  0  0  0  0
M  END
$$$$
default_name
  -OEChem-02102213163D

 33 32  0     1  0  0  0  0  0999 V2000
   -3.8420   -3.6918    1.5562 H   0  0  0  0  0  0  0  0  0  0  0  0
   -3.8430   -2.7008    1.1032 C   0  0  0  0  0  0  0  0  0  0  0  0
   -4.5510   -2.0608    1.6242 H   0  0  0  0  0  0  0  0  0  0  0  0
   -4.1140   -2.7798    0.0522 H   0  0  0  0  0  0  0  0  0  0  0  0
   -2.4570   -2.1098    1.2172 C   0  0  0  0  0  0  0  0  0  0  0  0
   -1.5600   -2.7438    1.7572 O   0  0  0  0  0  0  0  0  0  0  0  0
   -2.2870   -0.8898    0.7102 N   0  0  0  0  0  0  0  0  0  0  0  0
   -3.0820   -0.4218    0.2992 H   0  0  0  0  0  0  0  0  0  0  0  0
   -1.0240   -0.1468    0.7262 C   0  0  1  0  0  0  0  0  0  0  0  0
   -0.3583   -0.6100    1.4558 H   0  0  0  0  0  0  0  0  0  0  0  0
   -0.3739   -0.2459   -0.6675 C   0  0  0  0  0  0  0  0  0  0  0  0
   -0.4381   -1.2816   -1.0075 H   0  0  0  0  0  0  0  0  0  0  0  0
   -0.9298    0.3778   -1.3689 H   0  0  0  0  0  0  0  0  0  0  0  0
    1.1048    0.1721   -0.6799 C   0  0  0  0  0  0  0  0  0  0  0  0
    1.2408    1.0165   -1.3562 H   0  0  0  0  0  0  0  0  0  0  0  0
    1.4022    0.4694    0.3273 H   0  0  0  0  0  0  0  0  0  0  0  0
    1.9963   -0.9835   -1.1484 C   0  0  0  0  0  0  0  0  0  0  0  0
    1.8653   -1.8394   -0.4855 H   0  0  0  0  0  0  0  0  0  0  0  0
    1.7187   -1.2684   -2.1636 H   0  0  0  0  0  0  0  0  0  0  0  0
    3.4607   -0.5498   -1.1277 C   0  0  0  0  0  0  0  0  0  0  0  0
    3.5976    0.2932   -1.8031 H   0  0  0  0  0  0  0  0  0  0  0  0
    3.7347   -0.2480   -0.1181 H   0  0  0  0  0  0  0  0  0  0  0  0
    4.3454   -1.6421   -1.5488 N   0  0  0  0  0  0  0  0  0  0  0  0
    5.3010   -1.3171   -1.5367 H   0  0  0  0  0  0  0  0  0  0  0  0
    4.2460   -2.4154   -0.9065 H   0  0  0  0  0  0  0  0  0  0  0  0
   -1.2712    1.3099    1.1517 C   0  0  0  0  0  0  0  0  0  0  0  0
   -2.2039    1.9448    0.6639 O   0  0  0  0  0  0  0  0  0  0  0  0
   -0.4306    1.8354    2.0503 N   0  0  0  0  0  0  0  0  0  0  0  0
    0.3001    1.2459    2.4139 H   0  0  0  0  0  0  0  0  0  0  0  0
   -0.5192    3.2082    2.5456 C   0  0  0  0  0  0  0  0  0  0  0  0
   -1.5166    3.3903    2.9518 H   0  0  0  0  0  0  0  0  0  0  0  0
    0.2240    3.3791    3.3257 H   0  0  0  0  0  0  0  0  0  0  0  0
   -0.3477    3.9067    1.7239 H   0  0  0  0  0  0  0  0  0  0  0  0
  5  6  2  0  0  0  0
  5  7  1  0  0  0  0
  2  3  1  0  0  0  0
  2  4  1  0  0  0  0
  2  5  1  0  0  0  0
  1  2  1  0  0  0  0
 26 27  2  0  0  0  0
 26 28  1  0  0  0  0
 23 24  1  0  0  0  0
 23 25  1  0  0  0  0
 20 21  1  0  0  0  0
 20 22  1  0  0  0  0
 20 23  1  0  0  0  0
 17 18  1  0  0  0  0
 17 19  1  0  0  0  0
 17 20  1  0  0  0  0
 14 15  1  0  0  0  0
 14 16  1  0  0  0  0
 14 17  1  0  0  0  0
 11 12  1  0  0  0  0
 11 13  1  0  0  0  0
 11 14  1  0  0  0  0
  9 10  1  0  0  0  0
  9 11  1  0  0  0  0
  9 26  1  0  0  0  0
  7  8  1  0  0  0  0
  7  9  1  0  0  0  0
 30 31  1  0  0  0  0
 30 32  1  0  0  0  0
 30 33  1  0  0  0  0
 28 29  1  0  0  0  0
 28 30  1  0  0  0  0
M  END
$$$$
default_name
  -OEChem-02102213163D

 33 32  0     1  0  0  0  0  0999 V2000
   -3.8420   -3.6918    1.5562 H   0  0  0  0  0  0  0  0  0  0  0  0
   -3.8430   -2.7008    1.1032 C   0  0  0  0  0  0  0  0  0  0  0  0
   -4.5510   -2.0608    1.6242 H   0  0  0  0  0  0  0  0  0  0  0  0
   -4.1140   -2.7798    0.0522 H   0  0  0  0  0  0  0  0  0  0  0  0
   -2.4570   -2.1098    1.2172 C   0  0  0  0  0  0  0  0  0  0  0  0
   -1.5600   -2.7438    1.7572 O   0  0  0  0  0  0  0  0  0  0  0  0
   -2.2870   -0.8898    0.7102 N   0  0  0  0  0  0  0  0  0  0  0  0
   -3.0820   -0.4218    0.2992 H   0  0  0  0  0  0  0  0  0  0  0  0
   -1.0240   -0.1468    0.7262 C   0  0  1  0  0  0  0  0  0  0  0  0
   -0.3583   -0.6100    1.4558 H   0  0  0  0  0  0  0  0  0  0  0  0
   -0.3739   -0.2459   -0.6675 C   0  0  0  0  0  0  0  0  0  0  0  0
   -0.4381   -1.2816   -1.0075 H   0  0  0  0  0  0  0  0  0  0  0  0
   -0.9298    0.3778   -1.3689 H   0  0  0  0  0  0  0  0  0  0  0  0
    1.1048    0.1721   -0.6799 C   0  0  0  0  0  0  0  0  0  0  0  0
    1.2023    1.1592   -1.1326 H   0  0  0  0  0  0  0  0  0  0  0  0
    1.4754    0.2111    0.3460 H   0  0  0  0  0  0  0  0  0  0  0  0
    1.9485   -0.8243   -1.4831 C   0  0  0  0  0  0  0  0  0  0  0  0
    1.8549   -1.8192   -1.0467 H   0  0  0  0  0  0  0  0  0  0  0  0
    1.5972   -0.8492   -2.5151 H   0  0  0  0  0  0  0  0  0  0  0  0
    3.4154   -0.3994   -1.4586 C   0  0  0  0  0  0  0  0  0  0  0  0
    3.5139    0.5862   -1.9109 H   0  0  0  0  0  0  0  0  0  0  0  0
    3.7629   -0.3568   -0.4277 H   0  0  0  0  0  0  0  0  0  0  0  0
    4.2563   -1.3463   -2.1999 N   0  0  0  0  0  0  0  0  0  0  0  0
    5.2139   -1.0280   -2.1748 H   0  0  0  0  0  0  0  0  0  0  0  0
    4.1937   -2.2559   -1.7650 H   0  0  0  0  0  0  0  0  0  0  0  0
   -1.2712    1.3099    1.1517 C   0  0  0  0  0  0  0  0  0  0  0  0
   -2.2039    1.9448    0.6639 O   0  0  0  0  0  0  0  0  0  0  0  0
   -0.4306    1.8354    2.0503 N   0  0  0  0  0  0  0  0  0  0  0  0
    0.3001    1.2459    2.4139 H   0  0  0  0  0  0  0  0  0  0  0  0
   -0.5192    3.2082    2.5456 C   0  0  0  0  0  0  0  0  0  0  0  0
   -1.5166    3.3903    2.9518 H   0  0  0  0  0  0  0  0  0  0  0  0
    0.2240    3.3791    3.3257 H   0  0  0  0  0  0  0  0  0  0  0  0
   -0.3477    3.9067    1.7239 H   0  0  0  0  0  0  0  0  0  0  0  0
  5  6  2  0  0  0  0
  5  7  1  0  0  0  0
  2  3  1  0  0  0  0
  2  4  1  0  0  0  0
  2  5  1  0  0  0  0
  1  2  1  0  0  0  0
 26 27  2  0  0  0  0
 26 28  1  0  0  0  0
 23 24  1  0  0  0  0
 23 25  1  0  0  0  0
 20 21  1  0  0  0  0
 20 22  1  0  0  0  0
 20 23  1  0  0  0  0
 17 18  1  0  0  0  0
 17 19  1  0  0  0  0
 17 20  1  0  0  0  0
 14 15  1  0  0  0  0
 14 16  1  0  0  0  0
 14 17  1  0  0  0  0
 11 12  1  0  0  0  0
 11 13  1  0  0  0  0
 11 14  1  0  0  0  0
  9 10  1  0  0  0  0
  9 11  1  0  0  0  0
  9 26  1  0  0  0  0
  7  8  1  0  0  0  0
  7  9  1  0  0  0  0
 30 31  1  0  0  0  0
 30 32  1  0  0  0  0
 30 33  1  0  0  0  0
 28 29  1  0  0  0  0
 28 30  1  0  0  0  0
M  END
$$$$
default_name
  -OEChem-02102213163D

 33 32  0     1  0  0  0  0  0999 V2000
   -3.8420   -3.6918    1.5562 H   0  0  0  0  0  0  0  0  0  0  0  0
   -3.8430   -2.7008    1.1032 C   0  0  0  0  0  0  0  0  0  0  0  0
   -4.5510   -2.0608    1.6242 H   0  0  0  0  0  0  0  0  0  0  0  0
   -4.1140   -2.7798    0.0522 H   0  0  0  0  0  0  0  0  0  0  0  0
   -2.4570   -2.1098    1.2172 C   0  0  0  0  0  0  0  0  0  0  0  0
   -1.5600   -2.7438    1.7572 O   0  0  0  0  0  0  0  0  0  0  0  0
   -2.2870   -0.8898    0.7102 N   0  0  0  0  0  0  0  0  0  0  0  0
   -3.0820   -0.4218    0.2992 H   0  0  0  0  0  0  0  0  0  0  0  0
   -1.0240   -0.1468    0.7262 C   0  0  1  0  0  0  0  0  0  0  0  0
   -0.3583   -0.6100    1.4558 H   0  0  0  0  0  0  0  0  0  0  0  0
   -0.3739   -0.2459   -0.6675 C   0  0  0  0  0  0  0  0  0  0  0  0
   -0.4381   -1.2816   -1.0075 H   0  0  0  0  0  0  0  0  0  0  0  0
   -0.9298    0.3778   -1.3689 H   0  0  0  0  0  0  0  0  0  0  0  0
    1.1048    0.1721   -0.6799 C   0  0  0  0  0  0  0  0  0  0  0  0
    1.1812    1.2415   -0.8783 H   0  0  0  0  0  0  0  0  0  0  0  0
    1.5469   -0.0432    0.2946 H   0  0  0  0  0  0  0  0  0  0  0  0
    1.8790   -0.5870   -1.7635 C   0  0  0  0  0  0  0  0  0  0  0  0
    1.8053   -1.6599   -1.5830 H   0  0  0  0  0  0  0  0  0  0  0  0
    1.4560   -0.3564   -2.7416 H   0  0  0  0  0  0  0  0  0  0  0  0
    3.3487   -0.1716   -1.7377 C   0  0  0  0  0  0  0  0  0  0  0  0
    3.4260    0.8962   -1.9361 H   0  0  0  0  0  0  0  0  0  0  0  0
    3.7680   -0.3848   -0.7558 H   0  0  0  0  0  0  0  0  0  0  0  0
    4.1250   -0.8982   -2.7489 N   0  0  0  0  0  0  0  0  0  0  0  0
    5.0855   -0.5897   -2.7131 H   0  0  0  0  0  0  0  0  0  0  0  0
    4.0830   -1.8879   -2.5508 H   0  0  0  0  0  0  0  0  0  0  0  0
   -1.2712    1.3099    1.1517 C   0  0  0  0  0  0  0  0  0  0  0  0
   -2.2039    1.9448    0.6639 O   0  0  0  0  0  0  0  0  0  0  0  0
   -0.4306    1.8354    2.0503 N   0  0  0  0  0  0  0  0  0  0  0  0
    0.3001    1.2459    2.4139 H   0  0  0  0  0  0  0  0  0  0  0  0
   -0.5192    3.2082    2.5456 C   0  0  0  0  0  0  0  0  0  0  0  0
   -1.5166    3.3903    2.9518 H   0  0  0  0  0  0  0  0  0  0  0  0
    0.2240    3.3791    3.3257 H   0  0  0  0  0  0  0  0  0  0  0  0
   -0.3477    3.9067    1.7239 H   0  0  0  0  0  0  0  0  0  0  0  0
  5  6  2  0  0  0  0
  5  7  1  0  0  0  0
  2  3  1  0  0  0  0
  2  4  1  0  0  0  0
  2  5  1  0  0  0  0
  1  2  1  0  0  0  0
 26 27  2  0  0  0  0
 26 28  1  0  0  0  0
 23 24  1  0  0  0  0
 23 25  1  0  0  0  0
 20 21  1  0  0  0  0
 20 22  1  0  0  0  0
 20 23  1  0  0  0  0
 17 18  1  0  0  0  0
 17 19  1  0  0  0  0
 17 20  1  0  0  0  0
 14 15  1  0  0  0  0
 14 16  1  0  0  0  0
 14 17  1  0  0  0  0
 11 12  1  0  0  0  0
 11 13  1  0  0  0  0
 11 14  1  0  0  0  0
  9 10  1  0  0  0  0
  9 11  1  0  0  0  0
  9 26  1  0  0  0  0
  7  8  1  0  0  0  0
  7  9  1  0  0  0  0
 30 31  1  0  0  0  0
 30 32  1  0  0  0  0
 30 33  1  0  0  0  0
 28 29  1  0  0  0  0
 28 30  1  0  0  0  0
M  END
$$$$
default_name
  -OEChem-02102213163D

 33 32  0     1  0  0  0  0  0999 V2000
   -3.8420   -3.6918    1.5562 H   0  0  0  0  0  0  0  0  0  0  0  0
   -3.8430   -2.7008    1.1032 C   0  0  0  0  0  0  0  0  0  0  0  0
   -4.5510   -2.0608    1.6242 H   0  0  0  0  0  0  0  0  0  0  0  0
   -4.1140   -2.7798    0.0522 H   0  0  0  0  0  0  0  0  0  0  0  0
   -2.4570   -2.1098    1.2172 C   0  0  0  0  0  0  0  0  0  0  0  0
   -1.5600   -2.7438    1.7572 O   0  0  0  0  0  0  0  0  0  0  0  0
   -2.2870   -0.8898    0.7102 N   0  0  0  0  0  0  0  0  0  0  0  0
   -3.0820   -0.4218    0.2992 H   0  0  0  0  0  0  0  0  0  0  0  0
   -1.0240   -0.1468    0.7262 C   0  0  1  0  0  0  0  0  0  0  0  0
   -0.3583   -0.6100    1.4558 H   0  0  0  0  0  0  0  0  0  0  0  0
   -0.3739   -0.2459   -0.6675 C   0  0  0  0  0  0  0  0  0  0  0  0
   -0.4381   -1.2816   -1.0075 H   0  0  0  0  0  0  0  0  0  0  0  0
   -0.9298    0.3778   -1.3689 H   0  0  0  0  0  0  0  0  0  0  0  0
    1.1048    0.1721   -0.6799 C   0  0  0  0  0  0  0  0  0  0  0  0
    1.1789    1.2577   -0.6106 H   0  0  0  0  0  0  0  0  0  0  0  0
    1.6117   -0.2762    0.1765 H   0  0  0  0  0  0  0  0  0  0  0  0
    1.7927   -0.2878   -1.9702 C   0  0  0  0  0  0  0  0  0  0  0  0
    1.7201   -1.3723   -2.0578 H   0  0  0  0  0  0  0  0  0  0  0  0
    1.3047    0.1763   -2.8278 H   0  0  0  0  0  0  0  0  0  0  0  0
    3.2651    0.1181   -1.9458 C   0  0  0  0  0  0  0  0  0  0  0  0
    3.3401    1.2021   -1.8771 H   0  0  0  0  0  0  0  0  0  0  0  0
    3.7499   -0.3302   -1.0801 H   0  0  0  0  0  0  0  0  0  0  0  0
    3.9605   -0.3284   -3.1583 N   0  0  0  0  0  0  0  0  0  0  0  0
    4.9245   -0.0320   -3.1147 H   0  0  0  0  0  0  0  0  0  0  0  0
    3.9216   -1.3364   -3.2104 H   0  0  0  0  0  0  0  0  0  0  0  0
   -1.2712    1.3099    1.1517 C   0  0  0  0  0  0  0  0  0  0  0  0
   -2.2039    1.9448    0.6639 O   0  0  0  0  0  0  0  0  0  0  0  0
   -0.4306    1.8354    2.0503 N   0  0  0  0  0  0  0  0  0  0  0  0
    0.3001    1.2459    2.4139 H   0  0  0  0  0  0  0  0  0  0  0  0
   -0.5192    3.2082    2.5456 C   0  0  0  0  0  0  0  0  0  0  0  0
   -1.5166    3.3903    2.9518 H   0  0  0  0  0  0  0  0  0  0  0  0
    0.2240    3.3791    3.3257 H   0  0  0  0  0  0  0  0  0  0  0  0
   -0.3477    3.9067    1.7239 H   0  0  0  0  0  0  0  0  0  0  0  0
  5  6  2  0  0  0  0
  5  7  1  0  0  0  0
  2  3  1  0  0  0  0
  2  4  1  0  0  0  0
  2  5  1  0  0  0  0
  1  2  1  0  0  0  0
 26 27  2  0  0  0  0
 26 28  1  0  0  0  0
 23 24  1  0  0  0  0
 23 25  1  0  0  0  0
 20 21  1  0  0  0  0
 20 22  1  0  0  0  0
 20 23  1  0  0  0  0
 17 18  1  0  0  0  0
 17 19  1  0  0  0  0
 17 20  1  0  0  0  0
 14 15  1  0  0  0  0
 14 16  1  0  0  0  0
 14 17  1  0  0  0  0
 11 12  1  0  0  0  0
 11 13  1  0  0  0  0
 11 14  1  0  0  0  0
  9 10  1  0  0  0  0
  9 11  1  0  0  0  0
  9 26  1  0  0  0  0
  7  8  1  0  0  0  0
  7  9  1  0  0  0  0
 30 31  1  0  0  0  0
 30 32  1  0  0  0  0
 30 33  1  0  0  0  0
 28 29  1  0  0  0  0
 28 30  1  0  0  0  0
M  END
$$$$
default_name
  -OEChem-02102213163D

 33 32  0     1  0  0  0  0  0999 V2000
   -3.8420   -3.6918    1.5562 H   0  0  0  0  0  0  0  0  0  0  0  0
   -3.8430   -2.7008    1.1032 C   0  0  0  0  0  0  0  0  0  0  0  0
   -4.5510   -2.0608    1.6242 H   0  0  0  0  0  0  0  0  0  0  0  0
   -4.1140   -2.7798    0.0522 H   0  0  0  0  0  0  0  0  0  0  0  0
   -2.4570   -2.1098    1.2172 C   0  0  0  0  0  0  0  0  0  0  0  0
   -1.5600   -2.7438    1.7572 O   0  0  0  0  0  0  0  0  0  0  0  0
   -2.2870   -0.8898    0.7102 N   0  0  0  0  0  0  0  0  0  0  0  0
   -3.0820   -0.4218    0.2992 H   0  0  0  0  0  0  0  0  0  0  0  0
   -1.0240   -0.1468    0.7262 C   0  0  1  0  0  0  0  0  0  0  0  0
   -0.3583   -0.6100    1.4558 H   0  0  0  0  0  0  0  0  0  0  0  0
   -0.3739   -0.2459   -0.6675 C   0  0  0  0  0  0  0  0  0  0  0  0
   -0.6677   -1.1949   -1.1208 H   0  0  0  0  0  0  0  0  0  0  0  0
   -0.7480    0.5625   -1.2972 H   0  0  0  0  0  0  0  0  0  0  0  0
    1.1612   -0.1883   -0.6280 C   0  0  0  0  0  0  0  0  0  0  0  0
    1.4807    0.7543   -0.1827 H   0  0  0  0  0  0  0  0  0  0  0  0
    1.5360   -1.0151   -0.0219 H   0  0  0  0  0  0  0  0  0  0  0  0
    1.7493   -0.2912   -2.0398 C   0  0  0  0  0  0  0  0  0  0  0  0
    1.4317   -1.2265   -2.5018 H   0  0  0  0  0  0  0  0  0  0  0  0
    1.3966    0.5463   -2.6425 H   0  0  0  0  0  0  0  0  0  0  0  0
    3.2747   -0.2564   -1.9698 C   0  0  0  0  0  0  0  0  0  0  0  0
    3.5948    0.6848   -1.5256 H   0  0  0  0  0  0  0  0  0  0  0  0
    3.6278   -1.0817   -1.3536 H   0  0  0  0  0  0  0  0  0  0  0  0
    3.8718   -0.3769   -3.3048 N   0  0  0  0  0  0  0  0  0  0  0  0
    4.8770   -0.3362   -3.2224 H   0  0  0  0  0  0  0  0  0  0  0  0
    3.6039   -1.2631   -3.7088 H   0  0  0  0  0  0  0  0  0  0  0  0
   -1.2712    1.3099    1.1517 C   0  0  0  0  0  0  0  0  0  0  0  0
   -2.2039    1.9448    0.6639 O   0  0  0  0  0  0  0  0  0  0  0  0
   -0.4306    1.8354    2.0503 N   0  0  0  0  0  0  0  0  0  0  0  0
    0.3001    1.2459    2.4139 H   0  0  0  0  0  0  0  0  0  0  0  0
   -0.5192    3.2082    2.5456 C   0  0  0  0  0  0  0  0  0  0  0  0
   -1.5166    3.3903    2.9518 H   0  0  0  0  0  0  0  0  0  0  0  0
    0.2240    3.3791    3.3257 H   0  0  0  0  0  0  0  0  0  0  0  0
   -0.3477    3.9067    1.7239 H   0  0  0  0  0  0  0  0  0  0  0  0
  5  6  2  0  0  0  0
  5  7  1  0  0  0  0
  2  3  1  0  0  0  0
  2  4  1  0  0  0  0
  2  5  1  0  0  0  0
  1  2  1  0  0  0  0
 26 27  2  0  0  0  0
 26 28  1  0  0  0  0
 23 24  1  0  0  0  0
 23 25  1  0  0  0  0
 20 21  1  0  0  0  0
 20 22  1  0  0  0  0
 20 23  1  0  0  0  0
 17 18  1  0  0  0  0
 17 19  1  0  0  0  0
 17 20  1  0  0  0  0
 14 15  1  0  0  0  0
 14 16  1  0  0  0  0
 14 17  1  0  0  0  0
 11 12  1  0  0  0  0
 11 13  1  0  0  0  0
 11 14  1  0  0  0  0
  9 10  1  0  0  0  0
  9 11  1  0  0  0  0
  9 26  1  0  0  0  0
  7  8  1  0  0  0  0
  7  9  1  0  0  0  0
 30 31  1  0  0  0  0
 30 32  1  0  0  0  0
 30 33  1  0  0  0  0
 28 29  1  0  0  0  0
 28 30  1  0  0  0  0
M  END
$$$$
default_name
  -OEChem-02102213163D

 33 32  0     1  0  0  0  0  0999 V2000
   -3.8420   -3.6918    1.5562 H   0  0  0  0  0  0  0  0  0  0  0  0
   -3.8430   -2.7008    1.1032 C   0  0  0  0  0  0  0  0  0  0  0  0
   -4.5510   -2.0608    1.6242 H   0  0  0  0  0  0  0  0  0  0  0  0
   -4.1140   -2.7798    0.0522 H   0  0  0  0  0  0  0  0  0  0  0  0
   -2.4570   -2.1098    1.2172 C   0  0  0  0  0  0  0  0  0  0  0  0
   -1.5600   -2.7438    1.7572 O   0  0  0  0  0  0  0  0  0  0  0  0
   -2.2870   -0.8898    0.7102 N   0  0  0  0  0  0  0  0  0  0  0  0
   -3.0820   -0.4218    0.2992 H   0  0  0  0  0  0  0  0  0  0  0  0
   -1.0240   -0.1468    0.7262 C   0  0  1  0  0  0  0  0  0  0  0  0
   -0.3583   -0.6100    1.4558 H   0  0  0  0  0  0  0  0  0  0  0  0
   -0.3739   -0.2459   -0.6675 C   0  0  0  0  0  0  0  0  0  0  0  0
   -0.6677   -1.1949   -1.1208 H   0  0  0  0  0  0  0  0  0  0  0  0
   -0.7480    0.5625   -1.2972 H   0  0  0  0  0  0  0  0  0  0  0  0
    1.1612   -0.1883   -0.6280 C   0  0  0  0  0  0  0  0  0  0  0  0
    1.4803    0.6097    0.0430 H   0  0  0  0  0  0  0  0  0  0  0  0
    1.5468   -1.1407   -0.2597 H   0  0  0  0  0  0  0  0  0  0  0  0
    1.7348    0.0820   -2.0236 C   0  0  0  0  0  0  0  0  0  0  0  0
    1.4174   -0.7046   -2.7089 H   0  0  0  0  0  0  0  0  0  0  0  0
    1.3713    1.0439   -2.3861 H   0  0  0  0  0  0  0  0  0  0  0  0
    3.2607    0.1096   -1.9604 C   0  0  0  0  0  0  0  0  0  0  0  0
    3.5804    0.9065   -1.2908 H   0  0  0  0  0  0  0  0  0  0  0  0
    3.6247   -0.8441   -1.5817 H   0  0  0  0  0  0  0  0  0  0  0  0
    3.8443    0.3431   -3.2864 N   0  0  0  0  0  0  0  0  0  0  0  0
    4.8501    0.3690   -3.2051 H   0  0  0  0  0  0  0  0  0  0  0  0
    3.5769   -0.4107   -3.9034 H   0  0  0  0  0  0  0  0  0  0  0  0
   -1.2712    1.3099    1.1517 C   0  0  0  0  0  0  0  0  0  0  0  0
   -2.2039    1.9448    0.6639 O   0  0  0  0  0  0  0  0  0  0  0  0
   -0.4306    1.8354    2.0503 N   0  0  0  0  0  0  0  0  0  0  0  0
    0.3001    1.2459    2.4139 H   0  0  0  0  0  0  0  0  0  0  0  0
   -0.5192    3.2082    2.5456 C   0  0  0  0  0  0  0  0  0  0  0  0
   -1.5166    3.3903    2.9518 H   0  0  0  0  0  0  0  0  0  0  0  0
    0.2240    3.3791    3.3257 H   0  0  0  0  0  0  0  0  0  0  0  0
   -0.3477    3.9067    1.7239 H   0  0  0  0  0  0  0  0  0  0  0  0
  5  6  2  0  0  0  0
  5  7  1  0  0  0  0
  2  3  1  0  0  0  0
  2  4  1  0  0  0  0
  2  5  1  0  0  0  0
  1  2  1  0  0  0  0
 26 27  2  0  0  0  0
 26 28  1  0  0  0  0
 23 24  1  0  0  0  0
 23 25  1  0  0  0  0
 20 21  1  0  0  0  0
 20 22  1  0  0  0  0
 20 23  1  0  0  0  0
 17 18  1  0  0  0  0
 17 19  1  0  0  0  0
 17 20  1  0  0  0  0
 14 15  1  0  0  0  0
 14 16  1  0  0  0  0
 14 17  1  0  0  0  0
 11 12  1  0  0  0  0
 11 13  1  0  0  0  0
 11 14  1  0  0  0  0
  9 10  1  0  0  0  0
  9 11  1  0  0  0  0
  9 26  1  0  0  0  0
  7  8  1  0  0  0  0
  7  9  1  0  0  0  0
 30 31  1  0  0  0  0
 30 32  1  0  0  0  0
 30 33  1  0  0  0  0
 28 29  1  0  0  0  0
 28 30  1  0  0  0  0
M  END
$$$$
default_name
  -OEChem-02102213163D

 33 32  0     1  0  0  0  0  0999 V2000
   -3.8420   -3.6918    1.5562 H   0  0  0  0  0  0  0  0  0  0  0  0
   -3.8430   -2.7008    1.1032 C   0  0  0  0  0  0  0  0  0  0  0  0
   -4.5510   -2.0608    1.6242 H   0  0  0  0  0  0  0  0  0  0  0  0
   -4.1140   -2.7798    0.0522 H   0  0  0  0  0  0  0  0  0  0  0  0
   -2.4570   -2.1098    1.2172 C   0  0  0  0  0  0  0  0  0  0  0  0
   -1.5600   -2.7438    1.7572 O   0  0  0  0  0  0  0  0  0  0  0  0
   -2.2870   -0.8898    0.7102 N   0  0  0  0  0  0  0  0  0  0  0  0
   -3.0820   -0.4218    0.2992 H   0  0  0  0  0  0  0  0  0  0  0  0
   -1.0240   -0.1468    0.7262 C   0  0  1  0  0  0  0  0  0  0  0  0
   -0.3583   -0.6100    1.4558 H   0  0  0  0  0  0  0  0  0  0  0  0
   -0.3739   -0.2459   -0.6675 C   0  0  0  0  0  0  0  0  0  0  0  0
   -0.6677   -1.1949   -1.1208 H   0  0  0  0  0  0  0  0  0  0  0  0
   -0.7480    0.5625   -1.2972 H   0  0  0  0  0  0  0  0  0  0  0  0
    1.1612   -0.1883   -0.6280 C   0  0  0  0  0  0  0  0  0  0  0  0
    1.4831    0.4116    0.2237 H   0  0  0  0  0  0  0  0  0  0  0  0
    1.5558   -1.2004   -0.5219 H   0  0  0  0  0  0  0  0  0  0  0  0
    1.7186    0.4381   -1.9112 C   0  0  0  0  0  0  0  0  0  0  0  0
    1.3982   -0.1470   -2.7738 H   0  0  0  0  0  0  0  0  0  0  0  0
    1.3460    1.4582   -2.0094 H   0  0  0  0  0  0  0  0  0  0  0  0
    3.2449    0.4605   -1.8565 C   0  0  0  0  0  0  0  0  0  0  0  0
    3.5674    1.0597   -1.0066 H   0  0  0  0  0  0  0  0  0  0  0  0
    3.6180   -0.5557   -1.7406 H   0  0  0  0  0  0  0  0  0  0  0  0
    3.8131    1.0335   -3.0822 N   0  0  0  0  0  0  0  0  0  0  0  0
    4.8196    1.0455   -3.0058 H   0  0  0  0  0  0  0  0  0  0  0  0
    3.5432    0.4628   -3.8707 H   0  0  0  0  0  0  0  0  0  0  0  0
   -1.2712    1.3099    1.1517 C   0  0  0  0  0  0  0  0  0  0  0  0
   -2.2039    1.9448    0.6639 O   0  0  0  0  0  0  0  0  0  0  0  0
   -0.4306    1.8354    2.0503 N   0  0  0  0  0  0  0  0  0  0  0  0
    0.3001    1.2459    2.4139 H   0  0  0  0  0  0  0  0  0  0  0  0
   -0.5192    3.2082    2.5456 C   0  0  0  0  0  0  0  0  0  0  0  0
   -1.5166    3.3903    2.9518 H   0  0  0  0  0  0  0  0  0  0  0  0
    0.2240    3.3791    3.3257 H   0  0  0  0  0  0  0  0  0  0  0  0
   -0.3477    3.9067    1.7239 H   0  0  0  0  0  0  0  0  0  0  0  0
  5  6  2  0  0  0  0
  5  7  1  0  0  0  0
  2  3  1  0  0  0  0
  2  4  1  0  0  0  0
  2  5  1  0  0  0  0
  1  2  1  0  0  0  0
 26 27  2  0  0  0  0
 26 28  1  0  0  0  0
 23 24  1  0  0  0  0
 23 25  1  0  0  0  0
 20 21  1  0  0  0  0
 20 22  1  0  0  0  0
 20 23  1  0  0  0  0
 17 18  1  0  0  0  0
 17 19  1  0  0  0  0
 17 20  1  0  0  0  0
 14 15  1  0  0  0  0
 14 16  1  0  0  0  0
 14 17  1  0  0  0  0
 11 12  1  0  0  0  0
 11 13  1  0  0  0  0
 11 14  1  0  0  0  0
  9 10  1  0  0  0  0
  9 11  1  0  0  0  0
  9 26  1  0  0  0  0
  7  8  1  0  0  0  0
  7  9  1  0  0  0  0
 30 31  1  0  0  0  0
 30 32  1  0  0  0  0
 30 33  1  0  0  0  0
 28 29  1  0  0  0  0
 28 30  1  0  0  0  0
M  END
$$$$
default_name
  -OEChem-02102213163D

 33 32  0     1  0  0  0  0  0999 V2000
   -3.8420   -3.6918    1.5562 H   0  0  0  0  0  0  0  0  0  0  0  0
   -3.8430   -2.7008    1.1032 C   0  0  0  0  0  0  0  0  0  0  0  0
   -4.5510   -2.0608    1.6242 H   0  0  0  0  0  0  0  0  0  0  0  0
   -4.1140   -2.7798    0.0522 H   0  0  0  0  0  0  0  0  0  0  0  0
   -2.4570   -2.1098    1.2172 C   0  0  0  0  0  0  0  0  0  0  0  0
   -1.5600   -2.7438    1.7572 O   0  0  0  0  0  0  0  0  0  0  0  0
   -2.2870   -0.8898    0.7102 N   0  0  0  0  0  0  0  0  0  0  0  0
   -3.0820   -0.4218    0.2992 H   0  0  0  0  0  0  0  0  0  0  0  0
   -1.0240   -0.1468    0.7262 C   0  0  1  0  0  0  0  0  0  0  0  0
   -0.3583   -0.6100    1.4558 H   0  0  0  0  0  0  0  0  0  0  0  0
   -0.3739   -0.2459   -0.6675 C   0  0  0  0  0  0  0  0  0  0  0  0
   -0.6677   -1.1949   -1.1208 H   0  0  0  0  0  0  0  0  0  0  0  0
   -0.7480    0.5625   -1.2972 H   0  0  0  0  0  0  0  0  0  0  0  0
    1.1612   -0.1883   -0.6280 C   0  0  0  0  0  0  0  0  0  0  0  0
    1.4889    0.1736    0.3470 H   0  0  0  0  0  0  0  0  0  0  0  0
    1.5623   -1.1903   -0.7907 H   0  0  0  0  0  0  0  0  0  0  0  0
    1.7016    0.7530   -1.7105 C   0  0  0  0  0  0  0  0  0  0  0  0
    1.3752    0.4082   -2.6921 H   0  0  0  0  0  0  0  0  0  0  0  0
    1.3226    1.7607   -1.5383 H   0  0  0  0  0  0  0  0  0  0  0  0
    3.2282    0.7726   -1.6653 C   0  0  0  0  0  0  0  0  0  0  0  0
    3.5565    1.1342   -0.6922 H   0  0  0  0  0  0  0  0  0  0  0  0
    3.6080   -0.2361   -1.8194 H   0  0  0  0  0  0  0  0  0  0  0  0
    3.7803    1.6474   -2.7061 N   0  0  0  0  0  0  0  0  0  0  0  0
    4.7875    1.6473   -2.6382 H   0  0  0  0  0  0  0  0  0  0  0  0
    3.5052    1.2979   -3.6130 H   0  0  0  0  0  0  0  0  0  0  0  0
   -1.2712    1.3099    1.1517 C   0  0  0  0  0  0  0  0  0  0  0  0
   -2.2039    1.9448    0.6639 O   0  0  0  0  0  0  0  0  0  0  0  0
   -0.4306    1.8354    2.0503 N   0  0  0  0  0  0  0  0  0  0  0  0
    0.3001    1.2459    2.4139 H   0  0  0  0  0  0  0  0  0  0  0  0
   -0.5192    3.2082    2.5456 C   0  0  0  0  0  0  0  0  0  0  0  0
   -1.5166    3.3903    2.9518 H   0  0  0  0  0  0  0  0  0  0  0  0
    0.2240    3.3791    3.3257 H   0  0  0  0  0  0  0  0  0  0  0  0
   -0.3477    3.9067    1.7239 H   0  0  0  0  0  0  0  0  0  0  0  0
  5  6  2  0  0  0  0
  5  7  1  0  0  0  0
  2  3  1  0  0  0  0
  2  4  1  0  0  0  0
  2  5  1  0  0  0  0
  1  2  1  0  0  0  0
 26 27  2  0  0  0  0
 26 28  1  0  0  0  0
 23 24  1  0  0  0  0
 23 25  1  0  0  0  0
 20 21  1  0  0  0  0
 20 22  1  0  0  0  0
 20 23  1  0  0  0  0
 17 18  1  0  0  0  0
 17 19  1  0  0  0  0
 17 20  1  0  0  0  0
 14 15  1  0  0  0  0
 14 16  1  0  0  0  0
 14 17  1  0  0  0  0
 11 12  1  0  0  0  0
 11 13  1  0  0  0  0
 11 14  1  0  0  0  0
  9 10  1  0  0  0  0
  9 11  1  0  0  0  0
  9 26  1  0  0  0  0
  7  8  1  0  0  0  0
  7  9  1  0  0  0  0
 30 31  1  0  0  0  0
 30 32  1  0  0  0  0
 30 33  1  0  0  0  0
 28 29  1  0  0  0  0
 28 30  1  0  0  0  0
M  END
$$$$
default_name
  -OEChem-02102213163D

 33 32  0     1  0  0  0  0  0999 V2000
   -3.8420   -3.6918    1.5562 H   0  0  0  0  0  0  0  0  0  0  0  0
   -3.8430   -2.7008    1.1032 C   0  0  0  0  0  0  0  0  0  0  0  0
   -4.5510   -2.0608    1.6242 H   0  0  0  0  0  0  0  0  0  0  0  0
   -4.1140   -2.7798    0.0522 H   0  0  0  0  0  0  0  0  0  0  0  0
   -2.4570   -2.1098    1.2172 C   0  0  0  0  0  0  0  0  0  0  0  0
   -1.5600   -2.7438    1.7572 O   0  0  0  0  0  0  0  0  0  0  0  0
   -2.2870   -0.8898    0.7102 N   0  0  0  0  0  0  0  0  0  0  0  0
   -3.0820   -0.4218    0.2992 H   0  0  0  0  0  0  0  0  0  0  0  0
   -1.0240   -0.1468    0.7262 C   0  0  1  0  0  0  0  0  0  0  0  0
   -0.3583   -0.6100    1.4558 H   0  0  0  0  0  0  0  0  0  0  0  0
   -0.3739   -0.2459   -0.6675 C   0  0  0  0  0  0  0  0  0  0  0  0
   -0.6677   -1.1949   -1.1208 H   0  0  0  0  0  0  0  0  0  0  0  0
   -0.7480    0.5625   -1.2972 H   0  0  0  0  0  0  0  0  0  0  0  0
    1.1612   -0.1883   -0.6280 C   0  0  0  0  0  0  0  0  0  0  0  0
    1.4973   -0.0882    0.4044 H   0  0  0  0  0  0  0  0  0  0  0  0
    1.5660   -1.1109   -1.0478 H   0  0  0  0  0  0  0  0  0  0  0  0
    1.6850    1.0051   -1.4350 C   0  0  0  0  0  0  0  0  0  0  0  0
    1.3501    0.9232   -2.4695 H   0  0  0  0  0  0  0  0  0  0  0  0
    1.3024    1.9310   -1.0047 H   0  0  0  0  0  0  0  0  0  0  0  0
    3.2120    1.0245   -1.3998 C   0  0  0  0  0  0  0  0  0  0  0  0
    3.5485    1.1248   -0.3692 H   0  0  0  0  0  0  0  0  0  0  0  0
    3.5955    0.0930   -1.8129 H   0  0  0  0  0  0  0  0  0  0  0  0
    3.7483    2.1429   -2.1838 N   0  0  0  0  0  0  0  0  0  0  0  0
    4.7561    2.1332   -2.1271 H   0  0  0  0  0  0  0  0  0  0  0  0
    3.4655    2.0376   -3.1478 H   0  0  0  0  0  0  0  0  0  0  0  0
   -1.2712    1.3099    1.1517 C   0  0  0  0  0  0  0  0  0  0  0  0
   -2.2039    1.9448    0.6639 O   0  0  0  0  0  0  0  0  0  0  0  0
   -0.4306    1.8354    2.0503 N   0  0  0  0  0  0  0  0  0  0  0  0
    0.3001    1.2459    2.4139 H   0  0  0  0  0  0  0  0  0  0  0  0
   -0.5192    3.2082    2.5456 C   0  0  0  0  0  0  0  0  0  0  0  0
   -1.5166    3.3903    2.9518 H   0  0  0  0  0  0  0  0  0  0  0  0
    0.2240    3.3791    3.3257 H   0  0  0  0  0  0  0  0  0  0  0  0
   -0.3477    3.9067    1.7239 H   0  0  0  0  0  0  0  0  0  0  0  0
  5  6  2  0  0  0  0
  5  7  1  0  0  0  0
  2  3  1  0  0  0  0
  2  4  1  0  0  0  0
  2  5  1  0  0  0  0
  1  2  1  0  0  0  0
 26 27  2  0  0  0  0
 26 28  1  0  0  0  0
 23 24  1  0  0  0  0
 23 25  1  0  0  0  0
 20 21  1  0  0  0  0
 20 22  1  0  0  0  0
 20 23  1  0  0  0  0
 17 18  1  0  0  0  0
 17 19  1  0  0  0  0
 17 20  1  0  0  0  0
 14 15  1  0  0  0  0
 14 16  1  0  0  0  0
 14 17  1  0  0  0  0
 11 12  1  0  0  0  0
 11 13  1  0  0  0  0
 11 14  1  0  0  0  0
  9 10  1  0  0  0  0
  9 11  1  0  0  0  0
  9 26  1  0  0  0  0
  7  8  1  0  0  0  0
  7  9  1  0  0  0  0
 30 31  1  0  0  0  0
 30 32  1  0  0  0  0
 30 33  1  0  0  0  0
 28 29  1  0  0  0  0
 28 30  1  0  0  0  0
M  END
$$$$
default_name
  -OEChem-02102213163D

 33 32  0     1  0  0  0  0  0999 V2000
   -3.8420   -3.6918    1.5562 H   0  0  0  0  0  0  0  0  0  0  0  0
   -3.8430   -2.7008    1.1032 C   0  0  0  0  0  0  0  0  0  0  0  0
   -4.5510   -2.0608    1.6242 H   0  0  0  0  0  0  0  0  0  0  0  0
   -4.1140   -2.7798    0.0522 H   0  0  0  0  0  0  0  0  0  0  0  0
   -2.4570   -2.1098    1.2172 C   0  0  0  0  0  0  0  0  0  0  0  0
   -1.5600   -2.7438    1.7572 O   0  0  0  0  0  0  0  0  0  0  0  0
   -2.2870   -0.8898    0.7102 N   0  0  0  0  0  0  0  0  0  0  0  0
   -3.0820   -0.4218    0.2992 H   0  0  0  0  0  0  0  0  0  0  0  0
   -1.0240   -0.1468    0.7262 C   0  0  1  0  0  0  0  0  0  0  0  0
   -0.3583   -0.6100    1.4558 H   0  0  0  0  0  0  0  0  0  0  0  0
   -0.3739   -0.2459   -0.6675 C   0  0  0  0  0  0  0  0  0  0  0  0
   -0.6677   -1.1949   -1.1208 H   0  0  0  0  0  0  0  0  0  0  0  0
   -0.7480    0.5625   -1.2972 H   0  0  0  0  0  0  0  0  0  0  0  0
    1.1612   -0.1883   -0.6280 C   0  0  0  0  0  0  0  0  0  0  0  0
    1.5076   -0.3558    0.3922 H   0  0  0  0  0  0  0  0  0  0  0  0
    1.5664   -0.9678   -1.2757 H   0  0  0  0  0  0  0  0  0  0  0  0
    1.6700    1.1772   -1.1036 C   0  0  0  0  0  0  0  0  0  0  0  0
    1.3247    1.3630   -2.1211 H   0  0  0  0  0  0  0  0  0  0  0  0
    1.2870    1.9574   -0.4451 H   0  0  0  0  0  0  0  0  0  0  0  0
    3.1971    1.1990   -1.0781 C   0  0  0  0  0  0  0  0  0  0  0  0
    3.5440    1.0322   -0.0596 H   0  0  0  0  0  0  0  0  0  0  0  0
    3.5813    0.4090   -1.7213 H   0  0  0  0  0  0  0  0  0  0  0  0
    3.7191    2.4864   -1.5509 N   0  0  0  0  0  0  0  0  0  0  0  0
    4.7275    2.4703   -1.5075 H   0  0  0  0  0  0  0  0  0  0  0  0
    3.4267    2.6315   -2.5068 H   0  0  0  0  0  0  0  0  0  0  0  0
   -1.2712    1.3099    1.1517 C   0  0  0  0  0  0  0  0  0  0  0  0
   -2.2039    1.9448    0.6639 O   0  0  0  0  0  0  0  0  0  0  0  0
   -0.4306    1.8354    2.0503 N   0  0  0  0  0  0  0  0  0  0  0  0
    0.3001    1.2459    2.4139 H   0  0  0  0  0  0  0  0  0  0  0  0
   -0.5192    3.2082    2.5456 C   0  0  0  0  0  0  0  0  0  0  0  0
   -1.5166    3.3903    2.9518 H   0  0  0  0  0  0  0  0  0  0  0  0
    0.2240    3.3791    3.3257 H   0  0  0  0  0  0  0  0  0  0  0  0
   -0.3477    3.9067    1.7239 H   0  0  0  0  0  0  0  0  0  0  0  0
  5  6  2  0  0  0  0
  5  7  1  0  0  0  0
  2  3  1  0  0  0  0
  2  4  1  0  0  0  0
  2  5  1  0  0  0  0
  1  2  1  0  0  0  0
 26 27  2  0  0  0  0
 26 28  1  0  0  0  0
 23 24  1  0  0  0  0
 23 25  1  0  0  0  0
 20 21  1  0  0  0  0
 20 22  1  0  0  0  0
 20 23  1  0  0  0  0
 17 18  1  0  0  0  0
 17 19  1  0  0  0  0
 17 20  1  0  0  0  0
 14 15  1  0  0  0  0
 14 16  1  0  0  0  0
 14 17  1  0  0  0  0
 11 12  1  0  0  0  0
 11 13  1  0  0  0  0
 11 14  1  0  0  0  0
  9 10  1  0  0  0  0
  9 11  1  0  0  0  0
  9 26  1  0  0  0  0
  7  8  1  0  0  0  0
  7  9  1  0  0  0  0
 30 31  1  0  0  0  0
 30 32  1  0  0  0  0
 30 33  1  0  0  0  0
 28 29  1  0  0  0  0
 28 30  1  0  0  0  0
M  END
$$$$
default_name
  -OEChem-02102213163D

 33 32  0     1  0  0  0  0  0999 V2000
   -3.8420   -3.6918    1.5562 H   0  0  0  0  0  0  0  0  0  0  0  0
   -3.8430   -2.7008    1.1032 C   0  0  0  0  0  0  0  0  0  0  0  0
   -4.5510   -2.0608    1.6242 H   0  0  0  0  0  0  0  0  0  0  0  0
   -4.1140   -2.7798    0.0522 H   0  0  0  0  0  0  0  0  0  0  0  0
   -2.4570   -2.1098    1.2172 C   0  0  0  0  0  0  0  0  0  0  0  0
   -1.5600   -2.7438    1.7572 O   0  0  0  0  0  0  0  0  0  0  0  0
   -2.2870   -0.8898    0.7102 N   0  0  0  0  0  0  0  0  0  0  0  0
   -3.0820   -0.4218    0.2992 H   0  0  0  0  0  0  0  0  0  0  0  0
   -1.0240   -0.1468    0.7262 C   0  0  1  0  0  0  0  0  0  0  0  0
   -0.3583   -0.6100    1.4558 H   0  0  0  0  0  0  0  0  0  0  0  0
   -0.3739   -0.2459   -0.6675 C   0  0  0  0  0  0  0  0  0  0  0  0
   -0.6677   -1.1949   -1.1208 H   0  0  0  0  0  0  0  0  0  0  0  0
   -0.7480    0.5625   -1.2972 H   0  0  0  0  0  0  0  0  0  0  0  0
    1.1612   -0.1883   -0.6280 C   0  0  0  0  0  0  0  0  0  0  0  0
    1.5193   -0.6111    0.3110 H   0  0  0  0  0  0  0  0  0  0  0  0
    1.5638   -0.7706   -1.4588 H   0  0  0  0  0  0  0  0  0  0  0  0
    1.6576    1.2578   -0.7388 C   0  0  0  0  0  0  0  0  0  0  0  0
    1.3005    1.6975   -1.6706 H   0  0  0  0  0  0  0  0  0  0  0  0
    1.2774    1.8382    0.1024 H   0  0  0  0  0  0  0  0  0  0  0  0
    3.1848    1.2843   -0.7220 C   0  0  0  0  0  0  0  0  0  0  0  0
    3.5433    0.8626    0.2156 H   0  0  0  0  0  0  0  0  0  0  0  0
    3.5663    0.6905   -1.5510 H   0  0  0  0  0  0  0  0  0  0  0  0
    3.6948    2.6542   -0.8505 N   0  0  0  0  0  0  0  0  0  0  0  0
    4.7036    2.6355   -0.8216 H   0  0  0  0  0  0  0  0  0  0  0  0
    3.3915    3.0392   -1.7337 H   0  0  0  0  0  0  0  0  0  0  0  0
   -1.2712    1.3099    1.1517 C   0  0  0  0  0  0  0  0  0  0  0  0
   -2.2039    1.9448    0.6639 O   0  0  0  0  0  0  0  0  0  0  0  0
   -0.4306    1.8354    2.0503 N   0  0  0  0  0  0  0  0  0  0  0  0
    0.3001    1.2459    2.4139 H   0  0  0  0  0  0  0  0  0  0  0  0
   -0.5192    3.2082    2.5456 C   0  0  0  0  0  0  0  0  0  0  0  0
   -1.5166    3.3903    2.9518 H   0  0  0  0  0  0  0  0  0  0  0  0
    0.2240    3.3791    3.3257 H   0  0  0  0  0  0  0  0  0  0  0  0
   -0.3477    3.9067    1.7239 H   0  0  0  0  0  0  0  0  0  0  0  0
  5  6  2  0  0  0  0
  5  7  1  0  0  0  0
  2  3  1  0  0  0  0
  2  4  1  0  0  0  0
  2  5  1  0  0  0  0
  1  2  1  0  0  0  0
 26 27  2  0  0  0  0
 26 28  1  0  0  0  0
 23 24  1  0  0  0  0
 23 25  1  0  0  0  0
 20 21  1  0  0  0  0
 20 22  1  0  0  0  0
 20 23  1  0  0  0  0
 17 18  1  0  0  0  0
 17 19  1  0  0  0  0
 17 20  1  0  0  0  0
 14 15  1  0  0  0  0
 14 16  1  0  0  0  0
 14 17  1  0  0  0  0
 11 12  1  0  0  0  0
 11 13  1  0  0  0  0
 11 14  1  0  0  0  0
  9 10  1  0  0  0  0
  9 11  1  0  0  0  0
  9 26  1  0  0  0  0
  7  8  1  0  0  0  0
  7  9  1  0  0  0  0
 30 31  1  0  0  0  0
 30 32  1  0  0  0  0
 30 33  1  0  0  0  0
 28 29  1  0  0  0  0
 28 30  1  0  0  0  0
M  END
$$$$
default_name
  -OEChem-02102213163D

 33 32  0     1  0  0  0  0  0999 V2000
   -3.8420   -3.6918    1.5562 H   0  0  0  0  0  0  0  0  0  0  0  0
   -3.8430   -2.7008    1.1032 C   0  0  0  0  0  0  0  0  0  0  0  0
   -4.5510   -2.0608    1.6242 H   0  0  0  0  0  0  0  0  0  0  0  0
   -4.1140   -2.7798    0.0522 H   0  0  0  0  0  0  0  0  0  0  0  0
   -2.4570   -2.1098    1.2172 C   0  0  0  0  0  0  0  0  0  0  0  0
   -1.5600   -2.7438    1.7572 O   0  0  0  0  0  0  0  0  0  0  0  0
   -2.2870   -0.8898    0.7102 N   0  0  0  0  0  0  0  0  0  0  0  0
   -3.0820   -0.4218    0.2992 H   0  0  0  0  0  0  0  0  0  0  0  0
   -1.0240   -0.1468    0.7262 C   0  0  1  0  0  0  0  0  0  0  0  0
   -0.3583   -0.6100    1.4558 H   0  0  0  0  0  0  0  0  0  0  0  0
   -0.3739   -0.2459   -0.6675 C   0  0  0  0  0  0  0  0  0  0  0  0
   -0.6677   -1.1949   -1.1208 H   0  0  0  0  0  0  0  0  0  0  0  0
   -0.7480    0.5625   -1.2972 H   0  0  0  0  0  0  0  0  0  0  0  0
    1.1612   -0.1883   -0.6280 C   0  0  0  0  0  0  0  0  0  0  0  0
    1.5315   -0.8366    0.1666 H   0  0  0  0  0  0  0  0  0  0  0  0
    1.5581   -0.5328   -1.5847 H   0  0  0  0  0  0  0  0  0  0  0  0
    1.6486    1.2412   -0.3655 C   0  0  0  0  0  0  0  0  0  0  0  0
    1.2793    1.9039   -1.1487 H   0  0  0  0  0  0  0  0  0  0  0  0
    1.2743    1.5813    0.6005 H   0  0  0  0  0  0  0  0  0  0  0  0
    3.1757    1.2745   -0.3559 C   0  0  0  0  0  0  0  0  0  0  0  0
    3.5464    0.6277    0.4376 H   0  0  0  0  0  0  0  0  0  0  0  0
    3.5516    0.9183   -1.3136 H   0  0  0  0  0  0  0  0  0  0  0  0
    3.6770    2.6351   -0.1303 N   0  0  0  0  0  0  0  0  0  0  0  0
    4.6862    2.6176   -0.1162 H   0  0  0  0  0  0  0  0  0  0  0  0
    3.3623    3.2330   -0.8812 H   0  0  0  0  0  0  0  0  0  0  0  0
   -1.2712    1.3099    1.1517 C   0  0  0  0  0  0  0  0  0  0  0  0
   -2.2039    1.9448    0.6639 O   0  0  0  0  0  0  0  0  0  0  0  0
   -0.4306    1.8354    2.0503 N   0  0  0  0  0  0  0  0  0  0  0  0
    0.3001    1.2459    2.4139 H   0  0  0  0  0  0  0  0  0  0  0  0
   -0.5192    3.2082    2.5456 C   0  0  0  0  0  0  0  0  0  0  0  0
   -1.5166    3.3903    2.9518 H   0  0  0  0  0  0  0  0  0  0  0  0
    0.2240    3.3791    3.3257 H   0  0  0  0  0  0  0  0  0  0  0  0
   -0.3477    3.9067    1.7239 H   0  0  0  0  0  0  0  0  0  0  0  0
  5  6  2  0  0  0  0
  5  7  1  0  0  0  0
  2  3  1  0  0  0  0
  2  4  1  0  0  0  0
  2  5  1  0  0  0  0
  1  2  1  0  0  0  0
 26 27  2  0  0  0  0
 26 28  1  0  0  0  0
 23 24  1  0  0  0  0
 23 25  1  0  0  0  0
 20 21  1  0  0  0  0
 20 22  1  0  0  0  0
 20 23  1  0  0  0  0
 17 18  1  0  0  0  0
 17 19  1  0  0  0  0
 17 20  1  0  0  0  0
 14 15  1  0  0  0  0
 14 16  1  0  0  0  0
 14 17  1  0  0  0  0
 11 12  1  0  0  0  0
 11 13  1  0  0  0  0
 11 14  1  0  0  0  0
  9 10  1  0  0  0  0
  9 11  1  0  0  0  0
  9 26  1  0  0  0  0
  7  8  1  0  0  0  0
  7  9  1  0  0  0  0
 30 31  1  0  0  0  0
 30 32  1  0  0  0  0
 30 33  1  0  0  0  0
 28 29  1  0  0  0  0
 28 30  1  0  0  0  0
M  END
$$$$
default_name
  -OEChem-02102213163D

 33 32  0     1  0  0  0  0  0999 V2000
   -3.8420   -3.6918    1.5562 H   0  0  0  0  0  0  0  0  0  0  0  0
   -3.8430   -2.7008    1.1032 C   0  0  0  0  0  0  0  0  0  0  0  0
   -4.5510   -2.0608    1.6242 H   0  0  0  0  0  0  0  0  0  0  0  0
   -4.1140   -2.7798    0.0522 H   0  0  0  0  0  0  0  0  0  0  0  0
   -2.4570   -2.1098    1.2172 C   0  0  0  0  0  0  0  0  0  0  0  0
   -1.5600   -2.7438    1.7572 O   0  0  0  0  0  0  0  0  0  0  0  0
   -2.2870   -0.8898    0.7102 N   0  0  0  0  0  0  0  0  0  0  0  0
   -3.0820   -0.4218    0.2992 H   0  0  0  0  0  0  0  0  0  0  0  0
   -1.0240   -0.1468    0.7262 C   0  0  1  0  0  0  0  0  0  0  0  0
   -0.3583   -0.6100    1.4558 H   0  0  0  0  0  0  0  0  0  0  0  0
   -0.3739   -0.2459   -0.6675 C   0  0  0  0  0  0  0  0  0  0  0  0
   -0.6677   -1.1949   -1.1208 H   0  0  0  0  0  0  0  0  0  0  0  0
   -0.7480    0.5625   -1.2972 H   0  0  0  0  0  0  0  0  0  0  0  0
    1.1612   -0.1883   -0.6280 C   0  0  0  0  0  0  0  0  0  0  0  0
    1.5434   -1.0171   -0.0314 H   0  0  0  0  0  0  0  0  0  0  0  0
    1.5498   -0.2706   -1.6447 H   0  0  0  0  0  0  0  0  0  0  0  0
    1.6437    1.1285   -0.0091 C   0  0  0  0  0  0  0  0  0  0  0  0
    1.2626    1.9683   -0.5910 H   0  0  0  0  0  0  0  0  0  0  0  0
    1.2777    1.2044    1.0152 H   0  0  0  0  0  0  0  0  0  0  0  0
    3.1706    1.1704   -0.0047 C   0  0  0  0  0  0  0  0  0  0  0  0
    3.5532    0.3434    0.5912 H   0  0  0  0  0  0  0  0  0  0  0  0
    3.5383    1.0769   -1.0252 H   0  0  0  0  0  0  0  0  0  0  0  0
    3.6669    2.4303    0.5606 N   0  0  0  0  0  0  0  0  0  0  0  0
    4.6762    2.4178    0.5608 H   0  0  0  0  0  0  0  0  0  0  0  0
    3.3410    3.1994   -0.0073 H   0  0  0  0  0  0  0  0  0  0  0  0
   -1.2712    1.3099    1.1517 C   0  0  0  0  0  0  0  0  0  0  0  0
   -2.2039    1.9448    0.6639 O   0  0  0  0  0  0  0  0  0  0  0  0
   -0.4306    1.8354    2.0503 N   0  0  0  0  0  0  0  0  0  0  0  0
    0.3001    1.2459    2.4139 H   0  0  0  0  0  0  0  0  0  0  0  0
   -0.5192    3.2082    2.5456 C   0  0  0  0  0  0  0  0  0  0  0  0
   -1.5166    3.3903    2.9518 H   0  0  0  0  0  0  0  0  0  0  0  0
    0.2240    3.3791    3.3257 H   0  0  0  0  0  0  0  0  0  0  0  0
   -0.3477    3.9067    1.7239 H   0  0  0  0  0  0  0  0  0  0  0  0
  5  6  2  0  0  0  0
  5  7  1  0  0  0  0
  2  3  1  0  0  0  0
  2  4  1  0  0  0  0
  2  5  1  0  0  0  0
  1  2  1  0  0  0  0
 26 27  2  0  0  0  0
 26 28  1  0  0  0  0
 23 24  1  0  0  0  0
 23 25  1  0  0  0  0
 20 21  1  0  0  0  0
 20 22  1  0  0  0  0
 20 23  1  0  0  0  0
 17 18  1  0  0  0  0
 17 19  1  0  0  0  0
 17 20  1  0  0  0  0
 14 15  1  0  0  0  0
 14 16  1  0  0  0  0
 14 17  1  0  0  0  0
 11 12  1  0  0  0  0
 11 13  1  0  0  0  0
 11 14  1  0  0  0  0
  9 10  1  0  0  0  0
  9 11  1  0  0  0  0
  9 26  1  0  0  0  0
  7  8  1  0  0  0  0
  7  9  1  0  0  0  0
 30 31  1  0  0  0  0
 30 32  1  0  0  0  0
 30 33  1  0  0  0  0
 28 29  1  0  0  0  0
 28 30  1  0  0  0  0
M  END
$$$$
default_name
  -OEChem-02102213163D

 33 32  0     1  0  0  0  0  0999 V2000
   -3.8420   -3.6918    1.5562 H   0  0  0  0  0  0  0  0  0  0  0  0
   -3.8430   -2.7008    1.1032 C   0  0  0  0  0  0  0  0  0  0  0  0
   -4.5510   -2.0608    1.6242 H   0  0  0  0  0  0  0  0  0  0  0  0
   -4.1140   -2.7798    0.0522 H   0  0  0  0  0  0  0  0  0  0  0  0
   -2.4570   -2.1098    1.2172 C   0  0  0  0  0  0  0  0  0  0  0  0
   -1.5600   -2.7438    1.7572 O   0  0  0  0  0  0  0  0  0  0  0  0
   -2.2870   -0.8898    0.7102 N   0  0  0  0  0  0  0  0  0  0  0  0
   -3.0820   -0.4218    0.2992 H   0  0  0  0  0  0  0  0  0  0  0  0
   -1.0240   -0.1468    0.7262 C   0  0  1  0  0  0  0  0  0  0  0  0
   -0.3583   -0.6100    1.4558 H   0  0  0  0  0  0  0  0  0  0  0  0
   -0.3739   -0.2459   -0.6675 C   0  0  0  0  0  0  0  0  0  0  0  0
   -0.6677   -1.1949   -1.1208 H   0  0  0  0  0  0  0  0  0  0  0  0
   -0.7480    0.5625   -1.2972 H   0  0  0  0  0  0  0  0  0  0  0  0
    1.1612   -0.1883   -0.6280 C   0  0  0  0  0  0  0  0  0  0  0  0
    1.5541   -1.1400   -0.2694 H   0  0  0  0  0  0  0  0  0  0  0  0
    1.5394   -0.0019   -1.6348 H   0  0  0  0  0  0  0  0  0  0  0  0
    1.6431    0.9276    0.3060 C   0  0  0  0  0  0  0  0  0  0  0  0
    1.2513    1.8861   -0.0355 H   0  0  0  0  0  0  0  0  0  0  0  0
    1.2876    0.7332    1.3184 H   0  0  0  0  0  0  0  0  0  0  0  0
    3.1697    0.9790    0.3076 C   0  0  0  0  0  0  0  0  0  0  0  0
    3.5631    0.0291    0.6660 H   0  0  0  0  0  0  0  0  0  0  0  0
    3.5271    1.1554   -0.7056 H   0  0  0  0  0  0  0  0  0  0  0  0
    3.6652    2.0538    1.1751 N   0  0  0  0  0  0  0  0  0  0  0  0
    4.6746    2.0496    1.1631 H   0  0  0  0  0  0  0  0  0  0  0  0
    3.3292    2.9410    0.8283 H   0  0  0  0  0  0  0  0  0  0  0  0
   -1.2712    1.3099    1.1517 C   0  0  0  0  0  0  0  0  0  0  0  0
   -2.2039    1.9448    0.6639 O   0  0  0  0  0  0  0  0  0  0  0  0
   -0.4306    1.8354    2.0503 N   0  0  0  0  0  0  0  0  0  0  0  0
    0.3001    1.2459    2.4139 H   0  0  0  0  0  0  0  0  0  0  0  0
   -0.5192    3.2082    2.5456 C   0  0  0  0  0  0  0  0  0  0  0  0
   -1.5166    3.3903    2.9518 H   0  0  0  0  0  0  0  0  0  0  0  0
    0.2240    3.3791    3.3257 H   0  0  0  0  0  0  0  0  0  0  0  0
   -0.3477    3.9067    1.7239 H   0  0  0  0  0  0  0  0  0  0  0  0
  5  6  2  0  0  0  0
  5  7  1  0  0  0  0
  2  3  1  0  0  0  0
  2  4  1  0  0  0  0
  2  5  1  0  0  0  0
  1  2  1  0  0  0  0
 26 27  2  0  0  0  0
 26 28  1  0  0  0  0
 23 24  1  0  0  0  0
 23 25  1  0  0  0  0
 20 21  1  0  0  0  0
 20 22  1  0  0  0  0
 20 23  1  0  0  0  0
 17 18  1  0  0  0  0
 17 19  1  0  0  0  0
 17 20  1  0  0  0  0
 14 15  1  0  0  0  0
 14 16  1  0  0  0  0
 14 17  1  0  0  0  0
 11 12  1  0  0  0  0
 11 13  1  0  0  0  0
 11 14  1  0  0  0  0
  9 10  1  0  0  0  0
  9 11  1  0  0  0  0
  9 26  1  0  0  0  0
  7  8  1  0  0  0  0
  7  9  1  0  0  0  0
 30 31  1  0  0  0  0
 30 32  1  0  0  0  0
 30 33  1  0  0  0  0
 28 29  1  0  0  0  0
 28 30  1  0  0  0  0
M  END
$$$$
default_name
  -OEChem-02102213163D

 33 32  0     1  0  0  0  0  0999 V2000
   -3.8420   -3.6918    1.5562 H   0  0  0  0  0  0  0  0  0  0  0  0
   -3.8430   -2.7008    1.1032 C   0  0  0  0  0  0  0  0  0  0  0  0
   -4.5510   -2.0608    1.6242 H   0  0  0  0  0  0  0  0  0  0  0  0
   -4.1140   -2.7798    0.0522 H   0  0  0  0  0  0  0  0  0  0  0  0
   -2.4570   -2.1098    1.2172 C   0  0  0  0  0  0  0  0  0  0  0  0
   -1.5600   -2.7438    1.7572 O   0  0  0  0  0  0  0  0  0  0  0  0
   -2.2870   -0.8898    0.7102 N   0  0  0  0  0  0  0  0  0  0  0  0
   -3.0820   -0.4218    0.2992 H   0  0  0  0  0  0  0  0  0  0  0  0
   -1.0240   -0.1468    0.7262 C   0  0  1  0  0  0  0  0  0  0  0  0
   -0.3583   -0.6100    1.4558 H   0  0  0  0  0  0  0  0  0  0  0  0
   -0.3739   -0.2459   -0.6675 C   0  0  0  0  0  0  0  0  0  0  0  0
   -0.6677   -1.1949   -1.1208 H   0  0  0  0  0  0  0  0  0  0  0  0
   -0.7480    0.5625   -1.2972 H   0  0  0  0  0  0  0  0  0  0  0  0
    1.1612   -0.1883   -0.6280 C   0  0  0  0  0  0  0  0  0  0  0  0
    1.5630   -1.1972   -0.5312 H   0  0  0  0  0  0  0  0  0  0  0  0
    1.5277    0.2550   -1.5557 H   0  0  0  0  0  0  0  0  0  0  0  0
    1.6470    0.6520    0.5585 C   0  0  0  0  0  0  0  0  0  0  0  0
    1.2465    1.6631    0.4799 H   0  0  0  0  0  0  0  0  0  0  0  0
    1.3033    0.1997    1.4892 H   0  0  0  0  0  0  0  0  0  0  0  0
    3.1732    0.7133    0.5598 C   0  0  0  0  0  0  0  0  0  0  0  0
    3.5754   -0.2938    0.6569 H   0  0  0  0  0  0  0  0  0  0  0  0
    3.5189    1.1485   -0.3764 H   0  0  0  0  0  0  0  0  0  0  0  0
    3.6721    1.5312    1.6714 N   0  0  0  0  0  0  0  0  0  0  0  0
    4.6813    1.5383    1.6498 H   0  0  0  0  0  0  0  0  0  0  0  0
    3.3277    2.4753    1.5687 H   0  0  0  0  0  0  0  0  0  0  0  0
   -1.2712    1.3099    1.1517 C   0  0  0  0  0  0  0  0  0  0  0  0
   -2.2039    1.9448    0.6639 O   0  0  0  0  0  0  0  0  0  0  0  0
   -0.4306    1.8354    2.0503 N   0  0  0  0  0  0  0  0  0  0  0  0
    0.3001    1.2459    2.4139 H   0  0  0  0  0  0  0  0  0  0  0  0
   -0.5192    3.2082    2.5456 C   0  0  0  0  0  0  0  0  0  0  0  0
   -1.5166    3.3903    2.9518 H   0  0  0  0  0  0  0  0  0  0  0  0
    0.2240    3.3791    3.3257 H   0  0  0  0  0  0  0  0  0  0  0  0
   -0.3477    3.9067    1.7239 H   0  0  0  0  0  0  0  0  0  0  0  0
  5  6  2  0  0  0  0
  5  7  1  0  0  0  0
  2  3  1  0  0  0  0
  2  4  1  0  0  0  0
  2  5  1  0  0  0  0
  1  2  1  0  0  0  0
 26 27  2  0  0  0  0
 26 28  1  0  0  0  0
 23 24  1  0  0  0  0
 23 25  1  0  0  0  0
 20 21  1  0  0  0  0
 20 22  1  0  0  0  0
 20 23  1  0  0  0  0
 17 18  1  0  0  0  0
 17 19  1  0  0  0  0
 17 20  1  0  0  0  0
 14 15  1  0  0  0  0
 14 16  1  0  0  0  0
 14 17  1  0  0  0  0
 11 12  1  0  0  0  0
 11 13  1  0  0  0  0
 11 14  1  0  0  0  0
  9 10  1  0  0  0  0
  9 11  1  0  0  0  0
  9 26  1  0  0  0  0
  7  8  1  0  0  0  0
  7  9  1  0  0  0  0
 30 31  1  0  0  0  0
 30 32  1  0  0  0  0
 30 33  1  0  0  0  0
 28 29  1  0  0  0  0
 28 30  1  0  0  0  0
M  END
$$$$
default_name
  -OEChem-02102213163D

 33 32  0     1  0  0  0  0  0999 V2000
   -3.8420   -3.6918    1.5562 H   0  0  0  0  0  0  0  0  0  0  0  0
   -3.8430   -2.7008    1.1032 C   0  0  0  0  0  0  0  0  0  0  0  0
   -4.5510   -2.0608    1.6242 H   0  0  0  0  0  0  0  0  0  0  0  0
   -4.1140   -2.7798    0.0522 H   0  0  0  0  0  0  0  0  0  0  0  0
   -2.4570   -2.1098    1.2172 C   0  0  0  0  0  0  0  0  0  0  0  0
   -1.5600   -2.7438    1.7572 O   0  0  0  0  0  0  0  0  0  0  0  0
   -2.2870   -0.8898    0.7102 N   0  0  0  0  0  0  0  0  0  0  0  0
   -3.0820   -0.4218    0.2992 H   0  0  0  0  0  0  0  0  0  0  0  0
   -1.0240   -0.1468    0.7262 C   0  0  1  0  0  0  0  0  0  0  0  0
   -0.3583   -0.6100    1.4558 H   0  0  0  0  0  0  0  0  0  0  0  0
   -0.3739   -0.2459   -0.6675 C   0  0  0  0  0  0  0  0  0  0  0  0
   -0.6677   -1.1949   -1.1208 H   0  0  0  0  0  0  0  0  0  0  0  0
   -0.7480    0.5625   -1.2972 H   0  0  0  0  0  0  0  0  0  0  0  0
    1.1612   -0.1883   -0.6280 C   0  0  0  0  0  0  0  0  0  0  0  0
    1.5694   -1.1847   -0.7990 H   0  0  0  0  0  0  0  0  0  0  0  0
    1.5155    0.4827   -1.4127 H   0  0  0  0  0  0  0  0  0  0  0  0
    1.6550    0.3205    0.7311 C   0  0  0  0  0  0  0  0  0  0  0  0
    1.2482    1.3144    0.9202 H   0  0  0  0  0  0  0  0  0  0  0  0
    1.3236   -0.3598    1.5162 H   0  0  0  0  0  0  0  0  0  0  0  0
    3.1808    0.3915    0.7348 C   0  0  0  0  0  0  0  0  0  0  0  0
    3.5894   -0.6032    0.5645 H   0  0  0  0  0  0  0  0  0  0  0  0
    3.5142    1.0566   -0.0602 H   0  0  0  0  0  0  0  0  0  0  0  0
    3.6870    0.8982    2.0155 N   0  0  0  0  0  0  0  0  0  0  0  0
    4.6958    0.9186    1.9876 H   0  0  0  0  0  0  0  0  0  0  0  0
    3.3365    1.8339    2.1635 H   0  0  0  0  0  0  0  0  0  0  0  0
   -1.2712    1.3099    1.1517 C   0  0  0  0  0  0  0  0  0  0  0  0
   -2.2039    1.9448    0.6639 O   0  0  0  0  0  0  0  0  0  0  0  0
   -0.4306    1.8354    2.0503 N   0  0  0  0  0  0  0  0  0  0  0  0
    0.3001    1.2459    2.4139 H   0  0  0  0  0  0  0  0  0  0  0  0
   -0.5192    3.2082    2.5456 C   0  0  0  0  0  0  0  0  0  0  0  0
   -1.5166    3.3903    2.9518 H   0  0  0  0  0  0  0  0  0  0  0  0
    0.2240    3.3791    3.3257 H   0  0  0  0  0  0  0  0  0  0  0  0
   -0.3477    3.9067    1.7239 H   0  0  0  0  0  0  0  0  0  0  0  0
  5  6  2  0  0  0  0
  5  7  1  0  0  0  0
  2  3  1  0  0  0  0
  2  4  1  0  0  0  0
  2  5  1  0  0  0  0
  1  2  1  0  0  0  0
 26 27  2  0  0  0  0
 26 28  1  0  0  0  0
 23 24  1  0  0  0  0
 23 25  1  0  0  0  0
 20 21  1  0  0  0  0
 20 22  1  0  0  0  0
 20 23  1  0  0  0  0
 17 18  1  0  0  0  0
 17 19  1  0  0  0  0
 17 20  1  0  0  0  0
 14 15  1  0  0  0  0
 14 16  1  0  0  0  0
 14 17  1  0  0  0  0
 11 12  1  0  0  0  0
 11 13  1  0  0  0  0
 11 14  1  0  0  0  0
  9 10  1  0  0  0  0
  9 11  1  0  0  0  0
  9 26  1  0  0  0  0
  7  8  1  0  0  0  0
  7  9  1  0  0  0  0
 30 31  1  0  0  0  0
 30 32  1  0  0  0  0
 30 33  1  0  0  0  0
 28 29  1  0  0  0  0
 28 30  1  0  0  0  0
M  END
$$$$
default_name
  -OEChem-02102213163D

 33 32  0     1  0  0  0  0  0999 V2000
   -3.8420   -3.6918    1.5562 H   0  0  0  0  0  0  0  0  0  0  0  0
   -3.8430   -2.7008    1.1032 C   0  0  0  0  0  0  0  0  0  0  0  0
   -4.5510   -2.0608    1.6242 H   0  0  0  0  0  0  0  0  0  0  0  0
   -4.1140   -2.7798    0.0522 H   0  0  0  0  0  0  0  0  0  0  0  0
   -2.4570   -2.1098    1.2172 C   0  0  0  0  0  0  0  0  0  0  0  0
   -1.5600   -2.7438    1.7572 O   0  0  0  0  0  0  0  0  0  0  0  0
   -2.2870   -0.8898    0.7102 N   0  0  0  0  0  0  0  0  0  0  0  0
   -3.0820   -0.4218    0.2992 H   0  0  0  0  0  0  0  0  0  0  0  0
   -1.0240   -0.1468    0.7262 C   0  0  1  0  0  0  0  0  0  0  0  0
   -0.3583   -0.6100    1.4558 H   0  0  0  0  0  0  0  0  0  0  0  0
   -0.3739   -0.2459   -0.6675 C   0  0  0  0  0  0  0  0  0  0  0  0
   -0.6677   -1.1949   -1.1208 H   0  0  0  0  0  0  0  0  0  0  0  0
   -0.7480    0.5625   -1.2972 H   0  0  0  0  0  0  0  0  0  0  0  0
    1.1612   -0.1883   -0.6280 C   0  0  0  0  0  0  0  0  0  0  0  0
    1.5729   -1.1034   -1.0544 H   0  0  0  0  0  0  0  0  0  0  0  0
    1.5036    0.6655   -1.2156 H   0  0  0  0  0  0  0  0  0  0  0  0
    1.6666   -0.0442    0.8120 C   0  0  0  0  0  0  0  0  0  0  0  0
    1.2565    0.8637    1.2553 H   0  0  0  0  0  0  0  0  0  0  0  0
    1.3472   -0.9069    1.3974 H   0  0  0  0  0  0  0  0  0  0  0  0
    3.1920    0.0355    0.8204 C   0  0  0  0  0  0  0  0  0  0  0  0
    3.6041   -0.8781    0.3951 H   0  0  0  0  0  0  0  0  0  0  0  0
    3.5134    0.8861    0.2216 H   0  0  0  0  0  0  0  0  0  0  0  0
    3.7089    0.1979    2.1841 N   0  0  0  0  0  0  0  0  0  0  0  0
    4.7173    0.2328    2.1535 H   0  0  0  0  0  0  0  0  0  0  0  0
    3.3550    1.0607    2.5721 H   0  0  0  0  0  0  0  0  0  0  0  0
   -1.2712    1.3099    1.1517 C   0  0  0  0  0  0  0  0  0  0  0  0
   -2.2039    1.9448    0.6639 O   0  0  0  0  0  0  0  0  0  0  0  0
   -0.4306    1.8354    2.0503 N   0  0  0  0  0  0  0  0  0  0  0  0
    0.3001    1.2459    2.4139 H   0  0  0  0  0  0  0  0  0  0  0  0
   -0.5192    3.2082    2.5456 C   0  0  0  0  0  0  0  0  0  0  0  0
   -1.5166    3.3903    2.9518 H   0  0  0  0  0  0  0  0  0  0  0  0
    0.2240    3.3791    3.3257 H   0  0  0  0  0  0  0  0  0  0  0  0
   -0.3477    3.9067    1.7239 H   0  0  0  0  0  0  0  0  0  0  0  0
  5  6  2  0  0  0  0
  5  7  1  0  0  0  0
  2  3  1  0  0  0  0
  2  4  1  0  0  0  0
  2  5  1  0  0  0  0
  1  2  1  0  0  0  0
 26 27  2  0  0  0  0
 26 28  1  0  0  0  0
 23 24  1  0  0  0  0
 23 25  1  0  0  0  0
 20 21  1  0  0  0  0
 20 22  1  0  0  0  0
 20 23  1  0  0  0  0
 17 18  1  0  0  0  0
 17 19  1  0  0  0  0
 17 20  1  0  0  0  0
 14 15  1  0  0  0  0
 14 16  1  0  0  0  0
 14 17  1  0  0  0  0
 11 12  1  0  0  0  0
 11 13  1  0  0  0  0
 11 14  1  0  0  0  0
  9 10  1  0  0  0  0
  9 11  1  0  0  0  0
  9 26  1  0  0  0  0
  7  8  1  0  0  0  0
  7  9  1  0  0  0  0
 30 31  1  0  0  0  0
 30 32  1  0  0  0  0
 30 33  1  0  0  0  0
 28 29  1  0  0  0  0
 28 30  1  0  0  0  0
M  END
$$$$
default_name
  -OEChem-02102213163D

 33 32  0     1  0  0  0  0  0999 V2000
   -3.8420   -3.6918    1.5562 H   0  0  0  0  0  0  0  0  0  0  0  0
   -3.8430   -2.7008    1.1032 C   0  0  0  0  0  0  0  0  0  0  0  0
   -4.5510   -2.0608    1.6242 H   0  0  0  0  0  0  0  0  0  0  0  0
   -4.1140   -2.7798    0.0522 H   0  0  0  0  0  0  0  0  0  0  0  0
   -2.4570   -2.1098    1.2172 C   0  0  0  0  0  0  0  0  0  0  0  0
   -1.5600   -2.7438    1.7572 O   0  0  0  0  0  0  0  0  0  0  0  0
   -2.2870   -0.8898    0.7102 N   0  0  0  0  0  0  0  0  0  0  0  0
   -3.0820   -0.4218    0.2992 H   0  0  0  0  0  0  0  0  0  0  0  0
   -1.0240   -0.1468    0.7262 C   0  0  1  0  0  0  0  0  0  0  0  0
   -0.3583   -0.6100    1.4558 H   0  0  0  0  0  0  0  0  0  0  0  0
   -0.3739   -0.2459   -0.6675 C   0  0  0  0  0  0  0  0  0  0  0  0
   -0.6677   -1.1949   -1.1208 H   0  0  0  0  0  0  0  0  0  0  0  0
   -0.7480    0.5625   -1.2972 H   0  0  0  0  0  0  0  0  0  0  0  0
    1.1612   -0.1883   -0.6280 C   0  0  0  0  0  0  0  0  0  0  0  0
    1.5733   -0.9587   -1.2802 H   0  0  0  0  0  0  0  0  0  0  0  0
    1.4927    0.7911   -0.9779 H   0  0  0  0  0  0  0  0  0  0  0  0
    1.6811   -0.4174    0.7957 C   0  0  0  0  0  0  0  0  0  0  0  0
    1.2708    0.3418    1.4623 H   0  0  0  0  0  0  0  0  0  0  0  0
    1.3725   -1.4046    1.1409 H   0  0  0  0  0  0  0  0  0  0  0  0
    3.2060   -0.3304    0.8110 C   0  0  0  0  0  0  0  0  0  0  0  0
    3.6185   -1.0998    0.1603 H   0  0  0  0  0  0  0  0  0  0  0  0
    3.5164    0.6486    0.4497 H   0  0  0  0  0  0  0  0  0  0  0  0
    3.7365   -0.5220    2.1657 N   0  0  0  0  0  0  0  0  0  0  0  0
    4.7443   -0.4724    2.1362 H   0  0  0  0  0  0  0  0  0  0  0  0
    3.3820    0.2083    2.7667 H   0  0  0  0  0  0  0  0  0  0  0  0
   -1.2712    1.3099    1.1517 C   0  0  0  0  0  0  0  0  0  0  0  0
   -2.2039    1.9448    0.6639 O   0  0  0  0  0  0  0  0  0  0  0  0
   -0.4306    1.8354    2.0503 N   0  0  0  0  0  0  0  0  0  0  0  0
    0.3001    1.2459    2.4139 H   0  0  0  0  0  0  0  0  0  0  0  0
   -0.5192    3.2082    2.5456 C   0  0  0  0  0  0  0  0  0  0  0  0
   -1.5166    3.3903    2.9518 H   0  0  0  0  0  0  0  0  0  0  0  0
    0.2240    3.3791    3.3257 H   0  0  0  0  0  0  0  0  0  0  0  0
   -0.3477    3.9067    1.7239 H   0  0  0  0  0  0  0  0  0  0  0  0
  5  6  2  0  0  0  0
  5  7  1  0  0  0  0
  2  3  1  0  0  0  0
  2  4  1  0  0  0  0
  2  5  1  0  0  0  0
  1  2  1  0  0  0  0
 26 27  2  0  0  0  0
 26 28  1  0  0  0  0
 23 24  1  0  0  0  0
 23 25  1  0  0  0  0
 20 21  1  0  0  0  0
 20 22  1  0  0  0  0
 20 23  1  0  0  0  0
 17 18  1  0  0  0  0
 17 19  1  0  0  0  0
 17 20  1  0  0  0  0
 14 15  1  0  0  0  0
 14 16  1  0  0  0  0
 14 17  1  0  0  0  0
 11 12  1  0  0  0  0
 11 13  1  0  0  0  0
 11 14  1  0  0  0  0
  9 10  1  0  0  0  0
  9 11  1  0  0  0  0
  9 26  1  0  0  0  0
  7  8  1  0  0  0  0
  7  9  1  0  0  0  0
 30 31  1  0  0  0  0
 30 32  1  0  0  0  0
 30 33  1  0  0  0  0
 28 29  1  0  0  0  0
 28 30  1  0  0  0  0
M  END
$$$$
default_name
  -OEChem-02102213163D

 33 32  0     1  0  0  0  0  0999 V2000
   -3.8420   -3.6918    1.5562 H   0  0  0  0  0  0  0  0  0  0  0  0
   -3.8430   -2.7008    1.1032 C   0  0  0  0  0  0  0  0  0  0  0  0
   -4.5510   -2.0608    1.6242 H   0  0  0  0  0  0  0  0  0  0  0  0
   -4.1140   -2.7798    0.0522 H   0  0  0  0  0  0  0  0  0  0  0  0
   -2.4570   -2.1098    1.2172 C   0  0  0  0  0  0  0  0  0  0  0  0
   -1.5600   -2.7438    1.7572 O   0  0  0  0  0  0  0  0  0  0  0  0
   -2.2870   -0.8898    0.7102 N   0  0  0  0  0  0  0  0  0  0  0  0
   -3.0820   -0.4218    0.2992 H   0  0  0  0  0  0  0  0  0  0  0  0
   -1.0240   -0.1468    0.7262 C   0  0  1  0  0  0  0  0  0  0  0  0
   -0.3583   -0.6100    1.4558 H   0  0  0  0  0  0  0  0  0  0  0  0
   -0.3739   -0.2459   -0.6675 C   0  0  0  0  0  0  0  0  0  0  0  0
   -0.6677   -1.1949   -1.1208 H   0  0  0  0  0  0  0  0  0  0  0  0
   -0.7480    0.5625   -1.2972 H   0  0  0  0  0  0  0  0  0  0  0  0
    1.1612   -0.1883   -0.6280 C   0  0  0  0  0  0  0  0  0  0  0  0
    1.5705   -0.7606   -1.4609 H   0  0  0  0  0  0  0  0  0  0  0  0
    1.4837    0.8509   -0.7156 H   0  0  0  0  0  0  0  0  0  0  0  0
    1.6973   -0.7735    0.6834 C   0  0  0  0  0  0  0  0  0  0  0  0
    1.2901   -0.2157    1.5272 H   0  0  0  0  0  0  0  0  0  0  0  0
    1.3978   -1.8188    0.7643 H   0  0  0  0  0  0  0  0  0  0  0  0
    3.2218   -0.6814    0.7072 C   0  0  0  0  0  0  0  0  0  0  0  0
    3.6315   -1.2531   -0.1239 H   0  0  0  0  0  0  0  0  0  0  0  0
    3.5231    0.3602    0.6086 H   0  0  0  0  0  0  0  0  0  0  0  0
    3.7676   -1.2125    1.9615 N   0  0  0  0  0  0  0  0  0  0  0  0
    4.7748   -1.1489    1.9370 H   0  0  0  0  0  0  0  0  0  0  0  0
    3.4157   -0.6652    2.7341 H   0  0  0  0  0  0  0  0  0  0  0  0
   -1.2712    1.3099    1.1517 C   0  0  0  0  0  0  0  0  0  0  0  0
   -2.2039    1.9448    0.6639 O   0  0  0  0  0  0  0  0  0  0  0  0
   -0.4306    1.8354    2.0503 N   0  0  0  0  0  0  0  0  0  0  0  0
    0.3001    1.2459    2.4139 H   0  0  0  0  0  0  0  0  0  0  0  0
   -0.5192    3.2082    2.5456 C   0  0  0  0  0  0  0  0  0  0  0  0
   -1.5166    3.3903    2.9518 H   0  0  0  0  0  0  0  0  0  0  0  0
    0.2240    3.3791    3.3257 H   0  0  0  0  0  0  0  0  0  0  0  0
   -0.3477    3.9067    1.7239 H   0  0  0  0  0  0  0  0  0  0  0  0
  5  6  2  0  0  0  0
  5  7  1  0  0  0  0
  2  3  1  0  0  0  0
  2  4  1  0  0  0  0
  2  5  1  0  0  0  0
  1  2  1  0  0  0  0
 26 27  2  0  0  0  0
 26 28  1  0  0  0  0
 23 24  1  0  0  0  0
 23 25  1  0  0  0  0
 20 21  1  0  0  0  0
 20 22  1  0  0  0  0
 20 23  1  0  0  0  0
 17 18  1  0  0  0  0
 17 19  1  0  0  0  0
 17 20  1  0  0  0  0
 14 15  1  0  0  0  0
 14 16  1  0  0  0  0
 14 17  1  0  0  0  0
 11 12  1  0  0  0  0
 11 13  1  0  0  0  0
 11 14  1  0  0  0  0
  9 10  1  0  0  0  0
  9 11  1  0  0  0  0
  9 26  1  0  0  0  0
  7  8  1  0  0  0  0
  7  9  1  0  0  0  0
 30 31  1  0  0  0  0
 30 32  1  0  0  0  0
 30 33  1  0  0  0  0
 28 29  1  0  0  0  0
 28 30  1  0  0  0  0
M  END
$$$$
default_name
  -OEChem-02102213163D

 33 32  0     1  0  0  0  0  0999 V2000
   -3.8420   -3.6918    1.5562 H   0  0  0  0  0  0  0  0  0  0  0  0
   -3.8430   -2.7008    1.1032 C   0  0  0  0  0  0  0  0  0  0  0  0
   -4.5510   -2.0608    1.6242 H   0  0  0  0  0  0  0  0  0  0  0  0
   -4.1140   -2.7798    0.0522 H   0  0  0  0  0  0  0  0  0  0  0  0
   -2.4570   -2.1098    1.2172 C   0  0  0  0  0  0  0  0  0  0  0  0
   -1.5600   -2.7438    1.7572 O   0  0  0  0  0  0  0  0  0  0  0  0
   -2.2870   -0.8898    0.7102 N   0  0  0  0  0  0  0  0  0  0  0  0
   -3.0820   -0.4218    0.2992 H   0  0  0  0  0  0  0  0  0  0  0  0
   -1.0240   -0.1468    0.7262 C   0  0  1  0  0  0  0  0  0  0  0  0
   -0.3583   -0.6100    1.4558 H   0  0  0  0  0  0  0  0  0  0  0  0
   -0.3739   -0.2459   -0.6675 C   0  0  0  0  0  0  0  0  0  0  0  0
   -0.6677   -1.1949   -1.1208 H   0  0  0  0  0  0  0  0  0  0  0  0
   -0.7480    0.5625   -1.2972 H   0  0  0  0  0  0  0  0  0  0  0  0
    1.1612   -0.1883   -0.6280 C   0  0  0  0  0  0  0  0  0  0  0  0
    1.5647   -0.5226   -1.5841 H   0  0  0  0  0  0  0  0  0  0  0  0
    1.4772    0.8407   -0.4468 H   0  0  0  0  0  0  0  0  0  0  0  0
    1.7143   -1.0884    0.4827 C   0  0  0  0  0  0  0  0  0  0  0  0
    1.3130   -0.7709    1.4456 H   0  0  0  0  0  0  0  0  0  0  0  0
    1.4212   -2.1214    0.2932 H   0  0  0  0  0  0  0  0  0  0  0  0
    3.2384   -0.9934    0.5160 C   0  0  0  0  0  0  0  0  0  0  0  0
    3.6424   -1.3276   -0.4383 H   0  0  0  0  0  0  0  0  0  0  0  0
    3.5331    0.0406    0.6875 H   0  0  0  0  0  0  0  0  0  0  0  0
    3.8004   -1.8264    1.5854 N   0  0  0  0  0  0  0  0  0  0  0  0
    4.8069   -1.7506    1.5693 H   0  0  0  0  0  0  0  0  0  0  0  0
    3.4536   -1.5002    2.4763 H   0  0  0  0  0  0  0  0  0  0  0  0
   -1.2712    1.3099    1.1517 C   0  0  0  0  0  0  0  0  0  0  0  0
   -2.2039    1.9448    0.6639 O   0  0  0  0  0  0  0  0  0  0  0  0
   -0.4306    1.8354    2.0503 N   0  0  0  0  0  0  0  0  0  0  0  0
    0.3001    1.2459    2.4139 H   0  0  0  0  0  0  0  0  0  0  0  0
   -0.5192    3.2082    2.5456 C   0  0  0  0  0  0  0  0  0  0  0  0
   -1.5166    3.3903    2.9518 H   0  0  0  0  0  0  0  0  0  0  0  0
    0.2240    3.3791    3.3257 H   0  0  0  0  0  0  0  0  0  0  0  0
   -0.3477    3.9067    1.7239 H   0  0  0  0  0  0  0  0  0  0  0  0
  5  6  2  0  0  0  0
  5  7  1  0  0  0  0
  2  3  1  0  0  0  0
  2  4  1  0  0  0  0
  2  5  1  0  0  0  0
  1  2  1  0  0  0  0
 26 27  2  0  0  0  0
 26 28  1  0  0  0  0
 23 24  1  0  0  0  0
 23 25  1  0  0  0  0
 20 21  1  0  0  0  0
 20 22  1  0  0  0  0
 20 23  1  0  0  0  0
 17 18  1  0  0  0  0
 17 19  1  0  0  0  0
 17 20  1  0  0  0  0
 14 15  1  0  0  0  0
 14 16  1  0  0  0  0
 14 17  1  0  0  0  0
 11 12  1  0  0  0  0
 11 13  1  0  0  0  0
 11 14  1  0  0  0  0
  9 10  1  0  0  0  0
  9 11  1  0  0  0  0
  9 26  1  0  0  0  0
  7  8  1  0  0  0  0
  7  9  1  0  0  0  0
 30 31  1  0  0  0  0
 30 32  1  0  0  0  0
 30 33  1  0  0  0  0
 28 29  1  0  0  0  0
 28 30  1  0  0  0  0
M  END
$$$$
default_name
  -OEChem-02102213163D

 33 32  0     1  0  0  0  0  0999 V2000
   -3.8420   -3.6918    1.5562 H   0  0  0  0  0  0  0  0  0  0  0  0
   -3.8430   -2.7008    1.1032 C   0  0  0  0  0  0  0  0  0  0  0  0
   -4.5510   -2.0608    1.6242 H   0  0  0  0  0  0  0  0  0  0  0  0
   -4.1140   -2.7798    0.0522 H   0  0  0  0  0  0  0  0  0  0  0  0
   -2.4570   -2.1098    1.2172 C   0  0  0  0  0  0  0  0  0  0  0  0
   -1.5600   -2.7438    1.7572 O   0  0  0  0  0  0  0  0  0  0  0  0
   -2.2870   -0.8898    0.7102 N   0  0  0  0  0  0  0  0  0  0  0  0
   -3.0820   -0.4218    0.2992 H   0  0  0  0  0  0  0  0  0  0  0  0
   -1.0240   -0.1468    0.7262 C   0  0  1  0  0  0  0  0  0  0  0  0
   -0.3583   -0.6100    1.4558 H   0  0  0  0  0  0  0  0  0  0  0  0
   -0.3739   -0.2459   -0.6675 C   0  0  0  0  0  0  0  0  0  0  0  0
   -0.6677   -1.1949   -1.1208 H   0  0  0  0  0  0  0  0  0  0  0  0
   -0.7480    0.5625   -1.2972 H   0  0  0  0  0  0  0  0  0  0  0  0
    1.1612   -0.1883   -0.6280 C   0  0  0  0  0  0  0  0  0  0  0  0
    1.5564   -0.2608   -1.6416 H   0  0  0  0  0  0  0  0  0  0  0  0
    1.4736    0.7614   -0.1897 H   0  0  0  0  0  0  0  0  0  0  0  0
    1.7309   -1.3405    0.2072 C   0  0  0  0  0  0  0  0  0  0  0  0
    1.3381   -1.2860    1.2230 H   0  0  0  0  0  0  0  0  0  0  0  0
    1.4414   -2.2917   -0.2404 H   0  0  0  0  0  0  0  0  0  0  0  0
    3.2547   -1.2453    0.2505 C   0  0  0  0  0  0  0  0  0  0  0  0
    3.6504   -1.3182   -0.7613 H   0  0  0  0  0  0  0  0  0  0  0  0
    3.5457   -0.2885    0.6809 H   0  0  0  0  0  0  0  0  0  0  0  0
    3.8324   -2.3219    1.0632 N   0  0  0  0  0  0  0  0  0  0  0  0
    4.8383   -2.2366    1.0583 H   0  0  0  0  0  0  0  0  0  0  0  0
    3.4934   -2.2399    2.0111 H   0  0  0  0  0  0  0  0  0  0  0  0
   -1.2712    1.3099    1.1517 C   0  0  0  0  0  0  0  0  0  0  0  0
   -2.2039    1.9448    0.6639 O   0  0  0  0  0  0  0  0  0  0  0  0
   -0.4306    1.8354    2.0503 N   0  0  0  0  0  0  0  0  0  0  0  0
    0.3001    1.2459    2.4139 H   0  0  0  0  0  0  0  0  0  0  0  0
   -0.5192    3.2082    2.5456 C   0  0  0  0  0  0  0  0  0  0  0  0
   -1.5166    3.3903    2.9518 H   0  0  0  0  0  0  0  0  0  0  0  0
    0.2240    3.3791    3.3257 H   0  0  0  0  0  0  0  0  0  0  0  0
   -0.3477    3.9067    1.7239 H   0  0  0  0  0  0  0  0  0  0  0  0
  5  6  2  0  0  0  0
  5  7  1  0  0  0  0
  2  3  1  0  0  0  0
  2  4  1  0  0  0  0
  2  5  1  0  0  0  0
  1  2  1  0  0  0  0
 26 27  2  0  0  0  0
 26 28  1  0  0  0  0
 23 24  1  0  0  0  0
 23 25  1  0  0  0  0
 20 21  1  0  0  0  0
 20 22  1  0  0  0  0
 20 23  1  0  0  0  0
 17 18  1  0  0  0  0
 17 19  1  0  0  0  0
 17 20  1  0  0  0  0
 14 15  1  0  0  0  0
 14 16  1  0  0  0  0
 14 17  1  0  0  0  0
 11 12  1  0  0  0  0
 11 13  1  0  0  0  0
 11 14  1  0  0  0  0
  9 10  1  0  0  0  0
  9 11  1  0  0  0  0
  9 26  1  0  0  0  0
  7  8  1  0  0  0  0
  7  9  1  0  0  0  0
 30 31  1  0  0  0  0
 30 32  1  0  0  0  0
 30 33  1  0  0  0  0
 28 29  1  0  0  0  0
 28 30  1  0  0  0  0
M  END
$$$$
default_name
  -OEChem-02102213163D

 33 32  0     1  0  0  0  0  0999 V2000
   -3.8420   -3.6918    1.5562 H   0  0  0  0  0  0  0  0  0  0  0  0
   -3.8430   -2.7008    1.1032 C   0  0  0  0  0  0  0  0  0  0  0  0
   -4.5510   -2.0608    1.6242 H   0  0  0  0  0  0  0  0  0  0  0  0
   -4.1140   -2.7798    0.0522 H   0  0  0  0  0  0  0  0  0  0  0  0
   -2.4570   -2.1098    1.2172 C   0  0  0  0  0  0  0  0  0  0  0  0
   -1.5600   -2.7438    1.7572 O   0  0  0  0  0  0  0  0  0  0  0  0
   -2.2870   -0.8898    0.7102 N   0  0  0  0  0  0  0  0  0  0  0  0
   -3.0820   -0.4218    0.2992 H   0  0  0  0  0  0  0  0  0  0  0  0
   -1.0240   -0.1468    0.7262 C   0  0  1  0  0  0  0  0  0  0  0  0
   -0.3583   -0.6100    1.4558 H   0  0  0  0  0  0  0  0  0  0  0  0
   -0.3739   -0.2459   -0.6675 C   0  0  0  0  0  0  0  0  0  0  0  0
   -0.6677   -1.1949   -1.1208 H   0  0  0  0  0  0  0  0  0  0  0  0
   -0.7480    0.5625   -1.2972 H   0  0  0  0  0  0  0  0  0  0  0  0
    1.1612   -0.1883   -0.6280 C   0  0  0  0  0  0  0  0  0  0  0  0
    1.5460    0.0068   -1.6293 H   0  0  0  0  0  0  0  0  0  0  0  0
    1.4731    0.6182    0.0382 H   0  0  0  0  0  0  0  0  0  0  0  0
    1.7459   -1.5127   -0.1242 C   0  0  0  0  0  0  0  0  0  0  0  0
    1.3636   -1.7257    0.8745 H   0  0  0  0  0  0  0  0  0  0  0  0
    1.4568   -2.3181   -0.8000 H   0  0  0  0  0  0  0  0  0  0  0  0
    3.2696   -1.4198   -0.0713 C   0  0  0  0  0  0  0  0  0  0  0  0
    3.6549   -1.2255   -1.0709 H   0  0  0  0  0  0  0  0  0  0  0  0
    3.5599   -0.6045    0.5893 H   0  0  0  0  0  0  0  0  0  0  0  0
    3.8616   -2.6653    0.4302 N   0  0  0  0  0  0  0  0  0  0  0  0
    4.8669   -2.5737    0.4387 H   0  0  0  0  0  0  0  0  0  0  0  0
    3.5322   -2.8339    1.3701 H   0  0  0  0  0  0  0  0  0  0  0  0
   -1.2712    1.3099    1.1517 C   0  0  0  0  0  0  0  0  0  0  0  0
   -2.2039    1.9448    0.6639 O   0  0  0  0  0  0  0  0  0  0  0  0
   -0.4306    1.8354    2.0503 N   0  0  0  0  0  0  0  0  0  0  0  0
    0.3001    1.2459    2.4139 H   0  0  0  0  0  0  0  0  0  0  0  0
   -0.5192    3.2082    2.5456 C   0  0  0  0  0  0  0  0  0  0  0  0
   -1.5166    3.3903    2.9518 H   0  0  0  0  0  0  0  0  0  0  0  0
    0.2240    3.3791    3.3257 H   0  0  0  0  0  0  0  0  0  0  0  0
   -0.3477    3.9067    1.7239 H   0  0  0  0  0  0  0  0  0  0  0  0
  5  6  2  0  0  0  0
  5  7  1  0  0  0  0
  2  3  1  0  0  0  0
  2  4  1  0  0  0  0
  2  5  1  0  0  0  0
  1  2  1  0  0  0  0
 26 27  2  0  0  0  0
 26 28  1  0  0  0  0
 23 24  1  0  0  0  0
 23 25  1  0  0  0  0
 20 21  1  0  0  0  0
 20 22  1  0  0  0  0
 20 23  1  0  0  0  0
 17 18  1  0  0  0  0
 17 19  1  0  0  0  0
 17 20  1  0  0  0  0
 14 15  1  0  0  0  0
 14 16  1  0  0  0  0
 14 17  1  0  0  0  0
 11 12  1  0  0  0  0
 11 13  1  0  0  0  0
 11 14  1  0  0  0  0
  9 10  1  0  0  0  0
  9 11  1  0  0  0  0
  9 26  1  0  0  0  0
  7  8  1  0  0  0  0
  7  9  1  0  0  0  0
 30 31  1  0  0  0  0
 30 32  1  0  0  0  0
 30 33  1  0  0  0  0
 28 29  1  0  0  0  0
 28 30  1  0  0  0  0
M  END
$$$$
default_name
  -OEChem-02102213163D

 33 32  0     1  0  0  0  0  0999 V2000
   -3.8420   -3.6918    1.5562 H   0  0  0  0  0  0  0  0  0  0  0  0
   -3.8430   -2.7008    1.1032 C   0  0  0  0  0  0  0  0  0  0  0  0
   -4.5510   -2.0608    1.6242 H   0  0  0  0  0  0  0  0  0  0  0  0
   -4.1140   -2.7798    0.0522 H   0  0  0  0  0  0  0  0  0  0  0  0
   -2.4570   -2.1098    1.2172 C   0  0  0  0  0  0  0  0  0  0  0  0
   -1.5600   -2.7438    1.7572 O   0  0  0  0  0  0  0  0  0  0  0  0
   -2.2870   -0.8898    0.7102 N   0  0  0  0  0  0  0  0  0  0  0  0
   -3.0820   -0.4218    0.2992 H   0  0  0  0  0  0  0  0  0  0  0  0
   -1.0240   -0.1468    0.7262 C   0  0  1  0  0  0  0  0  0  0  0  0
   -0.3583   -0.6100    1.4558 H   0  0  0  0  0  0  0  0  0  0  0  0
   -0.3739   -0.2459   -0.6675 C   0  0  0  0  0  0  0  0  0  0  0  0
   -0.6677   -1.1949   -1.1208 H   0  0  0  0  0  0  0  0  0  0  0  0
   -0.7480    0.5625   -1.2972 H   0  0  0  0  0  0  0  0  0  0  0  0
    1.1612   -0.1883   -0.6280 C   0  0  0  0  0  0  0  0  0  0  0  0
    1.5343    0.2621   -1.5482 H   0  0  0  0  0  0  0  0  0  0  0  0
    1.4758    0.4210    0.2213 H   0  0  0  0  0  0  0  0  0  0  0  0
    1.7583   -1.5932   -0.4890 C   0  0  0  0  0  0  0  0  0  0  0  0
    1.3878   -2.0602    0.4240 H   0  0  0  0  0  0  0  0  0  0  0  0
    1.4664   -2.1988   -1.3475 H   0  0  0  0  0  0  0  0  0  0  0  0
    3.2819   -1.5051   -0.4273 C   0  0  0  0  0  0  0  0  0  0  0  0
    3.6556   -1.0559   -1.3461 H   0  0  0  0  0  0  0  0  0  0  0  0
    3.5748   -0.8860    0.4190 H   0  0  0  0  0  0  0  0  0  0  0  0
    3.8859   -2.8332   -0.2702 N   0  0  0  0  0  0  0  0  0  0  0  0
    4.8907   -2.7389   -0.2472 H   0  0  0  0  0  0  0  0  0  0  0  0
    3.5674   -3.2416    0.5970 H   0  0  0  0  0  0  0  0  0  0  0  0
   -1.2712    1.3099    1.1517 C   0  0  0  0  0  0  0  0  0  0  0  0
   -2.2039    1.9448    0.6639 O   0  0  0  0  0  0  0  0  0  0  0  0
   -0.4306    1.8354    2.0503 N   0  0  0  0  0  0  0  0  0  0  0  0
    0.3001    1.2459    2.4139 H   0  0  0  0  0  0  0  0  0  0  0  0
   -0.5192    3.2082    2.5456 C   0  0  0  0  0  0  0  0  0  0  0  0
   -1.5166    3.3903    2.9518 H   0  0  0  0  0  0  0  0  0  0  0  0
    0.2240    3.3791    3.3257 H   0  0  0  0  0  0  0  0  0  0  0  0
   -0.3477    3.9067    1.7239 H   0  0  0  0  0  0  0  0  0  0  0  0
  5  6  2  0  0  0  0
  5  7  1  0  0  0  0
  2  3  1  0  0  0  0
  2  4  1  0  0  0  0
  2  5  1  0  0  0  0
  1  2  1  0  0  0  0
 26 27  2  0  0  0  0
 26 28  1  0  0  0  0
 23 24  1  0  0  0  0
 23 25  1  0  0  0  0
 20 21  1  0  0  0  0
 20 22  1  0  0  0  0
 20 23  1  0  0  0  0
 17 18  1  0  0  0  0
 17 19  1  0  0  0  0
 17 20  1  0  0  0  0
 14 15  1  0  0  0  0
 14 16  1  0  0  0  0
 14 17  1  0  0  0  0
 11 12  1  0  0  0  0
 11 13  1  0  0  0  0
 11 14  1  0  0  0  0
  9 10  1  0  0  0  0
  9 11  1  0  0  0  0
  9 26  1  0  0  0  0
  7  8  1  0  0  0  0
  7  9  1  0  0  0  0
 30 31  1  0  0  0  0
 30 32  1  0  0  0  0
 30 33  1  0  0  0  0
 28 29  1  0  0  0  0
 28 30  1  0  0  0  0
M  END
$$$$
default_name
  -OEChem-02102213163D

 33 32  0     1  0  0  0  0  0999 V2000
   -3.8420   -3.6918    1.5562 H   0  0  0  0  0  0  0  0  0  0  0  0
   -3.8430   -2.7008    1.1032 C   0  0  0  0  0  0  0  0  0  0  0  0
   -4.5510   -2.0608    1.6242 H   0  0  0  0  0  0  0  0  0  0  0  0
   -4.1140   -2.7798    0.0522 H   0  0  0  0  0  0  0  0  0  0  0  0
   -2.4570   -2.1098    1.2172 C   0  0  0  0  0  0  0  0  0  0  0  0
   -1.5600   -2.7438    1.7572 O   0  0  0  0  0  0  0  0  0  0  0  0
   -2.2870   -0.8898    0.7102 N   0  0  0  0  0  0  0  0  0  0  0  0
   -3.0820   -0.4218    0.2992 H   0  0  0  0  0  0  0  0  0  0  0  0
   -1.0240   -0.1468    0.7262 C   0  0  1  0  0  0  0  0  0  0  0  0
   -0.3583   -0.6100    1.4558 H   0  0  0  0  0  0  0  0  0  0  0  0
   -0.3739   -0.2459   -0.6675 C   0  0  0  0  0  0  0  0  0  0  0  0
   -0.6677   -1.1949   -1.1208 H   0  0  0  0  0  0  0  0  0  0  0  0
   -0.7480    0.5625   -1.2972 H   0  0  0  0  0  0  0  0  0  0  0  0
    1.1612   -0.1883   -0.6280 C   0  0  0  0  0  0  0  0  0  0  0  0
    1.5222    0.4876   -1.4037 H   0  0  0  0  0  0  0  0  0  0  0  0
    1.4815    0.1832    0.3471 H   0  0  0  0  0  0  0  0  0  0  0  0
    1.7673   -1.5766   -0.8623 C   0  0  0  0  0  0  0  0  0  0  0  0
    1.4089   -2.2667   -0.0979 H   0  0  0  0  0  0  0  0  0  0  0  0
    1.4695   -1.9420   -1.8456 H   0  0  0  0  0  0  0  0  0  0  0  0
    3.2910   -1.4954   -0.7934 C   0  0  0  0  0  0  0  0  0  0  0  0
    3.6525   -0.8210   -1.5680 H   0  0  0  0  0  0  0  0  0  0  0  0
    3.5895   -1.1138    0.1816 H   0  0  0  0  0  0  0  0  0  0  0  0
    3.9038   -2.8141   -0.9904 N   0  0  0  0  0  0  0  0  0  0  0  0
    4.9082   -2.7209   -0.9527 H   0  0  0  0  0  0  0  0  0  0  0  0
    3.5966   -3.4353   -0.2555 H   0  0  0  0  0  0  0  0  0  0  0  0
   -1.2712    1.3099    1.1517 C   0  0  0  0  0  0  0  0  0  0  0  0
   -2.2039    1.9448    0.6639 O   0  0  0  0  0  0  0  0  0  0  0  0
   -0.4306    1.8354    2.0503 N   0  0  0  0  0  0  0  0  0  0  0  0
    0.3001    1.2459    2.4139 H   0  0  0  0  0  0  0  0  0  0  0  0
   -0.5192    3.2082    2.5456 C   0  0  0  0  0  0  0  0  0  0  0  0
   -1.5166    3.3903    2.9518 H   0  0  0  0  0  0  0  0  0  0  0  0
    0.2240    3.3791    3.3257 H   0  0  0  0  0  0  0  0  0  0  0  0
   -0.3477    3.9067    1.7239 H   0  0  0  0  0  0  0  0  0  0  0  0
  5  6  2  0  0  0  0
  5  7  1  0  0  0  0
  2  3  1  0  0  0  0
  2  4  1  0  0  0  0
  2  5  1  0  0  0  0
  1  2  1  0  0  0  0
 26 27  2  0  0  0  0
 26 28  1  0  0  0  0
 23 24  1  0  0  0  0
 23 25  1  0  0  0  0
 20 21  1  0  0  0  0
 20 22  1  0  0  0  0
 20 23  1  0  0  0  0
 17 18  1  0  0  0  0
 17 19  1  0  0  0  0
 17 20  1  0  0  0  0
 14 15  1  0  0  0  0
 14 16  1  0  0  0  0
 14 17  1  0  0  0  0
 11 12  1  0  0  0  0
 11 13  1  0  0  0  0
 11 14  1  0  0  0  0
  9 10  1  0  0  0  0
  9 11  1  0  0  0  0
  9 26  1  0  0  0  0
  7  8  1  0  0  0  0
  7  9  1  0  0  0  0
 30 31  1  0  0  0  0
 30 32  1  0  0  0  0
 30 33  1  0  0  0  0
 28 29  1  0  0  0  0
 28 30  1  0  0  0  0
M  END
$$$$
default_name
  -OEChem-02102213163D

 33 32  0     1  0  0  0  0  0999 V2000
   -3.8420   -3.6918    1.5562 H   0  0  0  0  0  0  0  0  0  0  0  0
   -3.8430   -2.7008    1.1032 C   0  0  0  0  0  0  0  0  0  0  0  0
   -4.5510   -2.0608    1.6242 H   0  0  0  0  0  0  0  0  0  0  0  0
   -4.1140   -2.7798    0.0522 H   0  0  0  0  0  0  0  0  0  0  0  0
   -2.4570   -2.1098    1.2172 C   0  0  0  0  0  0  0  0  0  0  0  0
   -1.5600   -2.7438    1.7572 O   0  0  0  0  0  0  0  0  0  0  0  0
   -2.2870   -0.8898    0.7102 N   0  0  0  0  0  0  0  0  0  0  0  0
   -3.0820   -0.4218    0.2992 H   0  0  0  0  0  0  0  0  0  0  0  0
   -1.0240   -0.1468    0.7262 C   0  0  1  0  0  0  0  0  0  0  0  0
   -0.3583   -0.6100    1.4558 H   0  0  0  0  0  0  0  0  0  0  0  0
   -0.3739   -0.2459   -0.6675 C   0  0  0  0  0  0  0  0  0  0  0  0
   -0.6677   -1.1949   -1.1208 H   0  0  0  0  0  0  0  0  0  0  0  0
   -0.7480    0.5625   -1.2972 H   0  0  0  0  0  0  0  0  0  0  0  0
    1.1612   -0.1883   -0.6280 C   0  0  0  0  0  0  0  0  0  0  0  0
    1.5103    0.6680   -1.2057 H   0  0  0  0  0  0  0  0  0  0  0  0
    1.4898   -0.0789    0.4072 H   0  0  0  0  0  0  0  0  0  0  0  0
    1.7722   -1.4640   -1.2187 C   0  0  0  0  0  0  0  0  0  0  0  0
    1.4257   -2.3310   -0.6556 H   0  0  0  0  0  0  0  0  0  0  0  0
    1.4661   -1.5651   -2.2603 H   0  0  0  0  0  0  0  0  0  0  0  0
    3.2961   -1.3913   -1.1446 C   0  0  0  0  0  0  0  0  0  0  0  0
    3.6457   -0.5367   -1.7217 H   0  0  0  0  0  0  0  0  0  0  0  0
    3.6029   -1.2724   -0.1067 H   0  0  0  0  0  0  0  0  0  0  0  0
    3.9138   -2.6093   -1.6813 N   0  0  0  0  0  0  0  0  0  0  0  0
    4.9181   -2.5211   -1.6297 H   0  0  0  0  0  0  0  0  0  0  0  0
    3.6178   -3.4018   -1.1293 H   0  0  0  0  0  0  0  0  0  0  0  0
   -1.2712    1.3099    1.1517 C   0  0  0  0  0  0  0  0  0  0  0  0
   -2.2039    1.9448    0.6639 O   0  0  0  0  0  0  0  0  0  0  0  0
   -0.4306    1.8354    2.0503 N   0  0  0  0  0  0  0  0  0  0  0  0
    0.3001    1.2459    2.4139 H   0  0  0  0  0  0  0  0  0  0  0  0
   -0.5192    3.2082    2.5456 C   0  0  0  0  0  0  0  0  0  0  0  0
   -1.5166    3.3903    2.9518 H   0  0  0  0  0  0  0  0  0  0  0  0
    0.2240    3.3791    3.3257 H   0  0  0  0  0  0  0  0  0  0  0  0
   -0.3477    3.9067    1.7239 H   0  0  0  0  0  0  0  0  0  0  0  0
  5  6  2  0  0  0  0
  5  7  1  0  0  0  0
  2  3  1  0  0  0  0
  2  4  1  0  0  0  0
  2  5  1  0  0  0  0
  1  2  1  0  0  0  0
 26 27  2  0  0  0  0
 26 28  1  0  0  0  0
 23 24  1  0  0  0  0
 23 25  1  0  0  0  0
 20 21  1  0  0  0  0
 20 22  1  0  0  0  0
 20 23  1  0  0  0  0
 17 18  1  0  0  0  0
 17 19  1  0  0  0  0
 17 20  1  0  0  0  0
 14 15  1  0  0  0  0
 14 16  1  0  0  0  0
 14 17  1  0  0  0  0
 11 12  1  0  0  0  0
 11 13  1  0  0  0  0
 11 14  1  0  0  0  0
  9 10  1  0  0  0  0
  9 11  1  0  0  0  0
  9 26  1  0  0  0  0
  7  8  1  0  0  0  0
  7  9  1  0  0  0  0
 30 31  1  0  0  0  0
 30 32  1  0  0  0  0
 30 33  1  0  0  0  0
 28 29  1  0  0  0  0
 28 30  1  0  0  0  0
M  END
$$$$
default_name
  -OEChem-02102213163D

 33 32  0     1  0  0  0  0  0999 V2000
   -3.8420   -3.6918    1.5562 H   0  0  0  0  0  0  0  0  0  0  0  0
   -3.8430   -2.7008    1.1032 C   0  0  0  0  0  0  0  0  0  0  0  0
   -4.5510   -2.0608    1.6242 H   0  0  0  0  0  0  0  0  0  0  0  0
   -4.1140   -2.7798    0.0522 H   0  0  0  0  0  0  0  0  0  0  0  0
   -2.4570   -2.1098    1.2172 C   0  0  0  0  0  0  0  0  0  0  0  0
   -1.5600   -2.7438    1.7572 O   0  0  0  0  0  0  0  0  0  0  0  0
   -2.2870   -0.8898    0.7102 N   0  0  0  0  0  0  0  0  0  0  0  0
   -3.0820   -0.4218    0.2992 H   0  0  0  0  0  0  0  0  0  0  0  0
   -1.0240   -0.1468    0.7262 C   0  0  1  0  0  0  0  0  0  0  0  0
   -0.3583   -0.6100    1.4558 H   0  0  0  0  0  0  0  0  0  0  0  0
   -0.3739   -0.2459   -0.6675 C   0  0  0  0  0  0  0  0  0  0  0  0
   -0.6677   -1.1949   -1.1208 H   0  0  0  0  0  0  0  0  0  0  0  0
   -0.7480    0.5625   -1.2972 H   0  0  0  0  0  0  0  0  0  0  0  0
    1.1612   -0.1883   -0.6280 C   0  0  0  0  0  0  0  0  0  0  0  0
    1.4995    0.7910   -0.9677 H   0  0  0  0  0  0  0  0  0  0  0  0
    1.5001   -0.3477    0.3973 H   0  0  0  0  0  0  0  0  0  0  0  0
    1.7728   -1.2630   -1.5339 C   0  0  0  0  0  0  0  0  0  0  0  0
    1.4369   -2.2489   -1.2111 H   0  0  0  0  0  0  0  0  0  0  0  0
    1.4562   -1.0938   -2.5635 H   0  0  0  0  0  0  0  0  0  0  0  0
    3.2970   -1.1998   -1.4570 C   0  0  0  0  0  0  0  0  0  0  0  0
    3.6359   -0.2224   -1.7965 H   0  0  0  0  0  0  0  0  0  0  0  0
    3.6140   -1.3509   -0.4264 H   0  0  0  0  0  0  0  0  0  0  0  0
    3.9155   -2.2328   -2.2958 N   0  0  0  0  0  0  0  0  0  0  0  0
    4.9198   -2.1530   -2.2320 H   0  0  0  0  0  0  0  0  0  0  0  0
    3.6296   -3.1434   -1.9650 H   0  0  0  0  0  0  0  0  0  0  0  0
   -1.2712    1.3099    1.1517 C   0  0  0  0  0  0  0  0  0  0  0  0
   -2.2039    1.9448    0.6639 O   0  0  0  0  0  0  0  0  0  0  0  0
   -0.4306    1.8354    2.0503 N   0  0  0  0  0  0  0  0  0  0  0  0
    0.3001    1.2459    2.4139 H   0  0  0  0  0  0  0  0  0  0  0  0
   -0.5192    3.2082    2.5456 C   0  0  0  0  0  0  0  0  0  0  0  0
   -1.5166    3.3903    2.9518 H   0  0  0  0  0  0  0  0  0  0  0  0
    0.2240    3.3791    3.3257 H   0  0  0  0  0  0  0  0  0  0  0  0
   -0.3477    3.9067    1.7239 H   0  0  0  0  0  0  0  0  0  0  0  0
  5  6  2  0  0  0  0
  5  7  1  0  0  0  0
  2  3  1  0  0  0  0
  2  4  1  0  0  0  0
  2  5  1  0  0  0  0
  1  2  1  0  0  0  0
 26 27  2  0  0  0  0
 26 28  1  0  0  0  0
 23 24  1  0  0  0  0
 23 25  1  0  0  0  0
 20 21  1  0  0  0  0
 20 22  1  0  0  0  0
 20 23  1  0  0  0  0
 17 18  1  0  0  0  0
 17 19  1  0  0  0  0
 17 20  1  0  0  0  0
 14 15  1  0  0  0  0
 14 16  1  0  0  0  0
 14 17  1  0  0  0  0
 11 12  1  0  0  0  0
 11 13  1  0  0  0  0
 11 14  1  0  0  0  0
  9 10  1  0  0  0  0
  9 11  1  0  0  0  0
  9 26  1  0  0  0  0
  7  8  1  0  0  0  0
  7  9  1  0  0  0  0
 30 31  1  0  0  0  0
 30 32  1  0  0  0  0
 30 33  1  0  0  0  0
 28 29  1  0  0  0  0
 28 30  1  0  0  0  0
M  END
$$$$
default_name
  -OEChem-02102213163D

 33 32  0     1  0  0  0  0  0999 V2000
   -3.8420   -3.6918    1.5562 H   0  0  0  0  0  0  0  0  0  0  0  0
   -3.8430   -2.7008    1.1032 C   0  0  0  0  0  0  0  0  0  0  0  0
   -4.5510   -2.0608    1.6242 H   0  0  0  0  0  0  0  0  0  0  0  0
   -4.1140   -2.7798    0.0522 H   0  0  0  0  0  0  0  0  0  0  0  0
   -2.4570   -2.1098    1.2172 C   0  0  0  0  0  0  0  0  0  0  0  0
   -1.5600   -2.7438    1.7572 O   0  0  0  0  0  0  0  0  0  0  0  0
   -2.2870   -0.8898    0.7102 N   0  0  0  0  0  0  0  0  0  0  0  0
   -3.0820   -0.4218    0.2992 H   0  0  0  0  0  0  0  0  0  0  0  0
   -1.0240   -0.1468    0.7262 C   0  0  1  0  0  0  0  0  0  0  0  0
   -0.3583   -0.6100    1.4558 H   0  0  0  0  0  0  0  0  0  0  0  0
   -0.3739   -0.2459   -0.6675 C   0  0  0  0  0  0  0  0  0  0  0  0
   -0.6677   -1.1949   -1.1208 H   0  0  0  0  0  0  0  0  0  0  0  0
   -0.7480    0.5625   -1.2972 H   0  0  0  0  0  0  0  0  0  0  0  0
    1.1612   -0.1883   -0.6280 C   0  0  0  0  0  0  0  0  0  0  0  0
    1.4907    0.8482   -0.7059 H   0  0  0  0  0  0  0  0  0  0  0  0
    1.5118   -0.6046    0.3182 H   0  0  0  0  0  0  0  0  0  0  0  0
    1.7689   -0.9874   -1.7863 C   0  0  0  0  0  0  0  0  0  0  0  0
    1.4418   -2.0259   -1.7265 H   0  0  0  0  0  0  0  0  0  0  0  0
    1.4405   -0.5603   -2.7344 H   0  0  0  0  0  0  0  0  0  0  0  0
    3.2935   -0.9342   -1.7092 C   0  0  0  0  0  0  0  0  0  0  0  0
    3.6235    0.1005   -1.7874 H   0  0  0  0  0  0  0  0  0  0  0  0
    3.6223   -1.3440   -0.7556 H   0  0  0  0  0  0  0  0  0  0  0  0
    3.9087   -1.7102   -2.7920 N   0  0  0  0  0  0  0  0  0  0  0  0
    4.9131   -1.6417   -2.7186 H   0  0  0  0  0  0  0  0  0  0  0  0
    3.6312   -2.6776   -2.7054 H   0  0  0  0  0  0  0  0  0  0  0  0
   -1.2712    1.3099    1.1517 C   0  0  0  0  0  0  0  0  0  0  0  0
   -2.2039    1.9448    0.6639 O   0  0  0  0  0  0  0  0  0  0  0  0
   -0.4306    1.8354    2.0503 N   0  0  0  0  0  0  0  0  0  0  0  0
    0.3001    1.2459    2.4139 H   0  0  0  0  0  0  0  0  0  0  0  0
   -0.5192    3.2082    2.5456 C   0  0  0  0  0  0  0  0  0  0  0  0
   -1.5166    3.3903    2.9518 H   0  0  0  0  0  0  0  0  0  0  0  0
    0.2240    3.3791    3.3257 H   0  0  0  0  0  0  0  0  0  0  0  0
   -0.3477    3.9067    1.7239 H   0  0  0  0  0  0  0  0  0  0  0  0
  5  6  2  0  0  0  0
  5  7  1  0  0  0  0
  2  3  1  0  0  0  0
  2  4  1  0  0  0  0
  2  5  1  0  0  0  0
  1  2  1  0  0  0  0
 26 27  2  0  0  0  0
 26 28  1  0  0  0  0
 23 24  1  0  0  0  0
 23 25  1  0  0  0  0
 20 21  1  0  0  0  0
 20 22  1  0  0  0  0
 20 23  1  0  0  0  0
 17 18  1  0  0  0  0
 17 19  1  0  0  0  0
 17 20  1  0  0  0  0
 14 15  1  0  0  0  0
 14 16  1  0  0  0  0
 14 17  1  0  0  0  0
 11 12  1  0  0  0  0
 11 13  1  0  0  0  0
 11 14  1  0  0  0  0
  9 10  1  0  0  0  0
  9 11  1  0  0  0  0
  9 26  1  0  0  0  0
  7  8  1  0  0  0  0
  7  9  1  0  0  0  0
 30 31  1  0  0  0  0
 30 32  1  0  0  0  0
 30 33  1  0  0  0  0
 28 29  1  0  0  0  0
 28 30  1  0  0  0  0
M  END
$$$$
default_name
  -OEChem-02102213163D

 33 32  0     1  0  0  0  0  0999 V2000
   -3.8420   -3.6918    1.5562 H   0  0  0  0  0  0  0  0  0  0  0  0
   -3.8430   -2.7008    1.1032 C   0  0  0  0  0  0  0  0  0  0  0  0
   -4.5510   -2.0608    1.6242 H   0  0  0  0  0  0  0  0  0  0  0  0
   -4.1140   -2.7798    0.0522 H   0  0  0  0  0  0  0  0  0  0  0  0
   -2.4570   -2.1098    1.2172 C   0  0  0  0  0  0  0  0  0  0  0  0
   -1.5600   -2.7438    1.7572 O   0  0  0  0  0  0  0  0  0  0  0  0
   -2.2870   -0.8898    0.7102 N   0  0  0  0  0  0  0  0  0  0  0  0
   -3.0820   -0.4218    0.2992 H   0  0  0  0  0  0  0  0  0  0  0  0
   -1.0240   -0.1468    0.7262 C   0  0  1  0  0  0  0  0  0  0  0  0
   -0.3583   -0.6100    1.4558 H   0  0  0  0  0  0  0  0  0  0  0  0
   -0.3739   -0.2459   -0.6675 C   0  0  0  0  0  0  0  0  0  0  0  0
   -0.6677   -1.1949   -1.1208 H   0  0  0  0  0  0  0  0  0  0  0  0
   -0.7480    0.5625   -1.2972 H   0  0  0  0  0  0  0  0  0  0  0  0
    1.1612   -0.1883   -0.6280 C   0  0  0  0  0  0  0  0  0  0  0  0
    1.4842    0.8357   -0.4382 H   0  0  0  0  0  0  0  0  0  0  0  0
    1.5240   -0.8322    0.1752 H   0  0  0  0  0  0  0  0  0  0  0  0
    1.7609   -0.6559   -1.9589 C   0  0  0  0  0  0  0  0  0  0  0  0
    1.4400   -1.6771   -2.1668 H   0  0  0  0  0  0  0  0  0  0  0  0
    1.4202   -0.0009   -2.7613 H   0  0  0  0  0  0  0  0  0  0  0  0
    3.2859   -0.6124   -1.8841 C   0  0  0  0  0  0  0  0  0  0  0  0
    3.6095    0.4099   -1.6950 H   0  0  0  0  0  0  0  0  0  0  0  0
    3.6269   -1.2521   -1.0718 H   0  0  0  0  0  0  0  0  0  0  0  0
    3.8937   -1.0772   -3.1362 N   0  0  0  0  0  0  0  0  0  0  0  0
    4.8985   -1.0220   -3.0564 H   0  0  0  0  0  0  0  0  0  0  0  0
    3.6224   -2.0363   -3.3002 H   0  0  0  0  0  0  0  0  0  0  0  0
   -1.2712    1.3099    1.1517 C   0  0  0  0  0  0  0  0  0  0  0  0
   -2.2039    1.9448    0.6639 O   0  0  0  0  0  0  0  0  0  0  0  0
   -0.4306    1.8354    2.0503 N   0  0  0  0  0  0  0  0  0  0  0  0
    0.3001    1.2459    2.4139 H   0  0  0  0  0  0  0  0  0  0  0  0
   -0.5192    3.2082    2.5456 C   0  0  0  0  0  0  0  0  0  0  0  0
   -1.5166    3.3903    2.9518 H   0  0  0  0  0  0  0  0  0  0  0  0
    0.2240    3.3791    3.3257 H   0  0  0  0  0  0  0  0  0  0  0  0
   -0.3477    3.9067    1.7239 H   0  0  0  0  0  0  0  0  0  0  0  0
  5  6  2  0  0  0  0
  5  7  1  0  0  0  0
  2  3  1  0  0  0  0
  2  4  1  0  0  0  0
  2  5  1  0  0  0  0
  1  2  1  0  0  0  0
 26 27  2  0  0  0  0
 26 28  1  0  0  0  0
 23 24  1  0  0  0  0
 23 25  1  0  0  0  0
 20 21  1  0  0  0  0
 20 22  1  0  0  0  0
 20 23  1  0  0  0  0
 17 18  1  0  0  0  0
 17 19  1  0  0  0  0
 17 20  1  0  0  0  0
 14 15  1  0  0  0  0
 14 16  1  0  0  0  0
 14 17  1  0  0  0  0
 11 12  1  0  0  0  0
 11 13  1  0  0  0  0
 11 14  1  0  0  0  0
  9 10  1  0  0  0  0
  9 11  1  0  0  0  0
  9 26  1  0  0  0  0
  7  8  1  0  0  0  0
  7  9  1  0  0  0  0
 30 31  1  0  0  0  0
 30 32  1  0  0  0  0
 30 33  1  0  0  0  0
 28 29  1  0  0  0  0
 28 30  1  0  0  0  0
M  END
$$$$
default_name
  -OEChem-02102213163D

 33 32  0     1  0  0  0  0  0999 V2000
   -3.8420   -3.6918    1.5562 H   0  0  0  0  0  0  0  0  0  0  0  0
   -3.8430   -2.7008    1.1032 C   0  0  0  0  0  0  0  0  0  0  0  0
   -4.5510   -2.0608    1.6242 H   0  0  0  0  0  0  0  0  0  0  0  0
   -4.1140   -2.7798    0.0522 H   0  0  0  0  0  0  0  0  0  0  0  0
   -2.4570   -2.1098    1.2172 C   0  0  0  0  0  0  0  0  0  0  0  0
   -1.5600   -2.7438    1.7572 O   0  0  0  0  0  0  0  0  0  0  0  0
   -2.2870   -0.8898    0.7102 N   0  0  0  0  0  0  0  0  0  0  0  0
   -3.0820   -0.4218    0.2992 H   0  0  0  0  0  0  0  0  0  0  0  0
   -1.0240   -0.1468    0.7262 C   0  0  1  0  0  0  0  0  0  0  0  0
   -0.3583   -0.6100    1.4558 H   0  0  0  0  0  0  0  0  0  0  0  0
   -0.3739   -0.2459   -0.6675 C   0  0  0  0  0  0  0  0  0  0  0  0
   -0.8673   -1.0451   -1.2245 H   0  0  0  0  0  0  0  0  0  0  0  0
   -0.5304    0.6905   -1.2048 H   0  0  0  0  0  0  0  0  0  0  0  0
    1.1304   -0.5552   -0.6162 C   0  0  0  0  0  0  0  0  0  0  0  0
    1.6476    0.2326   -0.0678 H   0  0  0  0  0  0  0  0  0  0  0  0
    1.2840   -1.5070   -0.1044 H   0  0  0  0  0  0  0  0  0  0  0  0
    1.7199   -0.6415   -2.0286 C   0  0  0  0  0  0  0  0  0  0  0  0
    1.2069   -1.4209   -2.5928 H   0  0  0  0  0  0  0  0  0  0  0  0
    1.5902    0.3150   -2.5357 H   0  0  0  0  0  0  0  0  0  0  0  0
    3.2087   -0.9738   -1.9495 C   0  0  0  0  0  0  0  0  0  0  0  0
    3.7261   -0.1874   -1.4024 H   0  0  0  0  0  0  0  0  0  0  0  0
    3.3412   -1.9201   -1.4276 H   0  0  0  0  0  0  0  0  0  0  0  0
    3.8005   -1.0874   -3.2875 N   0  0  0  0  0  0  0  0  0  0  0  0
    4.7847   -1.2932   -3.1974 H   0  0  0  0  0  0  0  0  0  0  0  0
    3.3455   -1.8373   -3.7885 H   0  0  0  0  0  0  0  0  0  0  0  0
   -1.2712    1.3099    1.1517 C   0  0  0  0  0  0  0  0  0  0  0  0
   -2.2039    1.9448    0.6639 O   0  0  0  0  0  0  0  0  0  0  0  0
   -0.4306    1.8354    2.0503 N   0  0  0  0  0  0  0  0  0  0  0  0
    0.3001    1.2459    2.4139 H   0  0  0  0  0  0  0  0  0  0  0  0
   -0.5192    3.2082    2.5456 C   0  0  0  0  0  0  0  0  0  0  0  0
   -1.5166    3.3903    2.9518 H   0  0  0  0  0  0  0  0  0  0  0  0
    0.2240    3.3791    3.3257 H   0  0  0  0  0  0  0  0  0  0  0  0
   -0.3477    3.9067    1.7239 H   0  0  0  0  0  0  0  0  0  0  0  0
  5  6  2  0  0  0  0
  5  7  1  0  0  0  0
  2  3  1  0  0  0  0
  2  4  1  0  0  0  0
  2  5  1  0  0  0  0
  1  2  1  0  0  0  0
 26 27  2  0  0  0  0
 26 28  1  0  0  0  0
 23 24  1  0  0  0  0
 23 25  1  0  0  0  0
 20 21  1  0  0  0  0
 20 22  1  0  0  0  0
 20 23  1  0  0  0  0
 17 18  1  0  0  0  0
 17 19  1  0  0  0  0
 17 20  1  0  0  0  0
 14 15  1  0  0  0  0
 14 16  1  0  0  0  0
 14 17  1  0  0  0  0
 11 12  1  0  0  0  0
 11 13  1  0  0  0  0
 11 14  1  0  0  0  0
  9 10  1  0  0  0  0
  9 11  1  0  0  0  0
  9 26  1  0  0  0  0
  7  8  1  0  0  0  0
  7  9  1  0  0  0  0
 30 31  1  0  0  0  0
 30 32  1  0  0  0  0
 30 33  1  0  0  0  0
 28 29  1  0  0  0  0
 28 30  1  0  0  0  0
M  END
$$$$
default_name
  -OEChem-02102213163D

 33 32  0     1  0  0  0  0  0999 V2000
   -3.8420   -3.6918    1.5562 H   0  0  0  0  0  0  0  0  0  0  0  0
   -3.8430   -2.7008    1.1032 C   0  0  0  0  0  0  0  0  0  0  0  0
   -4.5510   -2.0608    1.6242 H   0  0  0  0  0  0  0  0  0  0  0  0
   -4.1140   -2.7798    0.0522 H   0  0  0  0  0  0  0  0  0  0  0  0
   -2.4570   -2.1098    1.2172 C   0  0  0  0  0  0  0  0  0  0  0  0
   -1.5600   -2.7438    1.7572 O   0  0  0  0  0  0  0  0  0  0  0  0
   -2.2870   -0.8898    0.7102 N   0  0  0  0  0  0  0  0  0  0  0  0
   -3.0820   -0.4218    0.2992 H   0  0  0  0  0  0  0  0  0  0  0  0
   -1.0240   -0.1468    0.7262 C   0  0  1  0  0  0  0  0  0  0  0  0
   -0.3583   -0.6100    1.4558 H   0  0  0  0  0  0  0  0  0  0  0  0
   -0.3739   -0.2459   -0.6675 C   0  0  0  0  0  0  0  0  0  0  0  0
   -0.8673   -1.0451   -1.2245 H   0  0  0  0  0  0  0  0  0  0  0  0
   -0.5304    0.6905   -1.2048 H   0  0  0  0  0  0  0  0  0  0  0  0
    1.1304   -0.5552   -0.6162 C   0  0  0  0  0  0  0  0  0  0  0  0
    1.6068    0.0687    0.1405 H   0  0  0  0  0  0  0  0  0  0  0  0
    1.2723   -1.6054   -0.3546 H   0  0  0  0  0  0  0  0  0  0  0  0
    1.7924   -0.2793   -1.9710 C   0  0  0  0  0  0  0  0  0  0  0  0
    1.3209   -0.8911   -2.7406 H   0  0  0  0  0  0  0  0  0  0  0  0
    1.6741    0.7743   -2.2256 H   0  0  0  0  0  0  0  0  0  0  0  0
    3.2801   -0.6180   -1.8995 C   0  0  0  0  0  0  0  0  0  0  0  0
    3.7568    0.0049   -1.1444 H   0  0  0  0  0  0  0  0  0  0  0  0
    3.4004   -1.6655   -1.6279 H   0  0  0  0  0  0  0  0  0  0  0  0
    3.9411   -0.3874   -3.1892 N   0  0  0  0  0  0  0  0  0  0  0  0
    4.9224   -0.6075   -3.1019 H   0  0  0  0  0  0  0  0  0  0  0  0
    3.5238   -0.9866   -3.8872 H   0  0  0  0  0  0  0  0  0  0  0  0
   -1.2712    1.3099    1.1517 C   0  0  0  0  0  0  0  0  0  0  0  0
   -2.2039    1.9448    0.6639 O   0  0  0  0  0  0  0  0  0  0  0  0
   -0.4306    1.8354    2.0503 N   0  0  0  0  0  0  0  0  0  0  0  0
    0.3001    1.2459    2.4139 H   0  0  0  0  0  0  0  0  0  0  0  0
   -0.5192    3.2082    2.5456 C   0  0  0  0  0  0  0  0  0  0  0  0
   -1.5166    3.3903    2.9518 H   0  0  0  0  0  0  0  0  0  0  0  0
    0.2240    3.3791    3.3257 H   0  0  0  0  0  0  0  0  0  0  0  0
   -0.3477    3.9067    1.7239 H   0  0  0  0  0  0  0  0  0  0  0  0
  5  6  2  0  0  0  0
  5  7  1  0  0  0  0
  2  3  1  0  0  0  0
  2  4  1  0  0  0  0
  2  5  1  0  0  0  0
  1  2  1  0  0  0  0
 26 27  2  0  0  0  0
 26 28  1  0  0  0  0
 23 24  1  0  0  0  0
 23 25  1  0  0  0  0
 20 21  1  0  0  0  0
 20 22  1  0  0  0  0
 20 23  1  0  0  0  0
 17 18  1  0  0  0  0
 17 19  1  0  0  0  0
 17 20  1  0  0  0  0
 14 15  1  0  0  0  0
 14 16  1  0  0  0  0
 14 17  1  0  0  0  0
 11 12  1  0  0  0  0
 11 13  1  0  0  0  0
 11 14  1  0  0  0  0
  9 10  1  0  0  0  0
  9 11  1  0  0  0  0
  9 26  1  0  0  0  0
  7  8  1  0  0  0  0
  7  9  1  0  0  0  0
 30 31  1  0  0  0  0
 30 32  1  0  0  0  0
 30 33  1  0  0  0  0
 28 29  1  0  0  0  0
 28 30  1  0  0  0  0
M  END
$$$$
default_name
  -OEChem-02102213163D

 33 32  0     1  0  0  0  0  0999 V2000
   -3.8420   -3.6918    1.5562 H   0  0  0  0  0  0  0  0  0  0  0  0
   -3.8430   -2.7008    1.1032 C   0  0  0  0  0  0  0  0  0  0  0  0
   -4.5510   -2.0608    1.6242 H   0  0  0  0  0  0  0  0  0  0  0  0
   -4.1140   -2.7798    0.0522 H   0  0  0  0  0  0  0  0  0  0  0  0
   -2.4570   -2.1098    1.2172 C   0  0  0  0  0  0  0  0  0  0  0  0
   -1.5600   -2.7438    1.7572 O   0  0  0  0  0  0  0  0  0  0  0  0
   -2.2870   -0.8898    0.7102 N   0  0  0  0  0  0  0  0  0  0  0  0
   -3.0820   -0.4218    0.2992 H   0  0  0  0  0  0  0  0  0  0  0  0
   -1.0240   -0.1468    0.7262 C   0  0  1  0  0  0  0  0  0  0  0  0
   -0.3583   -0.6100    1.4558 H   0  0  0  0  0  0  0  0  0  0  0  0
   -0.3739   -0.2459   -0.6675 C   0  0  0  0  0  0  0  0  0  0  0  0
   -0.8673   -1.0451   -1.2245 H   0  0  0  0  0  0  0  0  0  0  0  0
   -0.5304    0.6905   -1.2048 H   0  0  0  0  0  0  0  0  0  0  0  0
    1.1304   -0.5552   -0.6162 C   0  0  0  0  0  0  0  0  0  0  0  0
    1.5580   -0.1426    0.2980 H   0  0  0  0  0  0  0  0  0  0  0  0
    1.2749   -1.6371   -0.6219 H   0  0  0  0  0  0  0  0  0  0  0  0
    1.8563    0.0565   -1.8198 C   0  0  0  0  0  0  0  0  0  0  0  0
    1.4340   -0.3410   -2.7433 H   0  0  0  0  0  0  0  0  0  0  0  0
    1.7350    1.1400   -1.8054 H   0  0  0  0  0  0  0  0  0  0  0  0
    3.3435   -0.2864   -1.7574 C   0  0  0  0  0  0  0  0  0  0  0  0
    3.7714    0.1256   -0.8449 H   0  0  0  0  0  0  0  0  0  0  0  0
    3.4658   -1.3682   -1.7538 H   0  0  0  0  0  0  0  0  0  0  0  0
    4.0657    0.2650   -2.9097 N   0  0  0  0  0  0  0  0  0  0  0  0
    5.0445    0.0319   -2.8288 H   0  0  0  0  0  0  0  0  0  0  0  0
    3.6937   -0.1384   -3.7578 H   0  0  0  0  0  0  0  0  0  0  0  0
   -1.2712    1.3099    1.1517 C   0  0  0  0  0  0  0  0  0  0  0  0
   -2.2039    1.9448    0.6639 O   0  0  0  0  0  0  0  0  0  0  0  0
   -0.4306    1.8354    2.0503 N   0  0  0  0  0  0  0  0  0  0  0  0
    0.3001    1.2459    2.4139 H   0  0  0  0  0  0  0  0  0  0  0  0
   -0.5192    3.2082    2.5456 C   0  0  0  0  0  0  0  0  0  0  0  0
   -1.5166    3.3903    2.9518 H   0  0  0  0  0  0  0  0  0  0  0  0
    0.2240    3.3791    3.3257 H   0  0  0  0  0  0  0  0  0  0  0  0
   -0.3477    3.9067    1.7239 H   0  0  0  0  0  0  0  0  0  0  0  0
  5  6  2  0  0  0  0
  5  7  1  0  0  0  0
  2  3  1  0  0  0  0
  2  4  1  0  0  0  0
  2  5  1  0  0  0  0
  1  2  1  0  0  0  0
 26 27  2  0  0  0  0
 26 28  1  0  0  0  0
 23 24  1  0  0  0  0
 23 25  1  0  0  0  0
 20 21  1  0  0  0  0
 20 22  1  0  0  0  0
 20 23  1  0  0  0  0
 17 18  1  0  0  0  0
 17 19  1  0  0  0  0
 17 20  1  0  0  0  0
 14 15  1  0  0  0  0
 14 16  1  0  0  0  0
 14 17  1  0  0  0  0
 11 12  1  0  0  0  0
 11 13  1  0  0  0  0
 11 14  1  0  0  0  0
  9 10  1  0  0  0  0
  9 11  1  0  0  0  0
  9 26  1  0  0  0  0
  7  8  1  0  0  0  0
  7  9  1  0  0  0  0
 30 31  1  0  0  0  0
 30 32  1  0  0  0  0
 30 33  1  0  0  0  0
 28 29  1  0  0  0  0
 28 30  1  0  0  0  0
M  END
$$$$
default_name
  -OEChem-02102213163D

 33 32  0     1  0  0  0  0  0999 V2000
   -3.8420   -3.6918    1.5562 H   0  0  0  0  0  0  0  0  0  0  0  0
   -3.8430   -2.7008    1.1032 C   0  0  0  0  0  0  0  0  0  0  0  0
   -4.5510   -2.0608    1.6242 H   0  0  0  0  0  0  0  0  0  0  0  0
   -4.1140   -2.7798    0.0522 H   0  0  0  0  0  0  0  0  0  0  0  0
   -2.4570   -2.1098    1.2172 C   0  0  0  0  0  0  0  0  0  0  0  0
   -1.5600   -2.7438    1.7572 O   0  0  0  0  0  0  0  0  0  0  0  0
   -2.2870   -0.8898    0.7102 N   0  0  0  0  0  0  0  0  0  0  0  0
   -3.0820   -0.4218    0.2992 H   0  0  0  0  0  0  0  0  0  0  0  0
   -1.0240   -0.1468    0.7262 C   0  0  1  0  0  0  0  0  0  0  0  0
   -0.3583   -0.6100    1.4558 H   0  0  0  0  0  0  0  0  0  0  0  0
   -0.3739   -0.2459   -0.6675 C   0  0  0  0  0  0  0  0  0  0  0  0
   -0.8673   -1.0451   -1.2245 H   0  0  0  0  0  0  0  0  0  0  0  0
   -0.5304    0.6905   -1.2048 H   0  0  0  0  0  0  0  0  0  0  0  0
    1.1304   -0.5552   -0.6162 C   0  0  0  0  0  0  0  0  0  0  0  0
    1.5044   -0.3872    0.3941 H   0  0  0  0  0  0  0  0  0  0  0  0
    1.2916   -1.6000   -0.8879 H   0  0  0  0  0  0  0  0  0  0  0  0
    1.9073    0.3431   -1.5854 C   0  0  0  0  0  0  0  0  0  0  0  0
    1.5388    0.1920   -2.6005 H   0  0  0  0  0  0  0  0  0  0  0  0
    1.7687    1.3873   -1.3036 H   0  0  0  0  0  0  0  0  0  0  0  0
    3.3944   -0.0015   -1.5328 C   0  0  0  0  0  0  0  0  0  0  0  0
    3.7689    0.1664   -0.5243 H   0  0  0  0  0  0  0  0  0  0  0  0
    3.5329   -1.0487   -1.7967 H   0  0  0  0  0  0  0  0  0  0  0  0
    4.1658    0.8255   -2.4678 N   0  0  0  0  0  0  0  0  0  0  0  0
    5.1427    0.5814   -2.3966 H   0  0  0  0  0  0  0  0  0  0  0  0
    3.8438    0.6496   -3.4090 H   0  0  0  0  0  0  0  0  0  0  0  0
   -1.2712    1.3099    1.1517 C   0  0  0  0  0  0  0  0  0  0  0  0
   -2.2039    1.9448    0.6639 O   0  0  0  0  0  0  0  0  0  0  0  0
   -0.4306    1.8354    2.0503 N   0  0  0  0  0  0  0  0  0  0  0  0
    0.3001    1.2459    2.4139 H   0  0  0  0  0  0  0  0  0  0  0  0
   -0.5192    3.2082    2.5456 C   0  0  0  0  0  0  0  0  0  0  0  0
   -1.5166    3.3903    2.9518 H   0  0  0  0  0  0  0  0  0  0  0  0
    0.2240    3.3791    3.3257 H   0  0  0  0  0  0  0  0  0  0  0  0
   -0.3477    3.9067    1.7239 H   0  0  0  0  0  0  0  0  0  0  0  0
  5  6  2  0  0  0  0
  5  7  1  0  0  0  0
  2  3  1  0  0  0  0
  2  4  1  0  0  0  0
  2  5  1  0  0  0  0
  1  2  1  0  0  0  0
 26 27  2  0  0  0  0
 26 28  1  0  0  0  0
 23 24  1  0  0  0  0
 23 25  1  0  0  0  0
 20 21  1  0  0  0  0
 20 22  1  0  0  0  0
 20 23  1  0  0  0  0
 17 18  1  0  0  0  0
 17 19  1  0  0  0  0
 17 20  1  0  0  0  0
 14 15  1  0  0  0  0
 14 16  1  0  0  0  0
 14 17  1  0  0  0  0
 11 12  1  0  0  0  0
 11 13  1  0  0  0  0
 11 14  1  0  0  0  0
  9 10  1  0  0  0  0
  9 11  1  0  0  0  0
  9 26  1  0  0  0  0
  7  8  1  0  0  0  0
  7  9  1  0  0  0  0
 30 31  1  0  0  0  0
 30 32  1  0  0  0  0
 30 33  1  0  0  0  0
 28 29  1  0  0  0  0
 28 30  1  0  0  0  0
M  END
$$$$
default_name
  -OEChem-02102213163D

 33 32  0     1  0  0  0  0  0999 V2000
   -3.8420   -3.6918    1.5562 H   0  0  0  0  0  0  0  0  0  0  0  0
   -3.8430   -2.7008    1.1032 C   0  0  0  0  0  0  0  0  0  0  0  0
   -4.5510   -2.0608    1.6242 H   0  0  0  0  0  0  0  0  0  0  0  0
   -4.1140   -2.7798    0.0522 H   0  0  0  0  0  0  0  0  0  0  0  0
   -2.4570   -2.1098    1.2172 C   0  0  0  0  0  0  0  0  0  0  0  0
   -1.5600   -2.7438    1.7572 O   0  0  0  0  0  0  0  0  0  0  0  0
   -2.2870   -0.8898    0.7102 N   0  0  0  0  0  0  0  0  0  0  0  0
   -3.0820   -0.4218    0.2992 H   0  0  0  0  0  0  0  0  0  0  0  0
   -1.0240   -0.1468    0.7262 C   0  0  1  0  0  0  0  0  0  0  0  0
   -0.3583   -0.6100    1.4558 H   0  0  0  0  0  0  0  0  0  0  0  0
   -0.3739   -0.2459   -0.6675 C   0  0  0  0  0  0  0  0  0  0  0  0
   -0.8673   -1.0451   -1.2245 H   0  0  0  0  0  0  0  0  0  0  0  0
   -0.5304    0.6905   -1.2048 H   0  0  0  0  0  0  0  0  0  0  0  0
    1.1304   -0.5552   -0.6162 C   0  0  0  0  0  0  0  0  0  0  0  0
    1.4498   -0.6482    0.4221 H   0  0  0  0  0  0  0  0  0  0  0  0
    1.3212   -1.4967   -1.1345 H   0  0  0  0  0  0  0  0  0  0  0  0
    1.9418    0.5611   -1.2837 C   0  0  0  0  0  0  0  0  0  0  0  0
    1.6279    0.6716   -2.3221 H   0  0  0  0  0  0  0  0  0  0  0  0
    1.7730    1.4994   -0.7545 H   0  0  0  0  0  0  0  0  0  0  0  0
    3.4294    0.2172   -1.2410 C   0  0  0  0  0  0  0  0  0  0  0  0
    3.7494    0.1246   -0.2044 H   0  0  0  0  0  0  0  0  0  0  0  0
    3.5973   -0.7286   -1.7536 H   0  0  0  0  0  0  0  0  0  0  0  0
    4.2347    1.2557   -1.8938 N   0  0  0  0  0  0  0  0  0  0  0  0
    5.2104    1.0034   -1.8349 H   0  0  0  0  0  0  0  0  0  0  0  0
    3.9639    1.3237   -2.8645 H   0  0  0  0  0  0  0  0  0  0  0  0
   -1.2712    1.3099    1.1517 C   0  0  0  0  0  0  0  0  0  0  0  0
   -2.2039    1.9448    0.6639 O   0  0  0  0  0  0  0  0  0  0  0  0
   -0.4306    1.8354    2.0503 N   0  0  0  0  0  0  0  0  0  0  0  0
    0.3001    1.2459    2.4139 H   0  0  0  0  0  0  0  0  0  0  0  0
   -0.5192    3.2082    2.5456 C   0  0  0  0  0  0  0  0  0  0  0  0
   -1.5166    3.3903    2.9518 H   0  0  0  0  0  0  0  0  0  0  0  0
    0.2240    3.3791    3.3257 H   0  0  0  0  0  0  0  0  0  0  0  0
   -0.3477    3.9067    1.7239 H   0  0  0  0  0  0  0  0  0  0  0  0
  5  6  2  0  0  0  0
  5  7  1  0  0  0  0
  2  3  1  0  0  0  0
  2  4  1  0  0  0  0
  2  5  1  0  0  0  0
  1  2  1  0  0  0  0
 26 27  2  0  0  0  0
 26 28  1  0  0  0  0
 23 24  1  0  0  0  0
 23 25  1  0  0  0  0
 20 21  1  0  0  0  0
 20 22  1  0  0  0  0
 20 23  1  0  0  0  0
 17 18  1  0  0  0  0
 17 19  1  0  0  0  0
 17 20  1  0  0  0  0
 14 15  1  0  0  0  0
 14 16  1  0  0  0  0
 14 17  1  0  0  0  0
 11 12  1  0  0  0  0
 11 13  1  0  0  0  0
 11 14  1  0  0  0  0
  9 10  1  0  0  0  0
  9 11  1  0  0  0  0
  9 26  1  0  0  0  0
  7  8  1  0  0  0  0
  7  9  1  0  0  0  0
 30 31  1  0  0  0  0
 30 32  1  0  0  0  0
 30 33  1  0  0  0  0
 28 29  1  0  0  0  0
 28 30  1  0  0  0  0
M  END
$$$$
default_name
  -OEChem-02102213163D

 33 32  0     1  0  0  0  0  0999 V2000
   -3.8420   -3.6918    1.5562 H   0  0  0  0  0  0  0  0  0  0  0  0
   -3.8430   -2.7008    1.1032 C   0  0  0  0  0  0  0  0  0  0  0  0
   -4.5510   -2.0608    1.6242 H   0  0  0  0  0  0  0  0  0  0  0  0
   -4.1140   -2.7798    0.0522 H   0  0  0  0  0  0  0  0  0  0  0  0
   -2.4570   -2.1098    1.2172 C   0  0  0  0  0  0  0  0  0  0  0  0
   -1.5600   -2.7438    1.7572 O   0  0  0  0  0  0  0  0  0  0  0  0
   -2.2870   -0.8898    0.7102 N   0  0  0  0  0  0  0  0  0  0  0  0
   -3.0820   -0.4218    0.2992 H   0  0  0  0  0  0  0  0  0  0  0  0
   -1.0240   -0.1468    0.7262 C   0  0  1  0  0  0  0  0  0  0  0  0
   -0.3583   -0.6100    1.4558 H   0  0  0  0  0  0  0  0  0  0  0  0
   -0.3739   -0.2459   -0.6675 C   0  0  0  0  0  0  0  0  0  0  0  0
   -0.8673   -1.0451   -1.2245 H   0  0  0  0  0  0  0  0  0  0  0  0
   -0.5304    0.6905   -1.2048 H   0  0  0  0  0  0  0  0  0  0  0  0
    1.1304   -0.5552   -0.6162 C   0  0  0  0  0  0  0  0  0  0  0  0
    1.3979   -0.9079    0.3803 H   0  0  0  0  0  0  0  0  0  0  0  0
    1.3618   -1.3341   -1.3451 H   0  0  0  0  0  0  0  0  0  0  0  0
    1.9575    0.6954   -0.9352 C   0  0  0  0  0  0  0  0  0  0  0  0
    1.6953    1.0650   -1.9270 H   0  0  0  0  0  0  0  0  0  0  0  0
    1.7476    1.4685   -0.1955 H   0  0  0  0  0  0  0  0  0  0  0  0
    3.4461    0.3548   -0.9019 C   0  0  0  0  0  0  0  0  0  0  0  0
    3.7143    0.0029    0.0930 H   0  0  0  0  0  0  0  0  0  0  0  0
    3.6544   -0.4297   -1.6275 H   0  0  0  0  0  0  0  0  0  0  0  0
    4.2677    1.5265   -1.2267 N   0  0  0  0  0  0  0  0  0  0  0  0
    5.2428    1.2694   -1.1817 H   0  0  0  0  0  0  0  0  0  0  0  0
    4.0456    1.8379   -2.1616 H   0  0  0  0  0  0  0  0  0  0  0  0
   -1.2712    1.3099    1.1517 C   0  0  0  0  0  0  0  0  0  0  0  0
   -2.2039    1.9448    0.6639 O   0  0  0  0  0  0  0  0  0  0  0  0
   -0.4306    1.8354    2.0503 N   0  0  0  0  0  0  0  0  0  0  0  0
    0.3001    1.2459    2.4139 H   0  0  0  0  0  0  0  0  0  0  0  0
   -0.5192    3.2082    2.5456 C   0  0  0  0  0  0  0  0  0  0  0  0
   -1.5166    3.3903    2.9518 H   0  0  0  0  0  0  0  0  0  0  0  0
    0.2240    3.3791    3.3257 H   0  0  0  0  0  0  0  0  0  0  0  0
   -0.3477    3.9067    1.7239 H   0  0  0  0  0  0  0  0  0  0  0  0
  5  6  2  0  0  0  0
  5  7  1  0  0  0  0
  2  3  1  0  0  0  0
  2  4  1  0  0  0  0
  2  5  1  0  0  0  0
  1  2  1  0  0  0  0
 26 27  2  0  0  0  0
 26 28  1  0  0  0  0
 23 24  1  0  0  0  0
 23 25  1  0  0  0  0
 20 21  1  0  0  0  0
 20 22  1  0  0  0  0
 20 23  1  0  0  0  0
 17 18  1  0  0  0  0
 17 19  1  0  0  0  0
 17 20  1  0  0  0  0
 14 15  1  0  0  0  0
 14 16  1  0  0  0  0
 14 17  1  0  0  0  0
 11 12  1  0  0  0  0
 11 13  1  0  0  0  0
 11 14  1  0  0  0  0
  9 10  1  0  0  0  0
  9 11  1  0  0  0  0
  9 26  1  0  0  0  0
  7  8  1  0  0  0  0
  7  9  1  0  0  0  0
 30 31  1  0  0  0  0
 30 32  1  0  0  0  0
 30 33  1  0  0  0  0
 28 29  1  0  0  0  0
 28 30  1  0  0  0  0
M  END
$$$$
default_name
  -OEChem-02102213163D

 33 32  0     1  0  0  0  0  0999 V2000
   -3.8420   -3.6918    1.5562 H   0  0  0  0  0  0  0  0  0  0  0  0
   -3.8430   -2.7008    1.1032 C   0  0  0  0  0  0  0  0  0  0  0  0
   -4.5510   -2.0608    1.6242 H   0  0  0  0  0  0  0  0  0  0  0  0
   -4.1140   -2.7798    0.0522 H   0  0  0  0  0  0  0  0  0  0  0  0
   -2.4570   -2.1098    1.2172 C   0  0  0  0  0  0  0  0  0  0  0  0
   -1.5600   -2.7438    1.7572 O   0  0  0  0  0  0  0  0  0  0  0  0
   -2.2870   -0.8898    0.7102 N   0  0  0  0  0  0  0  0  0  0  0  0
   -3.0820   -0.4218    0.2992 H   0  0  0  0  0  0  0  0  0  0  0  0
   -1.0240   -0.1468    0.7262 C   0  0  1  0  0  0  0  0  0  0  0  0
   -0.3583   -0.6100    1.4558 H   0  0  0  0  0  0  0  0  0  0  0  0
   -0.3739   -0.2459   -0.6675 C   0  0  0  0  0  0  0  0  0  0  0  0
   -0.8673   -1.0451   -1.2245 H   0  0  0  0  0  0  0  0  0  0  0  0
   -0.5304    0.6905   -1.2048 H   0  0  0  0  0  0  0  0  0  0  0  0
    1.1304   -0.5552   -0.6162 C   0  0  0  0  0  0  0  0  0  0  0  0
    1.3521   -1.1485    0.2713 H   0  0  0  0  0  0  0  0  0  0  0  0
    1.4106   -1.1233   -1.5051 H   0  0  0  0  0  0  0  0  0  0  0  0
    1.9534    0.7370   -0.5638 C   0  0  0  0  0  0  0  0  0  0  0  0
    1.7364    1.3456   -1.4422 H   0  0  0  0  0  0  0  0  0  0  0  0
    1.6942    1.2969    0.3353 H   0  0  0  0  0  0  0  0  0  0  0  0
    3.4434    0.4019   -0.5386 C   0  0  0  0  0  0  0  0  0  0  0  0
    3.6659   -0.1902    0.3476 H   0  0  0  0  0  0  0  0  0  0  0  0
    3.7005   -0.1725   -1.4271 H   0  0  0  0  0  0  0  0  0  0  0  0
    4.2624    1.6193   -0.5121 N   0  0  0  0  0  0  0  0  0  0  0  0
    5.2378    1.3611   -0.4818 H   0  0  0  0  0  0  0  0  0  0  0  0
    4.0835    2.1572   -1.3481 H   0  0  0  0  0  0  0  0  0  0  0  0
   -1.2712    1.3099    1.1517 C   0  0  0  0  0  0  0  0  0  0  0  0
   -2.2039    1.9448    0.6639 O   0  0  0  0  0  0  0  0  0  0  0  0
   -0.4306    1.8354    2.0503 N   0  0  0  0  0  0  0  0  0  0  0  0
    0.3001    1.2459    2.4139 H   0  0  0  0  0  0  0  0  0  0  0  0
   -0.5192    3.2082    2.5456 C   0  0  0  0  0  0  0  0  0  0  0  0
   -1.5166    3.3903    2.9518 H   0  0  0  0  0  0  0  0  0  0  0  0
    0.2240    3.3791    3.3257 H   0  0  0  0  0  0  0  0  0  0  0  0
   -0.3477    3.9067    1.7239 H   0  0  0  0  0  0  0  0  0  0  0  0
  5  6  2  0  0  0  0
  5  7  1  0  0  0  0
  2  3  1  0  0  0  0
  2  4  1  0  0  0  0
  2  5  1  0  0  0  0
  1  2  1  0  0  0  0
 26 27  2  0  0  0  0
 26 28  1  0  0  0  0
 23 24  1  0  0  0  0
 23 25  1  0  0  0  0
 20 21  1  0  0  0  0
 20 22  1  0  0  0  0
 20 23  1  0  0  0  0
 17 18  1  0  0  0  0
 17 19  1  0  0  0  0
 17 20  1  0  0  0  0
 14 15  1  0  0  0  0
 14 16  1  0  0  0  0
 14 17  1  0  0  0  0
 11 12  1  0  0  0  0
 11 13  1  0  0  0  0
 11 14  1  0  0  0  0
  9 10  1  0  0  0  0
  9 11  1  0  0  0  0
  9 26  1  0  0  0  0
  7  8  1  0  0  0  0
  7  9  1  0  0  0  0
 30 31  1  0  0  0  0
 30 32  1  0  0  0  0
 30 33  1  0  0  0  0
 28 29  1  0  0  0  0
 28 30  1  0  0  0  0
M  END
$$$$
default_name
  -OEChem-02102213163D

 33 32  0     1  0  0  0  0  0999 V2000
   -3.8420   -3.6918    1.5562 H   0  0  0  0  0  0  0  0  0  0  0  0
   -3.8430   -2.7008    1.1032 C   0  0  0  0  0  0  0  0  0  0  0  0
   -4.5510   -2.0608    1.6242 H   0  0  0  0  0  0  0  0  0  0  0  0
   -4.1140   -2.7798    0.0522 H   0  0  0  0  0  0  0  0  0  0  0  0
   -2.4570   -2.1098    1.2172 C   0  0  0  0  0  0  0  0  0  0  0  0
   -1.5600   -2.7438    1.7572 O   0  0  0  0  0  0  0  0  0  0  0  0
   -2.2870   -0.8898    0.7102 N   0  0  0  0  0  0  0  0  0  0  0  0
   -3.0820   -0.4218    0.2992 H   0  0  0  0  0  0  0  0  0  0  0  0
   -1.0240   -0.1468    0.7262 C   0  0  1  0  0  0  0  0  0  0  0  0
   -0.3583   -0.6100    1.4558 H   0  0  0  0  0  0  0  0  0  0  0  0
   -0.3739   -0.2459   -0.6675 C   0  0  0  0  0  0  0  0  0  0  0  0
   -0.8673   -1.0451   -1.2245 H   0  0  0  0  0  0  0  0  0  0  0  0
   -0.5304    0.6905   -1.2048 H   0  0  0  0  0  0  0  0  0  0  0  0
    1.1304   -0.5552   -0.6162 C   0  0  0  0  0  0  0  0  0  0  0  0
    1.3157   -1.3538    0.1027 H   0  0  0  0  0  0  0  0  0  0  0  0
    1.4642   -0.8788   -1.6038 H   0  0  0  0  0  0  0  0  0  0  0  0
    1.9297    0.6830   -0.1947 C   0  0  0  0  0  0  0  0  0  0  0  0
    1.7485    1.4941   -0.9007 H   0  0  0  0  0  0  0  0  0  0  0  0
    1.6165    0.9961    0.8017 H   0  0  0  0  0  0  0  0  0  0  0  0
    3.4215    0.3554   -0.1759 C   0  0  0  0  0  0  0  0  0  0  0  0
    3.6075   -0.4417    0.5421 H   0  0  0  0  0  0  0  0  0  0  0  0
    3.7323    0.0256   -1.1658 H   0  0  0  0  0  0  0  0  0  0  0  0
    4.2193    1.5278    0.2015 N   0  0  0  0  0  0  0  0  0  0  0  0
    5.1957    1.2722    0.2172 H   0  0  0  0  0  0  0  0  0  0  0  0
    4.0750    2.2598   -0.4795 H   0  0  0  0  0  0  0  0  0  0  0  0
   -1.2712    1.3099    1.1517 C   0  0  0  0  0  0  0  0  0  0  0  0
   -2.2039    1.9448    0.6639 O   0  0  0  0  0  0  0  0  0  0  0  0
   -0.4306    1.8354    2.0503 N   0  0  0  0  0  0  0  0  0  0  0  0
    0.3001    1.2459    2.4139 H   0  0  0  0  0  0  0  0  0  0  0  0
   -0.5192    3.2082    2.5456 C   0  0  0  0  0  0  0  0  0  0  0  0
   -1.5166    3.3903    2.9518 H   0  0  0  0  0  0  0  0  0  0  0  0
    0.2240    3.3791    3.3257 H   0  0  0  0  0  0  0  0  0  0  0  0
   -0.3477    3.9067    1.7239 H   0  0  0  0  0  0  0  0  0  0  0  0
  5  6  2  0  0  0  0
  5  7  1  0  0  0  0
  2  3  1  0  0  0  0
  2  4  1  0  0  0  0
  2  5  1  0  0  0  0
  1  2  1  0  0  0  0
 26 27  2  0  0  0  0
 26 28  1  0  0  0  0
 23 24  1  0  0  0  0
 23 25  1  0  0  0  0
 20 21  1  0  0  0  0
 20 22  1  0  0  0  0
 20 23  1  0  0  0  0
 17 18  1  0  0  0  0
 17 19  1  0  0  0  0
 17 20  1  0  0  0  0
 14 15  1  0  0  0  0
 14 16  1  0  0  0  0
 14 17  1  0  0  0  0
 11 12  1  0  0  0  0
 11 13  1  0  0  0  0
 11 14  1  0  0  0  0
  9 10  1  0  0  0  0
  9 11  1  0  0  0  0
  9 26  1  0  0  0  0
  7  8  1  0  0  0  0
  7  9  1  0  0  0  0
 30 31  1  0  0  0  0
 30 32  1  0  0  0  0
 30 33  1  0  0  0  0
 28 29  1  0  0  0  0
 28 30  1  0  0  0  0
M  END
$$$$
default_name
  -OEChem-02102213163D

 33 32  0     1  0  0  0  0  0999 V2000
   -3.8420   -3.6918    1.5562 H   0  0  0  0  0  0  0  0  0  0  0  0
   -3.8430   -2.7008    1.1032 C   0  0  0  0  0  0  0  0  0  0  0  0
   -4.5510   -2.0608    1.6242 H   0  0  0  0  0  0  0  0  0  0  0  0
   -4.1140   -2.7798    0.0522 H   0  0  0  0  0  0  0  0  0  0  0  0
   -2.4570   -2.1098    1.2172 C   0  0  0  0  0  0  0  0  0  0  0  0
   -1.5600   -2.7438    1.7572 O   0  0  0  0  0  0  0  0  0  0  0  0
   -2.2870   -0.8898    0.7102 N   0  0  0  0  0  0  0  0  0  0  0  0
   -3.0820   -0.4218    0.2992 H   0  0  0  0  0  0  0  0  0  0  0  0
   -1.0240   -0.1468    0.7262 C   0  0  1  0  0  0  0  0  0  0  0  0
   -0.3583   -0.6100    1.4558 H   0  0  0  0  0  0  0  0  0  0  0  0
   -0.3739   -0.2459   -0.6675 C   0  0  0  0  0  0  0  0  0  0  0  0
   -0.8673   -1.0451   -1.2245 H   0  0  0  0  0  0  0  0  0  0  0  0
   -0.5304    0.6905   -1.2048 H   0  0  0  0  0  0  0  0  0  0  0  0
    1.1304   -0.5552   -0.6162 C   0  0  0  0  0  0  0  0  0  0  0  0
    1.2910   -1.5096   -0.1141 H   0  0  0  0  0  0  0  0  0  0  0  0
    1.5191   -0.6171   -1.6343 H   0  0  0  0  0  0  0  0  0  0  0  0
    1.8881    0.5372    0.1470 C   0  0  0  0  0  0  0  0  0  0  0  0
    1.7307    1.5004   -0.3393 H   0  0  0  0  0  0  0  0  0  0  0  0
    1.5197    0.5867    1.1720 H   0  0  0  0  0  0  0  0  0  0  0  0
    3.3818    0.2184    0.1615 C   0  0  0  0  0  0  0  0  0  0  0  0
    3.5432   -0.7344    0.6632 H   0  0  0  0  0  0  0  0  0  0  0  0
    3.7477    0.1510   -0.8617 H   0  0  0  0  0  0  0  0  0  0  0  0
    4.1412    1.2583    0.8653 N   0  0  0  0  0  0  0  0  0  0  0  0
    5.1194    1.0089    0.8677 H   0  0  0  0  0  0  0  0  0  0  0  0
    4.0207    2.1388    0.3852 H   0  0  0  0  0  0  0  0  0  0  0  0
   -1.2712    1.3099    1.1517 C   0  0  0  0  0  0  0  0  0  0  0  0
   -2.2039    1.9448    0.6639 O   0  0  0  0  0  0  0  0  0  0  0  0
   -0.4306    1.8354    2.0503 N   0  0  0  0  0  0  0  0  0  0  0  0
    0.3001    1.2459    2.4139 H   0  0  0  0  0  0  0  0  0  0  0  0
   -0.5192    3.2082    2.5456 C   0  0  0  0  0  0  0  0  0  0  0  0
   -1.5166    3.3903    2.9518 H   0  0  0  0  0  0  0  0  0  0  0  0
    0.2240    3.3791    3.3257 H   0  0  0  0  0  0  0  0  0  0  0  0
   -0.3477    3.9067    1.7239 H   0  0  0  0  0  0  0  0  0  0  0  0
  5  6  2  0  0  0  0
  5  7  1  0  0  0  0
  2  3  1  0  0  0  0
  2  4  1  0  0  0  0
  2  5  1  0  0  0  0
  1  2  1  0  0  0  0
 26 27  2  0  0  0  0
 26 28  1  0  0  0  0
 23 24  1  0  0  0  0
 23 25  1  0  0  0  0
 20 21  1  0  0  0  0
 20 22  1  0  0  0  0
 20 23  1  0  0  0  0
 17 18  1  0  0  0  0
 17 19  1  0  0  0  0
 17 20  1  0  0  0  0
 14 15  1  0  0  0  0
 14 16  1  0  0  0  0
 14 17  1  0  0  0  0
 11 12  1  0  0  0  0
 11 13  1  0  0  0  0
 11 14  1  0  0  0  0
  9 10  1  0  0  0  0
  9 11  1  0  0  0  0
  9 26  1  0  0  0  0
  7  8  1  0  0  0  0
  7  9  1  0  0  0  0
 30 31  1  0  0  0  0
 30 32  1  0  0  0  0
 30 33  1  0  0  0  0
 28 29  1  0  0  0  0
 28 30  1  0  0  0  0
M  END
$$$$
default_name
  -OEChem-02102213163D

 33 32  0     1  0  0  0  0  0999 V2000
   -3.8420   -3.6918    1.5562 H   0  0  0  0  0  0  0  0  0  0  0  0
   -3.8430   -2.7008    1.1032 C   0  0  0  0  0  0  0  0  0  0  0  0
   -4.5510   -2.0608    1.6242 H   0  0  0  0  0  0  0  0  0  0  0  0
   -4.1140   -2.7798    0.0522 H   0  0  0  0  0  0  0  0  0  0  0  0
   -2.4570   -2.1098    1.2172 C   0  0  0  0  0  0  0  0  0  0  0  0
   -1.5600   -2.7438    1.7572 O   0  0  0  0  0  0  0  0  0  0  0  0
   -2.2870   -0.8898    0.7102 N   0  0  0  0  0  0  0  0  0  0  0  0
   -3.0820   -0.4218    0.2992 H   0  0  0  0  0  0  0  0  0  0  0  0
   -1.0240   -0.1468    0.7262 C   0  0  1  0  0  0  0  0  0  0  0  0
   -0.3583   -0.6100    1.4558 H   0  0  0  0  0  0  0  0  0  0  0  0
   -0.3739   -0.2459   -0.6675 C   0  0  0  0  0  0  0  0  0  0  0  0
   -0.8673   -1.0451   -1.2245 H   0  0  0  0  0  0  0  0  0  0  0  0
   -0.5304    0.6905   -1.2048 H   0  0  0  0  0  0  0  0  0  0  0  0
    1.1304   -0.5552   -0.6162 C   0  0  0  0  0  0  0  0  0  0  0  0
    1.2798   -1.6054   -0.3643 H   0  0  0  0  0  0  0  0  0  0  0  0
    1.5714   -0.3561   -1.5947 H   0  0  0  0  0  0  0  0  0  0  0  0
    1.8314    0.3094    0.4378 C   0  0  0  0  0  0  0  0  0  0  0  0
    1.6842    1.3641    0.2035 H   0  0  0  0  0  0  0  0  0  0  0  0
    1.4105    0.0966    1.4209 H   0  0  0  0  0  0  0  0  0  0  0  0
    3.3271    0.0002    0.4507 C   0  0  0  0  0  0  0  0  0  0  0  0
    3.4773   -1.0484    0.7027 H   0  0  0  0  0  0  0  0  0  0  0  0
    3.7457    0.1952   -0.5353 H   0  0  0  0  0  0  0  0  0  0  0  0
    4.0336    0.8291    1.4341 N   0  0  0  0  0  0  0  0  0  0  0  0
    5.0141    0.5891    1.4254 H   0  0  0  0  0  0  0  0  0  0  0  0
    3.9242    1.8023    1.1868 H   0  0  0  0  0  0  0  0  0  0  0  0
   -1.2712    1.3099    1.1517 C   0  0  0  0  0  0  0  0  0  0  0  0
   -2.2039    1.9448    0.6639 O   0  0  0  0  0  0  0  0  0  0  0  0
   -0.4306    1.8354    2.0503 N   0  0  0  0  0  0  0  0  0  0  0  0
    0.3001    1.2459    2.4139 H   0  0  0  0  0  0  0  0  0  0  0  0
   -0.5192    3.2082    2.5456 C   0  0  0  0  0  0  0  0  0  0  0  0
   -1.5166    3.3903    2.9518 H   0  0  0  0  0  0  0  0  0  0  0  0
    0.2240    3.3791    3.3257 H   0  0  0  0  0  0  0  0  0  0  0  0
   -0.3477    3.9067    1.7239 H   0  0  0  0  0  0  0  0  0  0  0  0
  5  6  2  0  0  0  0
  5  7  1  0  0  0  0
  2  3  1  0  0  0  0
  2  4  1  0  0  0  0
  2  5  1  0  0  0  0
  1  2  1  0  0  0  0
 26 27  2  0  0  0  0
 26 28  1  0  0  0  0
 23 24  1  0  0  0  0
 23 25  1  0  0  0  0
 20 21  1  0  0  0  0
 20 22  1  0  0  0  0
 20 23  1  0  0  0  0
 17 18  1  0  0  0  0
 17 19  1  0  0  0  0
 17 20  1  0  0  0  0
 14 15  1  0  0  0  0
 14 16  1  0  0  0  0
 14 17  1  0  0  0  0
 11 12  1  0  0  0  0
 11 13  1  0  0  0  0
 11 14  1  0  0  0  0
  9 10  1  0  0  0  0
  9 11  1  0  0  0  0
  9 26  1  0  0  0  0
  7  8  1  0  0  0  0
  7  9  1  0  0  0  0
 30 31  1  0  0  0  0
 30 32  1  0  0  0  0
 30 33  1  0  0  0  0
 28 29  1  0  0  0  0
 28 30  1  0  0  0  0
M  END
$$$$
default_name
  -OEChem-02102213163D

 33 32  0     1  0  0  0  0  0999 V2000
   -3.8420   -3.6918    1.5562 H   0  0  0  0  0  0  0  0  0  0  0  0
   -3.8430   -2.7008    1.1032 C   0  0  0  0  0  0  0  0  0  0  0  0
   -4.5510   -2.0608    1.6242 H   0  0  0  0  0  0  0  0  0  0  0  0
   -4.1140   -2.7798    0.0522 H   0  0  0  0  0  0  0  0  0  0  0  0
   -2.4570   -2.1098    1.2172 C   0  0  0  0  0  0  0  0  0  0  0  0
   -1.5600   -2.7438    1.7572 O   0  0  0  0  0  0  0  0  0  0  0  0
   -2.2870   -0.8898    0.7102 N   0  0  0  0  0  0  0  0  0  0  0  0
   -3.0820   -0.4218    0.2992 H   0  0  0  0  0  0  0  0  0  0  0  0
   -1.0240   -0.1468    0.7262 C   0  0  1  0  0  0  0  0  0  0  0  0
   -0.3583   -0.6100    1.4558 H   0  0  0  0  0  0  0  0  0  0  0  0
   -0.3739   -0.2459   -0.6675 C   0  0  0  0  0  0  0  0  0  0  0  0
   -0.8673   -1.0451   -1.2245 H   0  0  0  0  0  0  0  0  0  0  0  0
   -0.5304    0.6905   -1.2048 H   0  0  0  0  0  0  0  0  0  0  0  0
    1.1304   -0.5552   -0.6162 C   0  0  0  0  0  0  0  0  0  0  0  0
    1.2829   -1.6347   -0.6308 H   0  0  0  0  0  0  0  0  0  0  0  0
    1.6176   -0.1136   -1.4875 H   0  0  0  0  0  0  0  0  0  0  0  0
    1.7634    0.0152    0.6581 C   0  0  0  0  0  0  0  0  0  0  0  0
    1.6121    1.0945    0.6910 H   0  0  0  0  0  0  0  0  0  0  0  0
    1.2962   -0.4408    1.5315 H   0  0  0  0  0  0  0  0  0  0  0  0
    3.2611   -0.2843    0.6718 C   0  0  0  0  0  0  0  0  0  0  0  0
    3.4144   -1.3622    0.6578 H   0  0  0  0  0  0  0  0  0  0  0  0
    3.7263    0.1552   -0.2090 H   0  0  0  0  0  0  0  0  0  0  0  0
    3.9037    0.2694    1.8692 N   0  0  0  0  0  0  0  0  0  0  0  0
    4.8869    0.0414    1.8522 H   0  0  0  0  0  0  0  0  0  0  0  0
    3.7921    1.2733    1.8709 H   0  0  0  0  0  0  0  0  0  0  0  0
   -1.2712    1.3099    1.1517 C   0  0  0  0  0  0  0  0  0  0  0  0
   -2.2039    1.9448    0.6639 O   0  0  0  0  0  0  0  0  0  0  0  0
   -0.4306    1.8354    2.0503 N   0  0  0  0  0  0  0  0  0  0  0  0
    0.3001    1.2459    2.4139 H   0  0  0  0  0  0  0  0  0  0  0  0
   -0.5192    3.2082    2.5456 C   0  0  0  0  0  0  0  0  0  0  0  0
   -1.5166    3.3903    2.9518 H   0  0  0  0  0  0  0  0  0  0  0  0
    0.2240    3.3791    3.3257 H   0  0  0  0  0  0  0  0  0  0  0  0
   -0.3477    3.9067    1.7239 H   0  0  0  0  0  0  0  0  0  0  0  0
  5  6  2  0  0  0  0
  5  7  1  0  0  0  0
  2  3  1  0  0  0  0
  2  4  1  0  0  0  0
  2  5  1  0  0  0  0
  1  2  1  0  0  0  0
 26 27  2  0  0  0  0
 26 28  1  0  0  0  0
 23 24  1  0  0  0  0
 23 25  1  0  0  0  0
 20 21  1  0  0  0  0
 20 22  1  0  0  0  0
 20 23  1  0  0  0  0
 17 18  1  0  0  0  0
 17 19  1  0  0  0  0
 17 20  1  0  0  0  0
 14 15  1  0  0  0  0
 14 16  1  0  0  0  0
 14 17  1  0  0  0  0
 11 12  1  0  0  0  0
 11 13  1  0  0  0  0
 11 14  1  0  0  0  0
  9 10  1  0  0  0  0
  9 11  1  0  0  0  0
  9 26  1  0  0  0  0
  7  8  1  0  0  0  0
  7  9  1  0  0  0  0
 30 31  1  0  0  0  0
 30 32  1  0  0  0  0
 30 33  1  0  0  0  0
 28 29  1  0  0  0  0
 28 30  1  0  0  0  0
M  END
$$$$
default_name
  -OEChem-02102213163D

 33 32  0     1  0  0  0  0  0999 V2000
   -3.8420   -3.6918    1.5562 H   0  0  0  0  0  0  0  0  0  0  0  0
   -3.8430   -2.7008    1.1032 C   0  0  0  0  0  0  0  0  0  0  0  0
   -4.5510   -2.0608    1.6242 H   0  0  0  0  0  0  0  0  0  0  0  0
   -4.1140   -2.7798    0.0522 H   0  0  0  0  0  0  0  0  0  0  0  0
   -2.4570   -2.1098    1.2172 C   0  0  0  0  0  0  0  0  0  0  0  0
   -1.5600   -2.7438    1.7572 O   0  0  0  0  0  0  0  0  0  0  0  0
   -2.2870   -0.8898    0.7102 N   0  0  0  0  0  0  0  0  0  0  0  0
   -3.0820   -0.4218    0.2992 H   0  0  0  0  0  0  0  0  0  0  0  0
   -1.0240   -0.1468    0.7262 C   0  0  1  0  0  0  0  0  0  0  0  0
   -0.3583   -0.6100    1.4558 H   0  0  0  0  0  0  0  0  0  0  0  0
   -0.3739   -0.2459   -0.6675 C   0  0  0  0  0  0  0  0  0  0  0  0
   -0.8673   -1.0451   -1.2245 H   0  0  0  0  0  0  0  0  0  0  0  0
   -0.5304    0.6905   -1.2048 H   0  0  0  0  0  0  0  0  0  0  0  0
    1.1304   -0.5552   -0.6162 C   0  0  0  0  0  0  0  0  0  0  0  0
    1.3000   -1.5954   -0.8954 H   0  0  0  0  0  0  0  0  0  0  0  0
    1.6545    0.0938   -1.3202 H   0  0  0  0  0  0  0  0  0  0  0  0
    1.6888   -0.3254    0.7928 C   0  0  0  0  0  0  0  0  0  0  0  0
    1.5195    0.7100    1.0897 H   0  0  0  0  0  0  0  0  0  0  0  0
    1.1848   -0.9889    1.4962 H   0  0  0  0  0  0  0  0  0  0  0  0
    3.1883   -0.6158    0.8099 C   0  0  0  0  0  0  0  0  0  0  0  0
    3.3586   -1.6545    0.5316 H   0  0  0  0  0  0  0  0  0  0  0  0
    3.6910    0.0336    0.0951 H   0  0  0  0  0  0  0  0  0  0  0  0
    3.7604   -0.3825    2.1409 N   0  0  0  0  0  0  0  0  0  0  0  0
    4.7466   -0.5969    2.1191 H   0  0  0  0  0  0  0  0  0  0  0  0
    3.6335    0.5879    2.3907 H   0  0  0  0  0  0  0  0  0  0  0  0
   -1.2712    1.3099    1.1517 C   0  0  0  0  0  0  0  0  0  0  0  0
   -2.2039    1.9448    0.6639 O   0  0  0  0  0  0  0  0  0  0  0  0
   -0.4306    1.8354    2.0503 N   0  0  0  0  0  0  0  0  0  0  0  0
    0.3001    1.2459    2.4139 H   0  0  0  0  0  0  0  0  0  0  0  0
   -0.5192    3.2082    2.5456 C   0  0  0  0  0  0  0  0  0  0  0  0
   -1.5166    3.3903    2.9518 H   0  0  0  0  0  0  0  0  0  0  0  0
    0.2240    3.3791    3.3257 H   0  0  0  0  0  0  0  0  0  0  0  0
   -0.3477    3.9067    1.7239 H   0  0  0  0  0  0  0  0  0  0  0  0
  5  6  2  0  0  0  0
  5  7  1  0  0  0  0
  2  3  1  0  0  0  0
  2  4  1  0  0  0  0
  2  5  1  0  0  0  0
  1  2  1  0  0  0  0
 26 27  2  0  0  0  0
 26 28  1  0  0  0  0
 23 24  1  0  0  0  0
 23 25  1  0  0  0  0
 20 21  1  0  0  0  0
 20 22  1  0  0  0  0
 20 23  1  0  0  0  0
 17 18  1  0  0  0  0
 17 19  1  0  0  0  0
 17 20  1  0  0  0  0
 14 15  1  0  0  0  0
 14 16  1  0  0  0  0
 14 17  1  0  0  0  0
 11 12  1  0  0  0  0
 11 13  1  0  0  0  0
 11 14  1  0  0  0  0
  9 10  1  0  0  0  0
  9 11  1  0  0  0  0
  9 26  1  0  0  0  0
  7  8  1  0  0  0  0
  7  9  1  0  0  0  0
 30 31  1  0  0  0  0
 30 32  1  0  0  0  0
 30 33  1  0  0  0  0
 28 29  1  0  0  0  0
 28 30  1  0  0  0  0
M  END
$$$$
default_name
  -OEChem-02102213163D

 33 32  0     1  0  0  0  0  0999 V2000
   -3.8420   -3.6918    1.5562 H   0  0  0  0  0  0  0  0  0  0  0  0
   -3.8430   -2.7008    1.1032 C   0  0  0  0  0  0  0  0  0  0  0  0
   -4.5510   -2.0608    1.6242 H   0  0  0  0  0  0  0  0  0  0  0  0
   -4.1140   -2.7798    0.0522 H   0  0  0  0  0  0  0  0  0  0  0  0
   -2.4570   -2.1098    1.2172 C   0  0  0  0  0  0  0  0  0  0  0  0
   -1.5600   -2.7438    1.7572 O   0  0  0  0  0  0  0  0  0  0  0  0
   -2.2870   -0.8898    0.7102 N   0  0  0  0  0  0  0  0  0  0  0  0
   -3.0820   -0.4218    0.2992 H   0  0  0  0  0  0  0  0  0  0  0  0
   -1.0240   -0.1468    0.7262 C   0  0  1  0  0  0  0  0  0  0  0  0
   -0.3583   -0.6100    1.4558 H   0  0  0  0  0  0  0  0  0  0  0  0
   -0.3739   -0.2459   -0.6675 C   0  0  0  0  0  0  0  0  0  0  0  0
   -0.8673   -1.0451   -1.2245 H   0  0  0  0  0  0  0  0  0  0  0  0
   -0.5304    0.6905   -1.2048 H   0  0  0  0  0  0  0  0  0  0  0  0
    1.1304   -0.5552   -0.6162 C   0  0  0  0  0  0  0  0  0  0  0  0
    1.3300   -1.4903   -1.1403 H   0  0  0  0  0  0  0  0  0  0  0  0
    1.6797    0.2522   -1.1040 H   0  0  0  0  0  0  0  0  0  0  0  0
    1.6126   -0.6892    0.8327 C   0  0  0  0  0  0  0  0  0  0  0  0
    1.4126    0.2368    1.3726 H   0  0  0  0  0  0  0  0  0  0  0  0
    1.0837   -1.5103    1.3174 H   0  0  0  0  0  0  0  0  0  0  0  0
    3.1136   -0.9715    0.8555 C   0  0  0  0  0  0  0  0  0  0  0  0
    3.3138   -1.9054    0.3328 H   0  0  0  0  0  0  0  0  0  0  0  0
    3.6420   -0.1611    0.3561 H   0  0  0  0  0  0  0  0  0  0  0  0
    3.6135   -1.0823    2.2307 N   0  0  0  0  0  0  0  0  0  0  0  0
    4.6027   -1.2822    2.2078 H   0  0  0  0  0  0  0  0  0  0  0  0
    3.4591   -0.2072    2.7109 H   0  0  0  0  0  0  0  0  0  0  0  0
   -1.2712    1.3099    1.1517 C   0  0  0  0  0  0  0  0  0  0  0  0
   -2.2039    1.9448    0.6639 O   0  0  0  0  0  0  0  0  0  0  0  0
   -0.4306    1.8354    2.0503 N   0  0  0  0  0  0  0  0  0  0  0  0
    0.3001    1.2459    2.4139 H   0  0  0  0  0  0  0  0  0  0  0  0
   -0.5192    3.2082    2.5456 C   0  0  0  0  0  0  0  0  0  0  0  0
   -1.5166    3.3903    2.9518 H   0  0  0  0  0  0  0  0  0  0  0  0
    0.2240    3.3791    3.3257 H   0  0  0  0  0  0  0  0  0  0  0  0
   -0.3477    3.9067    1.7239 H   0  0  0  0  0  0  0  0  0  0  0  0
  5  6  2  0  0  0  0
  5  7  1  0  0  0  0
  2  3  1  0  0  0  0
  2  4  1  0  0  0  0
  2  5  1  0  0  0  0
  1  2  1  0  0  0  0
 26 27  2  0  0  0  0
 26 28  1  0  0  0  0
 23 24  1  0  0  0  0
 23 25  1  0  0  0  0
 20 21  1  0  0  0  0
 20 22  1  0  0  0  0
 20 23  1  0  0  0  0
 17 18  1  0  0  0  0
 17 19  1  0  0  0  0
 17 20  1  0  0  0  0
 14 15  1  0  0  0  0
 14 16  1  0  0  0  0
 14 17  1  0  0  0  0
 11 12  1  0  0  0  0
 11 13  1  0  0  0  0
 11 14  1  0  0  0  0
  9 10  1  0  0  0  0
  9 11  1  0  0  0  0
  9 26  1  0  0  0  0
  7  8  1  0  0  0  0
  7  9  1  0  0  0  0
 30 31  1  0  0  0  0
 30 32  1  0  0  0  0
 30 33  1  0  0  0  0
 28 29  1  0  0  0  0
 28 30  1  0  0  0  0
M  END
$$$$
default_name
  -OEChem-02102213163D

 33 32  0     1  0  0  0  0  0999 V2000
   -3.8420   -3.6918    1.5562 H   0  0  0  0  0  0  0  0  0  0  0  0
   -3.8430   -2.7008    1.1032 C   0  0  0  0  0  0  0  0  0  0  0  0
   -4.5510   -2.0608    1.6242 H   0  0  0  0  0  0  0  0  0  0  0  0
   -4.1140   -2.7798    0.0522 H   0  0  0  0  0  0  0  0  0  0  0  0
   -2.4570   -2.1098    1.2172 C   0  0  0  0  0  0  0  0  0  0  0  0
   -1.5600   -2.7438    1.7572 O   0  0  0  0  0  0  0  0  0  0  0  0
   -2.2870   -0.8898    0.7102 N   0  0  0  0  0  0  0  0  0  0  0  0
   -3.0820   -0.4218    0.2992 H   0  0  0  0  0  0  0  0  0  0  0  0
   -1.0240   -0.1468    0.7262 C   0  0  1  0  0  0  0  0  0  0  0  0
   -0.3583   -0.6100    1.4558 H   0  0  0  0  0  0  0  0  0  0  0  0
   -0.3739   -0.2459   -0.6675 C   0  0  0  0  0  0  0  0  0  0  0  0
   -0.8673   -1.0451   -1.2245 H   0  0  0  0  0  0  0  0  0  0  0  0
   -0.5304    0.6905   -1.2048 H   0  0  0  0  0  0  0  0  0  0  0  0
    1.1304   -0.5552   -0.6162 C   0  0  0  0  0  0  0  0  0  0  0  0
    1.3707   -1.3264   -1.3485 H   0  0  0  0  0  0  0  0  0  0  0  0
    1.6914    0.3505   -0.8538 H   0  0  0  0  0  0  0  0  0  0  0  0
    1.5401   -1.0513    0.7751 C   0  0  0  0  0  0  0  0  0  0  0  0
    1.2986   -0.2930    1.5204 H   0  0  0  0  0  0  0  0  0  0  0  0
    0.9998   -1.9696    1.0073 H   0  0  0  0  0  0  0  0  0  0  0  0
    3.0421   -1.3273    0.8055 C   0  0  0  0  0  0  0  0  0  0  0  0
    3.2830   -2.0978    0.0748 H   0  0  0  0  0  0  0  0  0  0  0  0
    3.5829   -0.4157    0.5564 H   0  0  0  0  0  0  0  0  0  0  0  0
    3.4729   -1.7823    2.1324 N   0  0  0  0  0  0  0  0  0  0  0  0
    4.4650   -1.9680    2.1124 H   0  0  0  0  0  0  0  0  0  0  0  0
    3.2809   -1.0579    2.8096 H   0  0  0  0  0  0  0  0  0  0  0  0
   -1.2712    1.3099    1.1517 C   0  0  0  0  0  0  0  0  0  0  0  0
   -2.2039    1.9448    0.6639 O   0  0  0  0  0  0  0  0  0  0  0  0
   -0.4306    1.8354    2.0503 N   0  0  0  0  0  0  0  0  0  0  0  0
    0.3001    1.2459    2.4139 H   0  0  0  0  0  0  0  0  0  0  0  0
   -0.5192    3.2082    2.5456 C   0  0  0  0  0  0  0  0  0  0  0  0
   -1.5166    3.3903    2.9518 H   0  0  0  0  0  0  0  0  0  0  0  0
    0.2240    3.3791    3.3257 H   0  0  0  0  0  0  0  0  0  0  0  0
   -0.3477    3.9067    1.7239 H   0  0  0  0  0  0  0  0  0  0  0  0
  5  6  2  0  0  0  0
  5  7  1  0  0  0  0
  2  3  1  0  0  0  0
  2  4  1  0  0  0  0
  2  5  1  0  0  0  0
  1  2  1  0  0  0  0
 26 27  2  0  0  0  0
 26 28  1  0  0  0  0
 23 24  1  0  0  0  0
 23 25  1  0  0  0  0
 20 21  1  0  0  0  0
 20 22  1  0  0  0  0
 20 23  1  0  0  0  0
 17 18  1  0  0  0  0
 17 19  1  0  0  0  0
 17 20  1  0  0  0  0
 14 15  1  0  0  0  0
 14 16  1  0  0  0  0
 14 17  1  0  0  0  0
 11 12  1  0  0  0  0
 11 13  1  0  0  0  0
 11 14  1  0  0  0  0
  9 10  1  0  0  0  0
  9 11  1  0  0  0  0
  9 26  1  0  0  0  0
  7  8  1  0  0  0  0
  7  9  1  0  0  0  0
 30 31  1  0  0  0  0
 30 32  1  0  0  0  0
 30 33  1  0  0  0  0
 28 29  1  0  0  0  0
 28 30  1  0  0  0  0
M  END
$$$$
default_name
  -OEChem-02102213163D

 33 32  0     1  0  0  0  0  0999 V2000
   -3.8420   -3.6918    1.5562 H   0  0  0  0  0  0  0  0  0  0  0  0
   -3.8430   -2.7008    1.1032 C   0  0  0  0  0  0  0  0  0  0  0  0
   -4.5510   -2.0608    1.6242 H   0  0  0  0  0  0  0  0  0  0  0  0
   -4.1140   -2.7798    0.0522 H   0  0  0  0  0  0  0  0  0  0  0  0
   -2.4570   -2.1098    1.2172 C   0  0  0  0  0  0  0  0  0  0  0  0
   -1.5600   -2.7438    1.7572 O   0  0  0  0  0  0  0  0  0  0  0  0
   -2.2870   -0.8898    0.7102 N   0  0  0  0  0  0  0  0  0  0  0  0
   -3.0820   -0.4218    0.2992 H   0  0  0  0  0  0  0  0  0  0  0  0
   -1.0240   -0.1468    0.7262 C   0  0  1  0  0  0  0  0  0  0  0  0
   -0.3583   -0.6100    1.4558 H   0  0  0  0  0  0  0  0  0  0  0  0
   -0.3739   -0.2459   -0.6675 C   0  0  0  0  0  0  0  0  0  0  0  0
   -0.8673   -1.0451   -1.2245 H   0  0  0  0  0  0  0  0  0  0  0  0
   -0.5304    0.6905   -1.2048 H   0  0  0  0  0  0  0  0  0  0  0  0
    1.1304   -0.5552   -0.6162 C   0  0  0  0  0  0  0  0  0  0  0  0
    1.4196   -1.1150   -1.5061 H   0  0  0  0  0  0  0  0  0  0  0  0
    1.6888    0.3823   -0.5866 H   0  0  0  0  0  0  0  0  0  0  0  0
    1.4762   -1.3872    0.6239 C   0  0  0  0  0  0  0  0  0  0  0  0
    1.1854   -0.8431    1.5230 H   0  0  0  0  0  0  0  0  0  0  0  0
    0.9390   -2.3353    0.5870 H   0  0  0  0  0  0  0  0  0  0  0  0
    2.9788   -1.6589    0.6634 C   0  0  0  0  0  0  0  0  0  0  0  0
    3.2684   -2.2184   -0.2246 H   0  0  0  0  0  0  0  0  0  0  0  0
    3.5175   -0.7130    0.6823 H   0  0  0  0  0  0  0  0  0  0  0  0
    3.3483   -2.4348    1.8529 N   0  0  0  0  0  0  0  0  0  0  0  0
    4.3428   -2.6074    1.8393 H   0  0  0  0  0  0  0  0  0  0  0  0
    3.1109   -1.9061    2.6802 H   0  0  0  0  0  0  0  0  0  0  0  0
   -1.2712    1.3099    1.1517 C   0  0  0  0  0  0  0  0  0  0  0  0
   -2.2039    1.9448    0.6639 O   0  0  0  0  0  0  0  0  0  0  0  0
   -0.4306    1.8354    2.0503 N   0  0  0  0  0  0  0  0  0  0  0  0
    0.3001    1.2459    2.4139 H   0  0  0  0  0  0  0  0  0  0  0  0
   -0.5192    3.2082    2.5456 C   0  0  0  0  0  0  0  0  0  0  0  0
   -1.5166    3.3903    2.9518 H   0  0  0  0  0  0  0  0  0  0  0  0
    0.2240    3.3791    3.3257 H   0  0  0  0  0  0  0  0  0  0  0  0
   -0.3477    3.9067    1.7239 H   0  0  0  0  0  0  0  0  0  0  0  0
  5  6  2  0  0  0  0
  5  7  1  0  0  0  0
  2  3  1  0  0  0  0
  2  4  1  0  0  0  0
  2  5  1  0  0  0  0
  1  2  1  0  0  0  0
 26 27  2  0  0  0  0
 26 28  1  0  0  0  0
 23 24  1  0  0  0  0
 23 25  1  0  0  0  0
 20 21  1  0  0  0  0
 20 22  1  0  0  0  0
 20 23  1  0  0  0  0
 17 18  1  0  0  0  0
 17 19  1  0  0  0  0
 17 20  1  0  0  0  0
 14 15  1  0  0  0  0
 14 16  1  0  0  0  0
 14 17  1  0  0  0  0
 11 12  1  0  0  0  0
 11 13  1  0  0  0  0
 11 14  1  0  0  0  0
  9 10  1  0  0  0  0
  9 11  1  0  0  0  0
  9 26  1  0  0  0  0
  7  8  1  0  0  0  0
  7  9  1  0  0  0  0
 30 31  1  0  0  0  0
 30 32  1  0  0  0  0
 30 33  1  0  0  0  0
 28 29  1  0  0  0  0
 28 30  1  0  0  0  0
M  END
$$$$
default_name
  -OEChem-02102213163D

 33 32  0     1  0  0  0  0  0999 V2000
   -3.8420   -3.6918    1.5562 H   0  0  0  0  0  0  0  0  0  0  0  0
   -3.8430   -2.7008    1.1032 C   0  0  0  0  0  0  0  0  0  0  0  0
   -4.5510   -2.0608    1.6242 H   0  0  0  0  0  0  0  0  0  0  0  0
   -4.1140   -2.7798    0.0522 H   0  0  0  0  0  0  0  0  0  0  0  0
   -2.4570   -2.1098    1.2172 C   0  0  0  0  0  0  0  0  0  0  0  0
   -1.5600   -2.7438    1.7572 O   0  0  0  0  0  0  0  0  0  0  0  0
   -2.2870   -0.8898    0.7102 N   0  0  0  0  0  0  0  0  0  0  0  0
   -3.0820   -0.4218    0.2992 H   0  0  0  0  0  0  0  0  0  0  0  0
   -1.0240   -0.1468    0.7262 C   0  0  1  0  0  0  0  0  0  0  0  0
   -0.3583   -0.6100    1.4558 H   0  0  0  0  0  0  0  0  0  0  0  0
   -0.3739   -0.2459   -0.6675 C   0  0  0  0  0  0  0  0  0  0  0  0
   -0.8673   -1.0451   -1.2245 H   0  0  0  0  0  0  0  0  0  0  0  0
   -0.5304    0.6905   -1.2048 H   0  0  0  0  0  0  0  0  0  0  0  0
    1.1304   -0.5552   -0.6162 C   0  0  0  0  0  0  0  0  0  0  0  0
    1.4731   -0.8705   -1.6021 H   0  0  0  0  0  0  0  0  0  0  0  0
    1.6721    0.3452   -0.3206 H   0  0  0  0  0  0  0  0  0  0  0  0
    1.4253   -1.6738    0.3895 C   0  0  0  0  0  0  0  0  0  0  0  0
    1.0807   -1.3761    1.3803 H   0  0  0  0  0  0  0  0  0  0  0  0
    0.9052   -2.5826    0.0853 H   0  0  0  0  0  0  0  0  0  0  0  0
    2.9279   -1.9438    0.4388 C   0  0  0  0  0  0  0  0  0  0  0  0
    3.2709   -2.2593   -0.5453 H   0  0  0  0  0  0  0  0  0  0  0  0
    3.4503   -1.0325    0.7252 H   0  0  0  0  0  0  0  0  0  0  0  0
    3.2482   -2.9952    1.4110 N   0  0  0  0  0  0  0  0  0  0  0  0
    4.2446   -3.1568    1.4071 H   0  0  0  0  0  0  0  0  0  0  0  0
    2.9608   -2.6941    2.3314 H   0  0  0  0  0  0  0  0  0  0  0  0
   -1.2712    1.3099    1.1517 C   0  0  0  0  0  0  0  0  0  0  0  0
   -2.2039    1.9448    0.6639 O   0  0  0  0  0  0  0  0  0  0  0  0
   -0.4306    1.8354    2.0503 N   0  0  0  0  0  0  0  0  0  0  0  0
    0.3001    1.2459    2.4139 H   0  0  0  0  0  0  0  0  0  0  0  0
   -0.5192    3.2082    2.5456 C   0  0  0  0  0  0  0  0  0  0  0  0
   -1.5166    3.3903    2.9518 H   0  0  0  0  0  0  0  0  0  0  0  0
    0.2240    3.3791    3.3257 H   0  0  0  0  0  0  0  0  0  0  0  0
   -0.3477    3.9067    1.7239 H   0  0  0  0  0  0  0  0  0  0  0  0
  5  6  2  0  0  0  0
  5  7  1  0  0  0  0
  2  3  1  0  0  0  0
  2  4  1  0  0  0  0
  2  5  1  0  0  0  0
  1  2  1  0  0  0  0
 26 27  2  0  0  0  0
 26 28  1  0  0  0  0
 23 24  1  0  0  0  0
 23 25  1  0  0  0  0
 20 21  1  0  0  0  0
 20 22  1  0  0  0  0
 20 23  1  0  0  0  0
 17 18  1  0  0  0  0
 17 19  1  0  0  0  0
 17 20  1  0  0  0  0
 14 15  1  0  0  0  0
 14 16  1  0  0  0  0
 14 17  1  0  0  0  0
 11 12  1  0  0  0  0
 11 13  1  0  0  0  0
 11 14  1  0  0  0  0
  9 10  1  0  0  0  0
  9 11  1  0  0  0  0
  9 26  1  0  0  0  0
  7  8  1  0  0  0  0
  7  9  1  0  0  0  0
 30 31  1  0  0  0  0
 30 32  1  0  0  0  0
 30 33  1  0  0  0  0
 28 29  1  0  0  0  0
 28 30  1  0  0  0  0
M  END
$$$$
default_name
  -OEChem-02102213163D

 33 32  0     1  0  0  0  0  0999 V2000
   -3.8420   -3.6918    1.5562 H   0  0  0  0  0  0  0  0  0  0  0  0
   -3.8430   -2.7008    1.1032 C   0  0  0  0  0  0  0  0  0  0  0  0
   -4.5510   -2.0608    1.6242 H   0  0  0  0  0  0  0  0  0  0  0  0
   -4.1140   -2.7798    0.0522 H   0  0  0  0  0  0  0  0  0  0  0  0
   -2.4570   -2.1098    1.2172 C   0  0  0  0  0  0  0  0  0  0  0  0
   -1.5600   -2.7438    1.7572 O   0  0  0  0  0  0  0  0  0  0  0  0
   -2.2870   -0.8898    0.7102 N   0  0  0  0  0  0  0  0  0  0  0  0
   -3.0820   -0.4218    0.2992 H   0  0  0  0  0  0  0  0  0  0  0  0
   -1.0240   -0.1468    0.7262 C   0  0  1  0  0  0  0  0  0  0  0  0
   -0.3583   -0.6100    1.4558 H   0  0  0  0  0  0  0  0  0  0  0  0
   -0.3739   -0.2459   -0.6675 C   0  0  0  0  0  0  0  0  0  0  0  0
   -0.8673   -1.0451   -1.2245 H   0  0  0  0  0  0  0  0  0  0  0  0
   -0.5304    0.6905   -1.2048 H   0  0  0  0  0  0  0  0  0  0  0  0
    1.1304   -0.5552   -0.6162 C   0  0  0  0  0  0  0  0  0  0  0  0
    1.5277   -0.6095   -1.6302 H   0  0  0  0  0  0  0  0  0  0  0  0
    1.6425    0.2418   -0.0739 H   0  0  0  0  0  0  0  0  0  0  0  0
    1.3908   -1.8917    0.0878 C   0  0  0  0  0  0  0  0  0  0  0  0
    0.9916   -1.8557    1.1019 H   0  0  0  0  0  0  0  0  0  0  0  0
    0.9009   -2.6947   -0.4638 H   0  0  0  0  0  0  0  0  0  0  0  0
    2.8929   -2.1625    0.1470 C   0  0  0  0  0  0  0  0  0  0  0  0
    3.2904   -2.2174   -0.8652 H   0  0  0  0  0  0  0  0  0  0  0  0
    3.3860   -1.3526    0.6821 H   0  0  0  0  0  0  0  0  0  0  0  0
    3.1793   -3.4255    0.8370 N   0  0  0  0  0  0  0  0  0  0  0  0
    4.1770   -3.5789    0.8453 H   0  0  0  0  0  0  0  0  0  0  0  0
    2.8408   -3.3682    1.7870 H   0  0  0  0  0  0  0  0  0  0  0  0
   -1.2712    1.3099    1.1517 C   0  0  0  0  0  0  0  0  0  0  0  0
   -2.2039    1.9448    0.6639 O   0  0  0  0  0  0  0  0  0  0  0  0
   -0.4306    1.8354    2.0503 N   0  0  0  0  0  0  0  0  0  0  0  0
    0.3001    1.2459    2.4139 H   0  0  0  0  0  0  0  0  0  0  0  0
   -0.5192    3.2082    2.5456 C   0  0  0  0  0  0  0  0  0  0  0  0
   -1.5166    3.3903    2.9518 H   0  0  0  0  0  0  0  0  0  0  0  0
    0.2240    3.3791    3.3257 H   0  0  0  0  0  0  0  0  0  0  0  0
   -0.3477    3.9067    1.7239 H   0  0  0  0  0  0  0  0  0  0  0  0
  5  6  2  0  0  0  0
  5  7  1  0  0  0  0
  2  3  1  0  0  0  0
  2  4  1  0  0  0  0
  2  5  1  0  0  0  0
  1  2  1  0  0  0  0
 26 27  2  0  0  0  0
 26 28  1  0  0  0  0
 23 24  1  0  0  0  0
 23 25  1  0  0  0  0
 20 21  1  0  0  0  0
 20 22  1  0  0  0  0
 20 23  1  0  0  0  0
 17 18  1  0  0  0  0
 17 19  1  0  0  0  0
 17 20  1  0  0  0  0
 14 15  1  0  0  0  0
 14 16  1  0  0  0  0
 14 17  1  0  0  0  0
 11 12  1  0  0  0  0
 11 13  1  0  0  0  0
 11 14  1  0  0  0  0
  9 10  1  0  0  0  0
  9 11  1  0  0  0  0
  9 26  1  0  0  0  0
  7  8  1  0  0  0  0
  7  9  1  0  0  0  0
 30 31  1  0  0  0  0
 30 32  1  0  0  0  0
 30 33  1  0  0  0  0
 28 29  1  0  0  0  0
 28 30  1  0  0  0  0
M  END
$$$$
default_name
  -OEChem-02102213163D

 33 32  0     1  0  0  0  0  0999 V2000
   -3.8420   -3.6918    1.5562 H   0  0  0  0  0  0  0  0  0  0  0  0
   -3.8430   -2.7008    1.1032 C   0  0  0  0  0  0  0  0  0  0  0  0
   -4.5510   -2.0608    1.6242 H   0  0  0  0  0  0  0  0  0  0  0  0
   -4.1140   -2.7798    0.0522 H   0  0  0  0  0  0  0  0  0  0  0  0
   -2.4570   -2.1098    1.2172 C   0  0  0  0  0  0  0  0  0  0  0  0
   -1.5600   -2.7438    1.7572 O   0  0  0  0  0  0  0  0  0  0  0  0
   -2.2870   -0.8898    0.7102 N   0  0  0  0  0  0  0  0  0  0  0  0
   -3.0820   -0.4218    0.2992 H   0  0  0  0  0  0  0  0  0  0  0  0
   -1.0240   -0.1468    0.7262 C   0  0  1  0  0  0  0  0  0  0  0  0
   -0.3583   -0.6100    1.4558 H   0  0  0  0  0  0  0  0  0  0  0  0
   -0.3739   -0.2459   -0.6675 C   0  0  0  0  0  0  0  0  0  0  0  0
   -0.8673   -1.0451   -1.2245 H   0  0  0  0  0  0  0  0  0  0  0  0
   -0.5304    0.6905   -1.2048 H   0  0  0  0  0  0  0  0  0  0  0  0
    1.1304   -0.5552   -0.6162 C   0  0  0  0  0  0  0  0  0  0  0  0
    1.5797   -0.3498   -1.5883 H   0  0  0  0  0  0  0  0  0  0  0  0
    1.6019    0.0792    0.1366 H   0  0  0  0  0  0  0  0  0  0  0  0
    1.3750   -2.0261   -0.2607 C   0  0  0  0  0  0  0  0  0  0  0  0
    0.9242   -2.2491    0.7068 H   0  0  0  0  0  0  0  0  0  0  0  0
    0.9263   -2.6638   -1.0228 H   0  0  0  0  0  0  0  0  0  0  0  0
    2.8761   -2.3001   -0.1921 C   0  0  0  0  0  0  0  0  0  0  0  0
    3.3256   -2.0958   -1.1626 H   0  0  0  0  0  0  0  0  0  0  0  0
    3.3288   -1.6515    0.5560 H   0  0  0  0  0  0  0  0  0  0  0  0
    3.1463   -3.6963    0.1699 N   0  0  0  0  0  0  0  0  0  0  0  0
    4.1446   -3.8448    0.1922 H   0  0  0  0  0  0  0  0  0  0  0  0
    2.7590   -3.8824    1.0841 H   0  0  0  0  0  0  0  0  0  0  0  0
   -1.2712    1.3099    1.1517 C   0  0  0  0  0  0  0  0  0  0  0  0
   -2.2039    1.9448    0.6639 O   0  0  0  0  0  0  0  0  0  0  0  0
   -0.4306    1.8354    2.0503 N   0  0  0  0  0  0  0  0  0  0  0  0
    0.3001    1.2459    2.4139 H   0  0  0  0  0  0  0  0  0  0  0  0
   -0.5192    3.2082    2.5456 C   0  0  0  0  0  0  0  0  0  0  0  0
   -1.5166    3.3903    2.9518 H   0  0  0  0  0  0  0  0  0  0  0  0
    0.2240    3.3791    3.3257 H   0  0  0  0  0  0  0  0  0  0  0  0
   -0.3477    3.9067    1.7239 H   0  0  0  0  0  0  0  0  0  0  0  0
  5  6  2  0  0  0  0
  5  7  1  0  0  0  0
  2  3  1  0  0  0  0
  2  4  1  0  0  0  0
  2  5  1  0  0  0  0
  1  2  1  0  0  0  0
 26 27  2  0  0  0  0
 26 28  1  0  0  0  0
 23 24  1  0  0  0  0
 23 25  1  0  0  0  0
 20 21  1  0  0  0  0
 20 22  1  0  0  0  0
 20 23  1  0  0  0  0
 17 18  1  0  0  0  0
 17 19  1  0  0  0  0
 17 20  1  0  0  0  0
 14 15  1  0  0  0  0
 14 16  1  0  0  0  0
 14 17  1  0  0  0  0
 11 12  1  0  0  0  0
 11 13  1  0  0  0  0
 11 14  1  0  0  0  0
  9 10  1  0  0  0  0
  9 11  1  0  0  0  0
  9 26  1  0  0  0  0
  7  8  1  0  0  0  0
  7  9  1  0  0  0  0
 30 31  1  0  0  0  0
 30 32  1  0  0  0  0
 30 33  1  0  0  0  0
 28 29  1  0  0  0  0
 28 30  1  0  0  0  0
M  END
$$$$
default_name
  -OEChem-02102213163D

 33 32  0     1  0  0  0  0  0999 V2000
   -3.8420   -3.6918    1.5562 H   0  0  0  0  0  0  0  0  0  0  0  0
   -3.8430   -2.7008    1.1032 C   0  0  0  0  0  0  0  0  0  0  0  0
   -4.5510   -2.0608    1.6242 H   0  0  0  0  0  0  0  0  0  0  0  0
   -4.1140   -2.7798    0.0522 H   0  0  0  0  0  0  0  0  0  0  0  0
   -2.4570   -2.1098    1.2172 C   0  0  0  0  0  0  0  0  0  0  0  0
   -1.5600   -2.7438    1.7572 O   0  0  0  0  0  0  0  0  0  0  0  0
   -2.2870   -0.8898    0.7102 N   0  0  0  0  0  0  0  0  0  0  0  0
   -3.0820   -0.4218    0.2992 H   0  0  0  0  0  0  0  0  0  0  0  0
   -1.0240   -0.1468    0.7262 C   0  0  1  0  0  0  0  0  0  0  0  0
   -0.3583   -0.6100    1.4558 H   0  0  0  0  0  0  0  0  0  0  0  0
   -0.3739   -0.2459   -0.6675 C   0  0  0  0  0  0  0  0  0  0  0  0
   -0.8673   -1.0451   -1.2245 H   0  0  0  0  0  0  0  0  0  0  0  0
   -0.5304    0.6905   -1.2048 H   0  0  0  0  0  0  0  0  0  0  0  0
    1.1304   -0.5552   -0.6162 C   0  0  0  0  0  0  0  0  0  0  0  0
    1.6254   -0.1092   -1.4793 H   0  0  0  0  0  0  0  0  0  0  0  0
    1.5531   -0.1315    0.2967 H   0  0  0  0  0  0  0  0  0  0  0  0
    1.3791   -2.0677   -0.6321 C   0  0  0  0  0  0  0  0  0  0  0  0
    0.8830   -2.5297    0.2220 H   0  0  0  0  0  0  0  0  0  0  0  0
    0.9797   -2.4921   -1.5536 H   0  0  0  0  0  0  0  0  0  0  0  0
    2.8788   -2.3473   -0.5554 C   0  0  0  0  0  0  0  0  0  0  0  0
    3.3740   -1.9026   -1.4172 H   0  0  0  0  0  0  0  0  0  0  0  0
    3.2828   -1.9087    0.3556 H   0  0  0  0  0  0  0  0  0  0  0  0
    3.1516   -3.7891   -0.5447 N   0  0  0  0  0  0  0  0  0  0  0  0
    4.1496   -3.9365   -0.5077 H   0  0  0  0  0  0  0  0  0  0  0  0
    2.7211   -4.2017    0.2706 H   0  0  0  0  0  0  0  0  0  0  0  0
   -1.2712    1.3099    1.1517 C   0  0  0  0  0  0  0  0  0  0  0  0
   -2.2039    1.9448    0.6639 O   0  0  0  0  0  0  0  0  0  0  0  0
   -0.4306    1.8354    2.0503 N   0  0  0  0  0  0  0  0  0  0  0  0
    0.3001    1.2459    2.4139 H   0  0  0  0  0  0  0  0  0  0  0  0
   -0.5192    3.2082    2.5456 C   0  0  0  0  0  0  0  0  0  0  0  0
   -1.5166    3.3903    2.9518 H   0  0  0  0  0  0  0  0  0  0  0  0
    0.2240    3.3791    3.3257 H   0  0  0  0  0  0  0  0  0  0  0  0
   -0.3477    3.9067    1.7239 H   0  0  0  0  0  0  0  0  0  0  0  0
  5  6  2  0  0  0  0
  5  7  1  0  0  0  0
  2  3  1  0  0  0  0
  2  4  1  0  0  0  0
  2  5  1  0  0  0  0
  1  2  1  0  0  0  0
 26 27  2  0  0  0  0
 26 28  1  0  0  0  0
 23 24  1  0  0  0  0
 23 25  1  0  0  0  0
 20 21  1  0  0  0  0
 20 22  1  0  0  0  0
 20 23  1  0  0  0  0
 17 18  1  0  0  0  0
 17 19  1  0  0  0  0
 17 20  1  0  0  0  0
 14 15  1  0  0  0  0
 14 16  1  0  0  0  0
 14 17  1  0  0  0  0
 11 12  1  0  0  0  0
 11 13  1  0  0  0  0
 11 14  1  0  0  0  0
  9 10  1  0  0  0  0
  9 11  1  0  0  0  0
  9 26  1  0  0  0  0
  7  8  1  0  0  0  0
  7  9  1  0  0  0  0
 30 31  1  0  0  0  0
 30 32  1  0  0  0  0
 30 33  1  0  0  0  0
 28 29  1  0  0  0  0
 28 30  1  0  0  0  0
M  END
$$$$
default_name
  -OEChem-02102213163D

 33 32  0     1  0  0  0  0  0999 V2000
   -3.8420   -3.6918    1.5562 H   0  0  0  0  0  0  0  0  0  0  0  0
   -3.8430   -2.7008    1.1032 C   0  0  0  0  0  0  0  0  0  0  0  0
   -4.5510   -2.0608    1.6242 H   0  0  0  0  0  0  0  0  0  0  0  0
   -4.1140   -2.7798    0.0522 H   0  0  0  0  0  0  0  0  0  0  0  0
   -2.4570   -2.1098    1.2172 C   0  0  0  0  0  0  0  0  0  0  0  0
   -1.5600   -2.7438    1.7572 O   0  0  0  0  0  0  0  0  0  0  0  0
   -2.2870   -0.8898    0.7102 N   0  0  0  0  0  0  0  0  0  0  0  0
   -3.0820   -0.4218    0.2992 H   0  0  0  0  0  0  0  0  0  0  0  0
   -1.0240   -0.1468    0.7262 C   0  0  1  0  0  0  0  0  0  0  0  0
   -0.3583   -0.6100    1.4558 H   0  0  0  0  0  0  0  0  0  0  0  0
   -0.3739   -0.2459   -0.6675 C   0  0  0  0  0  0  0  0  0  0  0  0
   -0.8673   -1.0451   -1.2245 H   0  0  0  0  0  0  0  0  0  0  0  0
   -0.5304    0.6905   -1.2048 H   0  0  0  0  0  0  0  0  0  0  0  0
    1.1304   -0.5552   -0.6162 C   0  0  0  0  0  0  0  0  0  0  0  0
    1.6619    0.0961   -1.3107 H   0  0  0  0  0  0  0  0  0  0  0  0
    1.4995   -0.3761    0.3953 H   0  0  0  0  0  0  0  0  0  0  0  0
    1.4028   -2.0137   -1.0012 C   0  0  0  0  0  0  0  0  0  0  0  0
    0.8710   -2.6781   -0.3196 H   0  0  0  0  0  0  0  0  0  0  0  0
    1.0574   -2.1914   -2.0201 H   0  0  0  0  0  0  0  0  0  0  0  0
    2.9008   -2.3007   -0.9181 C   0  0  0  0  0  0  0  0  0  0  0  0
    3.4323   -1.6511   -1.6117 H   0  0  0  0  0  0  0  0  0  0  0  0
    3.2510   -2.1068    0.0944 H   0  0  0  0  0  0  0  0  0  0  0  0
    3.1948   -3.6976   -1.2583 N   0  0  0  0  0  0  0  0  0  0  0  0
    4.1917   -3.8477   -1.2068 H   0  0  0  0  0  0  0  0  0  0  0  0
    2.7296   -4.3043   -0.5981 H   0  0  0  0  0  0  0  0  0  0  0  0
   -1.2712    1.3099    1.1517 C   0  0  0  0  0  0  0  0  0  0  0  0
   -2.2039    1.9448    0.6639 O   0  0  0  0  0  0  0  0  0  0  0  0
   -0.4306    1.8354    2.0503 N   0  0  0  0  0  0  0  0  0  0  0  0
    0.3001    1.2459    2.4139 H   0  0  0  0  0  0  0  0  0  0  0  0
   -0.5192    3.2082    2.5456 C   0  0  0  0  0  0  0  0  0  0  0  0
   -1.5166    3.3903    2.9518 H   0  0  0  0  0  0  0  0  0  0  0  0
    0.2240    3.3791    3.3257 H   0  0  0  0  0  0  0  0  0  0  0  0
   -0.3477    3.9067    1.7239 H   0  0  0  0  0  0  0  0  0  0  0  0
  5  6  2  0  0  0  0
  5  7  1  0  0  0  0
  2  3  1  0  0  0  0
  2  4  1  0  0  0  0
  2  5  1  0  0  0  0
  1  2  1  0  0  0  0
 26 27  2  0  0  0  0
 26 28  1  0  0  0  0
 23 24  1  0  0  0  0
 23 25  1  0  0  0  0
 20 21  1  0  0  0  0
 20 22  1  0  0  0  0
 20 23  1  0  0  0  0
 17 18  1  0  0  0  0
 17 19  1  0  0  0  0
 17 20  1  0  0  0  0
 14 15  1  0  0  0  0
 14 16  1  0  0  0  0
 14 17  1  0  0  0  0
 11 12  1  0  0  0  0
 11 13  1  0  0  0  0
 11 14  1  0  0  0  0
  9 10  1  0  0  0  0
  9 11  1  0  0  0  0
  9 26  1  0  0  0  0
  7  8  1  0  0  0  0
  7  9  1  0  0  0  0
 30 31  1  0  0  0  0
 30 32  1  0  0  0  0
 30 33  1  0  0  0  0
 28 29  1  0  0  0  0
 28 30  1  0  0  0  0
M  END
$$$$
default_name
  -OEChem-02102213163D

 33 32  0     1  0  0  0  0  0999 V2000
   -3.8420   -3.6918    1.5562 H   0  0  0  0  0  0  0  0  0  0  0  0
   -3.8430   -2.7008    1.1032 C   0  0  0  0  0  0  0  0  0  0  0  0
   -4.5510   -2.0608    1.6242 H   0  0  0  0  0  0  0  0  0  0  0  0
   -4.1140   -2.7798    0.0522 H   0  0  0  0  0  0  0  0  0  0  0  0
   -2.4570   -2.1098    1.2172 C   0  0  0  0  0  0  0  0  0  0  0  0
   -1.5600   -2.7438    1.7572 O   0  0  0  0  0  0  0  0  0  0  0  0
   -2.2870   -0.8898    0.7102 N   0  0  0  0  0  0  0  0  0  0  0  0
   -3.0820   -0.4218    0.2992 H   0  0  0  0  0  0  0  0  0  0  0  0
   -1.0240   -0.1468    0.7262 C   0  0  1  0  0  0  0  0  0  0  0  0
   -0.3583   -0.6100    1.4558 H   0  0  0  0  0  0  0  0  0  0  0  0
   -0.3739   -0.2459   -0.6675 C   0  0  0  0  0  0  0  0  0  0  0  0
   -0.8673   -1.0451   -1.2245 H   0  0  0  0  0  0  0  0  0  0  0  0
   -0.5304    0.6905   -1.2048 H   0  0  0  0  0  0  0  0  0  0  0  0
    1.1304   -0.5552   -0.6162 C   0  0  0  0  0  0  0  0  0  0  0  0
    1.6865    0.2519   -1.0939 H   0  0  0  0  0  0  0  0  0  0  0  0
    1.4446   -0.6378    0.4259 H   0  0  0  0  0  0  0  0  0  0  0  0
    1.4444   -1.8679   -1.3429 C   0  0  0  0  0  0  0  0  0  0  0  0
    0.8888   -2.6845   -0.8809 H   0  0  0  0  0  0  0  0  0  0  0  0
    1.1542   -1.7820   -2.3904 H   0  0  0  0  0  0  0  0  0  0  0  0
    2.9404   -2.1637   -1.2556 C   0  0  0  0  0  0  0  0  0  0  0  0
    3.4966   -1.3584   -1.7328 H   0  0  0  0  0  0  0  0  0  0  0  0
    3.2355   -2.2322   -0.2098 H   0  0  0  0  0  0  0  0  0  0  0  0
    3.2728   -3.4280   -1.9221 N   0  0  0  0  0  0  0  0  0  0  0  0
    4.2680   -3.5844   -1.8573 H   0  0  0  0  0  0  0  0  0  0  0  0
    2.7839   -4.1832   -1.4627 H   0  0  0  0  0  0  0  0  0  0  0  0
   -1.2712    1.3099    1.1517 C   0  0  0  0  0  0  0  0  0  0  0  0
   -2.2039    1.9448    0.6639 O   0  0  0  0  0  0  0  0  0  0  0  0
   -0.4306    1.8354    2.0503 N   0  0  0  0  0  0  0  0  0  0  0  0
    0.3001    1.2459    2.4139 H   0  0  0  0  0  0  0  0  0  0  0  0
   -0.5192    3.2082    2.5456 C   0  0  0  0  0  0  0  0  0  0  0  0
   -1.5166    3.3903    2.9518 H   0  0  0  0  0  0  0  0  0  0  0  0
    0.2240    3.3791    3.3257 H   0  0  0  0  0  0  0  0  0  0  0  0
   -0.3477    3.9067    1.7239 H   0  0  0  0  0  0  0  0  0  0  0  0
  5  6  2  0  0  0  0
  5  7  1  0  0  0  0
  2  3  1  0  0  0  0
  2  4  1  0  0  0  0
  2  5  1  0  0  0  0
  1  2  1  0  0  0  0
 26 27  2  0  0  0  0
 26 28  1  0  0  0  0
 23 24  1  0  0  0  0
 23 25  1  0  0  0  0
 20 21  1  0  0  0  0
 20 22  1  0  0  0  0
 20 23  1  0  0  0  0
 17 18  1  0  0  0  0
 17 19  1  0  0  0  0
 17 20  1  0  0  0  0
 14 15  1  0  0  0  0
 14 16  1  0  0  0  0
 14 17  1  0  0  0  0
 11 12  1  0  0  0  0
 11 13  1  0  0  0  0
 11 14  1  0  0  0  0
  9 10  1  0  0  0  0
  9 11  1  0  0  0  0
  9 26  1  0  0  0  0
  7  8  1  0  0  0  0
  7  9  1  0  0  0  0
 30 31  1  0  0  0  0
 30 32  1  0  0  0  0
 30 33  1  0  0  0  0
 28 29  1  0  0  0  0
 28 30  1  0  0  0  0
M  END
$$$$
default_name
  -OEChem-02102213163D

 33 32  0     1  0  0  0  0  0999 V2000
   -3.8420   -3.6918    1.5562 H   0  0  0  0  0  0  0  0  0  0  0  0
   -3.8430   -2.7008    1.1032 C   0  0  0  0  0  0  0  0  0  0  0  0
   -4.5510   -2.0608    1.6242 H   0  0  0  0  0  0  0  0  0  0  0  0
   -4.1140   -2.7798    0.0522 H   0  0  0  0  0  0  0  0  0  0  0  0
   -2.4570   -2.1098    1.2172 C   0  0  0  0  0  0  0  0  0  0  0  0
   -1.5600   -2.7438    1.7572 O   0  0  0  0  0  0  0  0  0  0  0  0
   -2.2870   -0.8898    0.7102 N   0  0  0  0  0  0  0  0  0  0  0  0
   -3.0820   -0.4218    0.2992 H   0  0  0  0  0  0  0  0  0  0  0  0
   -1.0240   -0.1468    0.7262 C   0  0  1  0  0  0  0  0  0  0  0  0
   -0.3583   -0.6100    1.4558 H   0  0  0  0  0  0  0  0  0  0  0  0
   -0.3739   -0.2459   -0.6675 C   0  0  0  0  0  0  0  0  0  0  0  0
   -0.8673   -1.0451   -1.2245 H   0  0  0  0  0  0  0  0  0  0  0  0
   -0.5304    0.6905   -1.2048 H   0  0  0  0  0  0  0  0  0  0  0  0
    1.1304   -0.5552   -0.6162 C   0  0  0  0  0  0  0  0  0  0  0  0
    1.6977    0.3478   -0.8437 H   0  0  0  0  0  0  0  0  0  0  0  0
    1.3923   -0.8987    0.3862 H   0  0  0  0  0  0  0  0  0  0  0  0
    1.5012   -1.6401   -1.6337 C   0  0  0  0  0  0  0  0  0  0  0  0
    0.9353   -2.5482   -1.4237 H   0  0  0  0  0  0  0  0  0  0  0  0
    1.2634   -1.2919   -2.6393 H   0  0  0  0  0  0  0  0  0  0  0  0
    2.9951   -1.9455   -1.5447 C   0  0  0  0  0  0  0  0  0  0  0  0
    3.5625   -1.0444   -1.7722 H   0  0  0  0  0  0  0  0  0  0  0  0
    3.2376   -2.2764   -0.5362 H   0  0  0  0  0  0  0  0  0  0  0  0
    3.3804   -2.9988   -2.4909 N   0  0  0  0  0  0  0  0  0  0  0  0
    4.3733   -3.1646   -2.4149 H   0  0  0  0  0  0  0  0  0  0  0  0
    2.8804   -3.8468   -2.2644 H   0  0  0  0  0  0  0  0  0  0  0  0
   -1.2712    1.3099    1.1517 C   0  0  0  0  0  0  0  0  0  0  0  0
   -2.2039    1.9448    0.6639 O   0  0  0  0  0  0  0  0  0  0  0  0
   -0.4306    1.8354    2.0503 N   0  0  0  0  0  0  0  0  0  0  0  0
    0.3001    1.2459    2.4139 H   0  0  0  0  0  0  0  0  0  0  0  0
   -0.5192    3.2082    2.5456 C   0  0  0  0  0  0  0  0  0  0  0  0
   -1.5166    3.3903    2.9518 H   0  0  0  0  0  0  0  0  0  0  0  0
    0.2240    3.3791    3.3257 H   0  0  0  0  0  0  0  0  0  0  0  0
   -0.3477    3.9067    1.7239 H   0  0  0  0  0  0  0  0  0  0  0  0
  5  6  2  0  0  0  0
  5  7  1  0  0  0  0
  2  3  1  0  0  0  0
  2  4  1  0  0  0  0
  2  5  1  0  0  0  0
  1  2  1  0  0  0  0
 26 27  2  0  0  0  0
 26 28  1  0  0  0  0
 23 24  1  0  0  0  0
 23 25  1  0  0  0  0
 20 21  1  0  0  0  0
 20 22  1  0  0  0  0
 20 23  1  0  0  0  0
 17 18  1  0  0  0  0
 17 19  1  0  0  0  0
 17 20  1  0  0  0  0
 14 15  1  0  0  0  0
 14 16  1  0  0  0  0
 14 17  1  0  0  0  0
 11 12  1  0  0  0  0
 11 13  1  0  0  0  0
 11 14  1  0  0  0  0
  9 10  1  0  0  0  0
  9 11  1  0  0  0  0
  9 26  1  0  0  0  0
  7  8  1  0  0  0  0
  7  9  1  0  0  0  0
 30 31  1  0  0  0  0
 30 32  1  0  0  0  0
 30 33  1  0  0  0  0
 28 29  1  0  0  0  0
 28 30  1  0  0  0  0
M  END
$$$$
default_name
  -OEChem-02102213163D

 33 32  0     1  0  0  0  0  0999 V2000
   -3.8420   -3.6918    1.5562 H   0  0  0  0  0  0  0  0  0  0  0  0
   -3.8430   -2.7008    1.1032 C   0  0  0  0  0  0  0  0  0  0  0  0
   -4.5510   -2.0608    1.6242 H   0  0  0  0  0  0  0  0  0  0  0  0
   -4.1140   -2.7798    0.0522 H   0  0  0  0  0  0  0  0  0  0  0  0
   -2.4570   -2.1098    1.2172 C   0  0  0  0  0  0  0  0  0  0  0  0
   -1.5600   -2.7438    1.7572 O   0  0  0  0  0  0  0  0  0  0  0  0
   -2.2870   -0.8898    0.7102 N   0  0  0  0  0  0  0  0  0  0  0  0
   -3.0820   -0.4218    0.2992 H   0  0  0  0  0  0  0  0  0  0  0  0
   -1.0240   -0.1468    0.7262 C   0  0  1  0  0  0  0  0  0  0  0  0
   -0.3583   -0.6100    1.4558 H   0  0  0  0  0  0  0  0  0  0  0  0
   -0.3739   -0.2459   -0.6675 C   0  0  0  0  0  0  0  0  0  0  0  0
   -0.8673   -1.0451   -1.2245 H   0  0  0  0  0  0  0  0  0  0  0  0
   -0.5304    0.6905   -1.2048 H   0  0  0  0  0  0  0  0  0  0  0  0
    1.1304   -0.5552   -0.6162 C   0  0  0  0  0  0  0  0  0  0  0  0
    1.6947    0.3770   -0.5772 H   0  0  0  0  0  0  0  0  0  0  0  0
    1.3461   -1.1412    0.2791 H   0  0  0  0  0  0  0  0  0  0  0  0
    1.5692   -1.3458   -1.8540 C   0  0  0  0  0  0  0  0  0  0  0  0
    1.0073   -2.2786   -1.9112 H   0  0  0  0  0  0  0  0  0  0  0  0
    1.3777   -0.7545   -2.7499 H   0  0  0  0  0  0  0  0  0  0  0  0
    3.0612   -1.6610   -1.7658 C   0  0  0  0  0  0  0  0  0  0  0  0
    3.6255   -0.7306   -1.7273 H   0  0  0  0  0  0  0  0  0  0  0  0
    3.2569   -2.2364   -0.8625 H   0  0  0  0  0  0  0  0  0  0  0  0
    3.5103   -2.4392   -2.9260 N   0  0  0  0  0  0  0  0  0  0  0  0
    4.5004   -2.6169   -2.8418 H   0  0  0  0  0  0  0  0  0  0  0  0
    3.0125   -3.3178   -2.9484 H   0  0  0  0  0  0  0  0  0  0  0  0
   -1.2712    1.3099    1.1517 C   0  0  0  0  0  0  0  0  0  0  0  0
   -2.2039    1.9448    0.6639 O   0  0  0  0  0  0  0  0  0  0  0  0
   -0.4306    1.8354    2.0503 N   0  0  0  0  0  0  0  0  0  0  0  0
    0.3001    1.2459    2.4139 H   0  0  0  0  0  0  0  0  0  0  0  0
   -0.5192    3.2082    2.5456 C   0  0  0  0  0  0  0  0  0  0  0  0
   -1.5166    3.3903    2.9518 H   0  0  0  0  0  0  0  0  0  0  0  0
    0.2240    3.3791    3.3257 H   0  0  0  0  0  0  0  0  0  0  0  0
   -0.3477    3.9067    1.7239 H   0  0  0  0  0  0  0  0  0  0  0  0
  5  6  2  0  0  0  0
  5  7  1  0  0  0  0
  2  3  1  0  0  0  0
  2  4  1  0  0  0  0
  2  5  1  0  0  0  0
  1  2  1  0  0  0  0
 26 27  2  0  0  0  0
 26 28  1  0  0  0  0
 23 24  1  0  0  0  0
 23 25  1  0  0  0  0
 20 21  1  0  0  0  0
 20 22  1  0  0  0  0
 20 23  1  0  0  0  0
 17 18  1  0  0  0  0
 17 19  1  0  0  0  0
 17 20  1  0  0  0  0
 14 15  1  0  0  0  0
 14 16  1  0  0  0  0
 14 17  1  0  0  0  0
 11 12  1  0  0  0  0
 11 13  1  0  0  0  0
 11 14  1  0  0  0  0
  9 10  1  0  0  0  0
  9 11  1  0  0  0  0
  9 26  1  0  0  0  0
  7  8  1  0  0  0  0
  7  9  1  0  0  0  0
 30 31  1  0  0  0  0
 30 32  1  0  0  0  0
 30 33  1  0  0  0  0
 28 29  1  0  0  0  0
 28 30  1  0  0  0  0
M  END
$$$$
default_name
  -OEChem-02102213163D

 33 32  0     1  0  0  0  0  0999 V2000
   -3.8420   -3.6918    1.5562 H   0  0  0  0  0  0  0  0  0  0  0  0
   -3.8430   -2.7008    1.1032 C   0  0  0  0  0  0  0  0  0  0  0  0
   -4.5510   -2.0608    1.6242 H   0  0  0  0  0  0  0  0  0  0  0  0
   -4.1140   -2.7798    0.0522 H   0  0  0  0  0  0  0  0  0  0  0  0
   -2.4570   -2.1098    1.2172 C   0  0  0  0  0  0  0  0  0  0  0  0
   -1.5600   -2.7438    1.7572 O   0  0  0  0  0  0  0  0  0  0  0  0
   -2.2870   -0.8898    0.7102 N   0  0  0  0  0  0  0  0  0  0  0  0
   -3.0820   -0.4218    0.2992 H   0  0  0  0  0  0  0  0  0  0  0  0
   -1.0240   -0.1468    0.7262 C   0  0  1  0  0  0  0  0  0  0  0  0
   -0.3583   -0.6100    1.4558 H   0  0  0  0  0  0  0  0  0  0  0  0
   -0.3739   -0.2459   -0.6675 C   0  0  0  0  0  0  0  0  0  0  0  0
   -0.8673   -1.0451   -1.2245 H   0  0  0  0  0  0  0  0  0  0  0  0
   -0.5304    0.6905   -1.2048 H   0  0  0  0  0  0  0  0  0  0  0  0
    1.1304   -0.5552   -0.6162 C   0  0  0  0  0  0  0  0  0  0  0  0
    1.6776    0.3377   -0.3126 H   0  0  0  0  0  0  0  0  0  0  0  0
    1.3092   -1.3487    0.1117 H   0  0  0  0  0  0  0  0  0  0  0  0
    1.6438   -1.0052   -1.9887 C   0  0  0  0  0  0  0  0  0  0  0  0
    1.1000   -1.8941   -2.3099 H   0  0  0  0  0  0  0  0  0  0  0  0
    1.4891   -0.2064   -2.7145 H   0  0  0  0  0  0  0  0  0  0  0  0
    3.1340   -1.3296   -1.9039 C   0  0  0  0  0  0  0  0  0  0  0  0
    3.6813   -0.4383   -1.6012 H   0  0  0  0  0  0  0  0  0  0  0  0
    3.2923   -2.1148   -1.1666 H   0  0  0  0  0  0  0  0  0  0  0  0
    3.6536   -1.7872   -3.1977 N   0  0  0  0  0  0  0  0  0  0  0  0
    4.6407   -1.9786   -3.1086 H   0  0  0  0  0  0  0  0  0  0  0  0
    3.1711   -2.6324   -3.4683 H   0  0  0  0  0  0  0  0  0  0  0  0
   -1.2712    1.3099    1.1517 C   0  0  0  0  0  0  0  0  0  0  0  0
   -2.2039    1.9448    0.6639 O   0  0  0  0  0  0  0  0  0  0  0  0
   -0.4306    1.8354    2.0503 N   0  0  0  0  0  0  0  0  0  0  0  0
    0.3001    1.2459    2.4139 H   0  0  0  0  0  0  0  0  0  0  0  0
   -0.5192    3.2082    2.5456 C   0  0  0  0  0  0  0  0  0  0  0  0
   -1.5166    3.3903    2.9518 H   0  0  0  0  0  0  0  0  0  0  0  0
    0.2240    3.3791    3.3257 H   0  0  0  0  0  0  0  0  0  0  0  0
   -0.3477    3.9067    1.7239 H   0  0  0  0  0  0  0  0  0  0  0  0
  5  6  2  0  0  0  0
  5  7  1  0  0  0  0
  2  3  1  0  0  0  0
  2  4  1  0  0  0  0
  2  5  1  0  0  0  0
  1  2  1  0  0  0  0
 26 27  2  0  0  0  0
 26 28  1  0  0  0  0
 23 24  1  0  0  0  0
 23 25  1  0  0  0  0
 20 21  1  0  0  0  0
 20 22  1  0  0  0  0
 20 23  1  0  0  0  0
 17 18  1  0  0  0  0
 17 19  1  0  0  0  0
 17 20  1  0  0  0  0
 14 15  1  0  0  0  0
 14 16  1  0  0  0  0
 14 17  1  0  0  0  0
 11 12  1  0  0  0  0
 11 13  1  0  0  0  0
 11 14  1  0  0  0  0
  9 10  1  0  0  0  0
  9 11  1  0  0  0  0
  9 26  1  0  0  0  0
  7  8  1  0  0  0  0
  7  9  1  0  0  0  0
 30 31  1  0  0  0  0
 30 32  1  0  0  0  0
 30 33  1  0  0  0  0
 28 29  1  0  0  0  0
 28 30  1  0  0  0  0
M  END
$$$$
default_name
  -OEChem-02102213163D

 33 32  0     1  0  0  0  0  0999 V2000
   -3.8420   -3.6918    1.5562 H   0  0  0  0  0  0  0  0  0  0  0  0
   -3.8430   -2.7008    1.1032 C   0  0  0  0  0  0  0  0  0  0  0  0
   -4.5510   -2.0608    1.6242 H   0  0  0  0  0  0  0  0  0  0  0  0
   -4.1140   -2.7798    0.0522 H   0  0  0  0  0  0  0  0  0  0  0  0
   -2.4570   -2.1098    1.2172 C   0  0  0  0  0  0  0  0  0  0  0  0
   -1.5600   -2.7438    1.7572 O   0  0  0  0  0  0  0  0  0  0  0  0
   -2.2870   -0.8898    0.7102 N   0  0  0  0  0  0  0  0  0  0  0  0
   -3.0820   -0.4218    0.2992 H   0  0  0  0  0  0  0  0  0  0  0  0
   -1.0240   -0.1468    0.7262 C   0  0  1  0  0  0  0  0  0  0  0  0
   -0.3583   -0.6100    1.4558 H   0  0  0  0  0  0  0  0  0  0  0  0
   -0.3739   -0.2459   -0.6675 C   0  0  0  0  0  0  0  0  0  0  0  0
   -1.0233   -0.8423   -1.3117 H   0  0  0  0  0  0  0  0  0  0  0  0
   -0.2918    0.7531   -1.0979 H   0  0  0  0  0  0  0  0  0  0  0  0
    1.0147   -0.9037   -0.6454 C   0  0  0  0  0  0  0  0  0  0  0  0
    1.6848   -0.3230   -0.0109 H   0  0  0  0  0  0  0  0  0  0  0  0
    0.9268   -1.9142   -0.2421 H   0  0  0  0  0  0  0  0  0  0  0  0
    1.6094   -0.9742   -2.0565 C   0  0  0  0  0  0  0  0  0  0  0  0
    0.9458   -1.5461   -2.7057 H   0  0  0  0  0  0  0  0  0  0  0  0
    1.7214    0.0347   -2.4546 H   0  0  0  0  0  0  0  0  0  0  0  0
    2.9767   -1.6536   -2.0094 C   0  0  0  0  0  0  0  0  0  0  0  0
    3.6467   -1.0741   -1.3763 H   0  0  0  0  0  0  0  0  0  0  0  0
    2.8693   -2.6549   -1.5955 H   0  0  0  0  0  0  0  0  0  0  0  0
    3.5651   -1.7590   -3.3495 N   0  0  0  0  0  0  0  0  0  0  0  0
    4.4710   -2.1987   -3.2792 H   0  0  0  0  0  0  0  0  0  0  0  0
    2.9628   -2.3228   -3.9324 H   0  0  0  0  0  0  0  0  0  0  0  0
   -1.2712    1.3099    1.1517 C   0  0  0  0  0  0  0  0  0  0  0  0
   -2.2039    1.9448    0.6639 O   0  0  0  0  0  0  0  0  0  0  0  0
   -0.4306    1.8354    2.0503 N   0  0  0  0  0  0  0  0  0  0  0  0
    0.3001    1.2459    2.4139 H   0  0  0  0  0  0  0  0  0  0  0  0
   -0.5192    3.2082    2.5456 C   0  0  0  0  0  0  0  0  0  0  0  0
   -1.5166    3.3903    2.9518 H   0  0  0  0  0  0  0  0  0  0  0  0
    0.2240    3.3791    3.3257 H   0  0  0  0  0  0  0  0  0  0  0  0
   -0.3477    3.9067    1.7239 H   0  0  0  0  0  0  0  0  0  0  0  0
  5  6  2  0  0  0  0
  5  7  1  0  0  0  0
  2  3  1  0  0  0  0
  2  4  1  0  0  0  0
  2  5  1  0  0  0  0
  1  2  1  0  0  0  0
 26 27  2  0  0  0  0
 26 28  1  0  0  0  0
 23 24  1  0  0  0  0
 23 25  1  0  0  0  0
 20 21  1  0  0  0  0
 20 22  1  0  0  0  0
 20 23  1  0  0  0  0
 17 18  1  0  0  0  0
 17 19  1  0  0  0  0
 17 20  1  0  0  0  0
 14 15  1  0  0  0  0
 14 16  1  0  0  0  0
 14 17  1  0  0  0  0
 11 12  1  0  0  0  0
 11 13  1  0  0  0  0
 11 14  1  0  0  0  0
  9 10  1  0  0  0  0
  9 11  1  0  0  0  0
  9 26  1  0  0  0  0
  7  8  1  0  0  0  0
  7  9  1  0  0  0  0
 30 31  1  0  0  0  0
 30 32  1  0  0  0  0
 30 33  1  0  0  0  0
 28 29  1  0  0  0  0
 28 30  1  0  0  0  0
M  END
$$$$
default_name
  -OEChem-02102213163D

 33 32  0     1  0  0  0  0  0999 V2000
   -3.8420   -3.6918    1.5562 H   0  0  0  0  0  0  0  0  0  0  0  0
   -3.8430   -2.7008    1.1032 C   0  0  0  0  0  0  0  0  0  0  0  0
   -4.5510   -2.0608    1.6242 H   0  0  0  0  0  0  0  0  0  0  0  0
   -4.1140   -2.7798    0.0522 H   0  0  0  0  0  0  0  0  0  0  0  0
   -2.4570   -2.1098    1.2172 C   0  0  0  0  0  0  0  0  0  0  0  0
   -1.5600   -2.7438    1.7572 O   0  0  0  0  0  0  0  0  0  0  0  0
   -2.2870   -0.8898    0.7102 N   0  0  0  0  0  0  0  0  0  0  0  0
   -3.0820   -0.4218    0.2992 H   0  0  0  0  0  0  0  0  0  0  0  0
   -1.0240   -0.1468    0.7262 C   0  0  1  0  0  0  0  0  0  0  0  0
   -0.3583   -0.6100    1.4558 H   0  0  0  0  0  0  0  0  0  0  0  0
   -0.3739   -0.2459   -0.6675 C   0  0  0  0  0  0  0  0  0  0  0  0
   -1.0233   -0.8423   -1.3117 H   0  0  0  0  0  0  0  0  0  0  0  0
   -0.2918    0.7531   -1.0979 H   0  0  0  0  0  0  0  0  0  0  0  0
    1.0147   -0.9037   -0.6454 C   0  0  0  0  0  0  0  0  0  0  0  0
    1.6007   -0.4940    0.1777 H   0  0  0  0  0  0  0  0  0  0  0  0
    0.9000   -1.9796   -0.5017 H   0  0  0  0  0  0  0  0  0  0  0  0
    1.7626   -0.6475   -1.9587 C   0  0  0  0  0  0  0  0  0  0  0  0
    1.1844   -1.0453   -2.7933 H   0  0  0  0  0  0  0  0  0  0  0  0
    1.9008    0.4254   -2.0951 H   0  0  0  0  0  0  0  0  0  0  0  0
    3.1276   -1.3320   -1.9199 C   0  0  0  0  0  0  0  0  0  0  0  0
    3.7138   -0.9232   -1.0985 H   0  0  0  0  0  0  0  0  0  0  0  0
    2.9922   -2.4013   -1.7660 H   0  0  0  0  0  0  0  0  0  0  0  0
    3.8620   -1.1263   -3.1736 N   0  0  0  0  0  0  0  0  0  0  0  0
    4.7619   -1.5788   -3.1077 H   0  0  0  0  0  0  0  0  0  0  0  0
    3.3374   -1.5323   -3.9353 H   0  0  0  0  0  0  0  0  0  0  0  0
   -1.2712    1.3099    1.1517 C   0  0  0  0  0  0  0  0  0  0  0  0
   -2.2039    1.9448    0.6639 O   0  0  0  0  0  0  0  0  0  0  0  0
   -0.4306    1.8354    2.0503 N   0  0  0  0  0  0  0  0  0  0  0  0
    0.3001    1.2459    2.4139 H   0  0  0  0  0  0  0  0  0  0  0  0
   -0.5192    3.2082    2.5456 C   0  0  0  0  0  0  0  0  0  0  0  0
   -1.5166    3.3903    2.9518 H   0  0  0  0  0  0  0  0  0  0  0  0
    0.2240    3.3791    3.3257 H   0  0  0  0  0  0  0  0  0  0  0  0
   -0.3477    3.9067    1.7239 H   0  0  0  0  0  0  0  0  0  0  0  0
  5  6  2  0  0  0  0
  5  7  1  0  0  0  0
  2  3  1  0  0  0  0
  2  4  1  0  0  0  0
  2  5  1  0  0  0  0
  1  2  1  0  0  0  0
 26 27  2  0  0  0  0
 26 28  1  0  0  0  0
 23 24  1  0  0  0  0
 23 25  1  0  0  0  0
 20 21  1  0  0  0  0
 20 22  1  0  0  0  0
 20 23  1  0  0  0  0
 17 18  1  0  0  0  0
 17 19  1  0  0  0  0
 17 20  1  0  0  0  0
 14 15  1  0  0  0  0
 14 16  1  0  0  0  0
 14 17  1  0  0  0  0
 11 12  1  0  0  0  0
 11 13  1  0  0  0  0
 11 14  1  0  0  0  0
  9 10  1  0  0  0  0
  9 11  1  0  0  0  0
  9 26  1  0  0  0  0
  7  8  1  0  0  0  0
  7  9  1  0  0  0  0
 30 31  1  0  0  0  0
 30 32  1  0  0  0  0
 30 33  1  0  0  0  0
 28 29  1  0  0  0  0
 28 30  1  0  0  0  0
M  END
$$$$
default_name
  -OEChem-02102213163D

 33 32  0     1  0  0  0  0  0999 V2000
   -3.8420   -3.6918    1.5562 H   0  0  0  0  0  0  0  0  0  0  0  0
   -3.8430   -2.7008    1.1032 C   0  0  0  0  0  0  0  0  0  0  0  0
   -4.5510   -2.0608    1.6242 H   0  0  0  0  0  0  0  0  0  0  0  0
   -4.1140   -2.7798    0.0522 H   0  0  0  0  0  0  0  0  0  0  0  0
   -2.4570   -2.1098    1.2172 C   0  0  0  0  0  0  0  0  0  0  0  0
   -1.5600   -2.7438    1.7572 O   0  0  0  0  0  0  0  0  0  0  0  0
   -2.2870   -0.8898    0.7102 N   0  0  0  0  0  0  0  0  0  0  0  0
   -3.0820   -0.4218    0.2992 H   0  0  0  0  0  0  0  0  0  0  0  0
   -1.0240   -0.1468    0.7262 C   0  0  1  0  0  0  0  0  0  0  0  0
   -0.3583   -0.6100    1.4558 H   0  0  0  0  0  0  0  0  0  0  0  0
   -0.3739   -0.2459   -0.6675 C   0  0  0  0  0  0  0  0  0  0  0  0
   -1.0233   -0.8423   -1.3117 H   0  0  0  0  0  0  0  0  0  0  0  0
   -0.2918    0.7531   -1.0979 H   0  0  0  0  0  0  0  0  0  0  0  0
    1.0147   -0.9037   -0.6454 C   0  0  0  0  0  0  0  0  0  0  0  0
    1.4993   -0.7036    0.3106 H   0  0  0  0  0  0  0  0  0  0  0  0
    0.9030   -1.9822   -0.7708 H   0  0  0  0  0  0  0  0  0  0  0  0
    1.8985   -0.3543   -1.7709 C   0  0  0  0  0  0  0  0  0  0  0  0
    1.4228   -0.5401   -2.7343 H   0  0  0  0  0  0  0  0  0  0  0  0
    2.0328    0.7194   -1.6366 H   0  0  0  0  0  0  0  0  0  0  0  0
    3.2622   -1.0417   -1.7416 C   0  0  0  0  0  0  0  0  0  0  0  0
    3.7472   -0.8421   -0.7874 H   0  0  0  0  0  0  0  0  0  0  0  0
    3.1288   -2.1160   -1.8578 H   0  0  0  0  0  0  0  0  0  0  0  0
    4.1269   -0.5553   -2.8227 N   0  0  0  0  0  0  0  0  0  0  0  0
    5.0216   -1.0191   -2.7647 H   0  0  0  0  0  0  0  0  0  0  0  0
    3.6965   -0.7666   -3.7118 H   0  0  0  0  0  0  0  0  0  0  0  0
   -1.2712    1.3099    1.1517 C   0  0  0  0  0  0  0  0  0  0  0  0
   -2.2039    1.9448    0.6639 O   0  0  0  0  0  0  0  0  0  0  0  0
   -0.4306    1.8354    2.0503 N   0  0  0  0  0  0  0  0  0  0  0  0
    0.3001    1.2459    2.4139 H   0  0  0  0  0  0  0  0  0  0  0  0
   -0.5192    3.2082    2.5456 C   0  0  0  0  0  0  0  0  0  0  0  0
   -1.5166    3.3903    2.9518 H   0  0  0  0  0  0  0  0  0  0  0  0
    0.2240    3.3791    3.3257 H   0  0  0  0  0  0  0  0  0  0  0  0
   -0.3477    3.9067    1.7239 H   0  0  0  0  0  0  0  0  0  0  0  0
  5  6  2  0  0  0  0
  5  7  1  0  0  0  0
  2  3  1  0  0  0  0
  2  4  1  0  0  0  0
  2  5  1  0  0  0  0
  1  2  1  0  0  0  0
 26 27  2  0  0  0  0
 26 28  1  0  0  0  0
 23 24  1  0  0  0  0
 23 25  1  0  0  0  0
 20 21  1  0  0  0  0
 20 22  1  0  0  0  0
 20 23  1  0  0  0  0
 17 18  1  0  0  0  0
 17 19  1  0  0  0  0
 17 20  1  0  0  0  0
 14 15  1  0  0  0  0
 14 16  1  0  0  0  0
 14 17  1  0  0  0  0
 11 12  1  0  0  0  0
 11 13  1  0  0  0  0
 11 14  1  0  0  0  0
  9 10  1  0  0  0  0
  9 11  1  0  0  0  0
  9 26  1  0  0  0  0
  7  8  1  0  0  0  0
  7  9  1  0  0  0  0
 30 31  1  0  0  0  0
 30 32  1  0  0  0  0
 30 33  1  0  0  0  0
 28 29  1  0  0  0  0
 28 30  1  0  0  0  0
M  END
$$$$
default_name
  -OEChem-02102213163D

 33 32  0     1  0  0  0  0  0999 V2000
   -3.8420   -3.6918    1.5562 H   0  0  0  0  0  0  0  0  0  0  0  0
   -3.8430   -2.7008    1.1032 C   0  0  0  0  0  0  0  0  0  0  0  0
   -4.5510   -2.0608    1.6242 H   0  0  0  0  0  0  0  0  0  0  0  0
   -4.1140   -2.7798    0.0522 H   0  0  0  0  0  0  0  0  0  0  0  0
   -2.4570   -2.1098    1.2172 C   0  0  0  0  0  0  0  0  0  0  0  0
   -1.5600   -2.7438    1.7572 O   0  0  0  0  0  0  0  0  0  0  0  0
   -2.2870   -0.8898    0.7102 N   0  0  0  0  0  0  0  0  0  0  0  0
   -3.0820   -0.4218    0.2992 H   0  0  0  0  0  0  0  0  0  0  0  0
   -1.0240   -0.1468    0.7262 C   0  0  1  0  0  0  0  0  0  0  0  0
   -0.3583   -0.6100    1.4558 H   0  0  0  0  0  0  0  0  0  0  0  0
   -0.3739   -0.2459   -0.6675 C   0  0  0  0  0  0  0  0  0  0  0  0
   -1.0233   -0.8423   -1.3117 H   0  0  0  0  0  0  0  0  0  0  0  0
   -0.2918    0.7531   -1.0979 H   0  0  0  0  0  0  0  0  0  0  0  0
    1.0147   -0.9037   -0.6454 C   0  0  0  0  0  0  0  0  0  0  0  0
    1.3874   -0.9376    0.3787 H   0  0  0  0  0  0  0  0  0  0  0  0
    0.9357   -1.9218   -1.0309 H   0  0  0  0  0  0  0  0  0  0  0  0
    2.0079   -0.1145   -1.5059 C   0  0  0  0  0  0  0  0  0  0  0  0
    1.6446   -0.0651   -2.5328 H   0  0  0  0  0  0  0  0  0  0  0  0
    2.1083    0.8966   -1.1103 H   0  0  0  0  0  0  0  0  0  0  0  0
    3.3715   -0.8026   -1.4865 C   0  0  0  0  0  0  0  0  0  0  0  0
    3.7447   -0.8365   -0.4642 H   0  0  0  0  0  0  0  0  0  0  0  0
    3.2698   -1.8185   -1.8646 H   0  0  0  0  0  0  0  0  0  0  0  0
    4.3418   -0.0847   -2.3210 N   0  0  0  0  0  0  0  0  0  0  0  0
    5.2324   -0.5577   -2.2738 H   0  0  0  0  0  0  0  0  0  0  0  0
    4.0158   -0.0780   -3.2770 H   0  0  0  0  0  0  0  0  0  0  0  0
   -1.2712    1.3099    1.1517 C   0  0  0  0  0  0  0  0  0  0  0  0
   -2.2039    1.9448    0.6639 O   0  0  0  0  0  0  0  0  0  0  0  0
   -0.4306    1.8354    2.0503 N   0  0  0  0  0  0  0  0  0  0  0  0
    0.3001    1.2459    2.4139 H   0  0  0  0  0  0  0  0  0  0  0  0
   -0.5192    3.2082    2.5456 C   0  0  0  0  0  0  0  0  0  0  0  0
   -1.5166    3.3903    2.9518 H   0  0  0  0  0  0  0  0  0  0  0  0
    0.2240    3.3791    3.3257 H   0  0  0  0  0  0  0  0  0  0  0  0
   -0.3477    3.9067    1.7239 H   0  0  0  0  0  0  0  0  0  0  0  0
  5  6  2  0  0  0  0
  5  7  1  0  0  0  0
  2  3  1  0  0  0  0
  2  4  1  0  0  0  0
  2  5  1  0  0  0  0
  1  2  1  0  0  0  0
 26 27  2  0  0  0  0
 26 28  1  0  0  0  0
 23 24  1  0  0  0  0
 23 25  1  0  0  0  0
 20 21  1  0  0  0  0
 20 22  1  0  0  0  0
 20 23  1  0  0  0  0
 17 18  1  0  0  0  0
 17 19  1  0  0  0  0
 17 20  1  0  0  0  0
 14 15  1  0  0  0  0
 14 16  1  0  0  0  0
 14 17  1  0  0  0  0
 11 12  1  0  0  0  0
 11 13  1  0  0  0  0
 11 14  1  0  0  0  0
  9 10  1  0  0  0  0
  9 11  1  0  0  0  0
  9 26  1  0  0  0  0
  7  8  1  0  0  0  0
  7  9  1  0  0  0  0
 30 31  1  0  0  0  0
 30 32  1  0  0  0  0
 30 33  1  0  0  0  0
 28 29  1  0  0  0  0
 28 30  1  0  0  0  0
M  END
$$$$
default_name
  -OEChem-02102213163D

 33 32  0     1  0  0  0  0  0999 V2000
   -3.8420   -3.6918    1.5562 H   0  0  0  0  0  0  0  0  0  0  0  0
   -3.8430   -2.7008    1.1032 C   0  0  0  0  0  0  0  0  0  0  0  0
   -4.5510   -2.0608    1.6242 H   0  0  0  0  0  0  0  0  0  0  0  0
   -4.1140   -2.7798    0.0522 H   0  0  0  0  0  0  0  0  0  0  0  0
   -2.4570   -2.1098    1.2172 C   0  0  0  0  0  0  0  0  0  0  0  0
   -1.5600   -2.7438    1.7572 O   0  0  0  0  0  0  0  0  0  0  0  0
   -2.2870   -0.8898    0.7102 N   0  0  0  0  0  0  0  0  0  0  0  0
   -3.0820   -0.4218    0.2992 H   0  0  0  0  0  0  0  0  0  0  0  0
   -1.0240   -0.1468    0.7262 C   0  0  1  0  0  0  0  0  0  0  0  0
   -0.3583   -0.6100    1.4558 H   0  0  0  0  0  0  0  0  0  0  0  0
   -0.3739   -0.2459   -0.6675 C   0  0  0  0  0  0  0  0  0  0  0  0
   -1.0233   -0.8423   -1.3117 H   0  0  0  0  0  0  0  0  0  0  0  0
   -0.2918    0.7531   -1.0979 H   0  0  0  0  0  0  0  0  0  0  0  0
    1.0147   -0.9037   -0.6454 C   0  0  0  0  0  0  0  0  0  0  0  0
    1.2726   -1.1799    0.3773 H   0  0  0  0  0  0  0  0  0  0  0  0
    0.9960   -1.8025   -1.2645 H   0  0  0  0  0  0  0  0  0  0  0  0
    2.0833    0.0555   -1.1817 C   0  0  0  0  0  0  0  0  0  0  0  0
    1.8348    0.3474   -2.2025 H   0  0  0  0  0  0  0  0  0  0  0  0
    2.1224    0.9450   -0.5521 H   0  0  0  0  0  0  0  0  0  0  0  0
    3.4478   -0.6308   -1.1720 C   0  0  0  0  0  0  0  0  0  0  0  0
    3.7066   -0.9066   -0.1510 H   0  0  0  0  0  0  0  0  0  0  0  0
    3.4057   -1.5290   -1.7860 H   0  0  0  0  0  0  0  0  0  0  0  0
    4.4921    0.2532   -1.7024 N   0  0  0  0  0  0  0  0  0  0  0  0
    5.3798   -0.2261   -1.6683 H   0  0  0  0  0  0  0  0  0  0  0  0
    4.2735    0.4866   -2.6606 H   0  0  0  0  0  0  0  0  0  0  0  0
   -1.2712    1.3099    1.1517 C   0  0  0  0  0  0  0  0  0  0  0  0
   -2.2039    1.9448    0.6639 O   0  0  0  0  0  0  0  0  0  0  0  0
   -0.4306    1.8354    2.0503 N   0  0  0  0  0  0  0  0  0  0  0  0
    0.3001    1.2459    2.4139 H   0  0  0  0  0  0  0  0  0  0  0  0
   -0.5192    3.2082    2.5456 C   0  0  0  0  0  0  0  0  0  0  0  0
   -1.5166    3.3903    2.9518 H   0  0  0  0  0  0  0  0  0  0  0  0
    0.2240    3.3791    3.3257 H   0  0  0  0  0  0  0  0  0  0  0  0
   -0.3477    3.9067    1.7239 H   0  0  0  0  0  0  0  0  0  0  0  0
  5  6  2  0  0  0  0
  5  7  1  0  0  0  0
  2  3  1  0  0  0  0
  2  4  1  0  0  0  0
  2  5  1  0  0  0  0
  1  2  1  0  0  0  0
 26 27  2  0  0  0  0
 26 28  1  0  0  0  0
 23 24  1  0  0  0  0
 23 25  1  0  0  0  0
 20 21  1  0  0  0  0
 20 22  1  0  0  0  0
 20 23  1  0  0  0  0
 17 18  1  0  0  0  0
 17 19  1  0  0  0  0
 17 20  1  0  0  0  0
 14 15  1  0  0  0  0
 14 16  1  0  0  0  0
 14 17  1  0  0  0  0
 11 12  1  0  0  0  0
 11 13  1  0  0  0  0
 11 14  1  0  0  0  0
  9 10  1  0  0  0  0
  9 11  1  0  0  0  0
  9 26  1  0  0  0  0
  7  8  1  0  0  0  0
  7  9  1  0  0  0  0
 30 31  1  0  0  0  0
 30 32  1  0  0  0  0
 30 33  1  0  0  0  0
 28 29  1  0  0  0  0
 28 30  1  0  0  0  0
M  END
$$$$
default_name
  -OEChem-02102213163D

 33 32  0     1  0  0  0  0  0999 V2000
   -3.8420   -3.6918    1.5562 H   0  0  0  0  0  0  0  0  0  0  0  0
   -3.8430   -2.7008    1.1032 C   0  0  0  0  0  0  0  0  0  0  0  0
   -4.5510   -2.0608    1.6242 H   0  0  0  0  0  0  0  0  0  0  0  0
   -4.1140   -2.7798    0.0522 H   0  0  0  0  0  0  0  0  0  0  0  0
   -2.4570   -2.1098    1.2172 C   0  0  0  0  0  0  0  0  0  0  0  0
   -1.5600   -2.7438    1.7572 O   0  0  0  0  0  0  0  0  0  0  0  0
   -2.2870   -0.8898    0.7102 N   0  0  0  0  0  0  0  0  0  0  0  0
   -3.0820   -0.4218    0.2992 H   0  0  0  0  0  0  0  0  0  0  0  0
   -1.0240   -0.1468    0.7262 C   0  0  1  0  0  0  0  0  0  0  0  0
   -0.3583   -0.6100    1.4558 H   0  0  0  0  0  0  0  0  0  0  0  0
   -0.3739   -0.2459   -0.6675 C   0  0  0  0  0  0  0  0  0  0  0  0
   -1.0233   -0.8423   -1.3117 H   0  0  0  0  0  0  0  0  0  0  0  0
   -0.2918    0.7531   -1.0979 H   0  0  0  0  0  0  0  0  0  0  0  0
    1.0147   -0.9037   -0.6454 C   0  0  0  0  0  0  0  0  0  0  0  0
    1.1628   -1.4141    0.3066 H   0  0  0  0  0  0  0  0  0  0  0  0
    1.0796   -1.6324   -1.4555 H   0  0  0  0  0  0  0  0  0  0  0  0
    2.1196    0.1443   -0.8204 C   0  0  0  0  0  0  0  0  0  0  0  0
    1.9803    0.6693   -1.7659 H   0  0  0  0  0  0  0  0  0  0  0  0
    2.0739    0.8612   -0.0001 H   0  0  0  0  0  0  0  0  0  0  0  0
    3.4861   -0.5382   -0.8197 C   0  0  0  0  0  0  0  0  0  0  0  0
    3.6352   -1.0477    0.1309 H   0  0  0  0  0  0  0  0  0  0  0  0
    3.5272   -1.2672   -1.6273 H   0  0  0  0  0  0  0  0  0  0  0  0
    4.5675    0.4356   -1.0093 N   0  0  0  0  0  0  0  0  0  0  0  0
    5.4540   -0.0468   -0.9896 H   0  0  0  0  0  0  0  0  0  0  0  0
    4.4520    0.8888   -1.9046 H   0  0  0  0  0  0  0  0  0  0  0  0
   -1.2712    1.3099    1.1517 C   0  0  0  0  0  0  0  0  0  0  0  0
   -2.2039    1.9448    0.6639 O   0  0  0  0  0  0  0  0  0  0  0  0
   -0.4306    1.8354    2.0503 N   0  0  0  0  0  0  0  0  0  0  0  0
    0.3001    1.2459    2.4139 H   0  0  0  0  0  0  0  0  0  0  0  0
   -0.5192    3.2082    2.5456 C   0  0  0  0  0  0  0  0  0  0  0  0
   -1.5166    3.3903    2.9518 H   0  0  0  0  0  0  0  0  0  0  0  0
    0.2240    3.3791    3.3257 H   0  0  0  0  0  0  0  0  0  0  0  0
   -0.3477    3.9067    1.7239 H   0  0  0  0  0  0  0  0  0  0  0  0
  5  6  2  0  0  0  0
  5  7  1  0  0  0  0
  2  3  1  0  0  0  0
  2  4  1  0  0  0  0
  2  5  1  0  0  0  0
  1  2  1  0  0  0  0
 26 27  2  0  0  0  0
 26 28  1  0  0  0  0
 23 24  1  0  0  0  0
 23 25  1  0  0  0  0
 20 21  1  0  0  0  0
 20 22  1  0  0  0  0
 20 23  1  0  0  0  0
 17 18  1  0  0  0  0
 17 19  1  0  0  0  0
 17 20  1  0  0  0  0
 14 15  1  0  0  0  0
 14 16  1  0  0  0  0
 14 17  1  0  0  0  0
 11 12  1  0  0  0  0
 11 13  1  0  0  0  0
 11 14  1  0  0  0  0
  9 10  1  0  0  0  0
  9 11  1  0  0  0  0
  9 26  1  0  0  0  0
  7  8  1  0  0  0  0
  7  9  1  0  0  0  0
 30 31  1  0  0  0  0
 30 32  1  0  0  0  0
 30 33  1  0  0  0  0
 28 29  1  0  0  0  0
 28 30  1  0  0  0  0
M  END
$$$$
default_name
  -OEChem-02102213163D

 33 32  0     1  0  0  0  0  0999 V2000
   -3.8420   -3.6918    1.5562 H   0  0  0  0  0  0  0  0  0  0  0  0
   -3.8430   -2.7008    1.1032 C   0  0  0  0  0  0  0  0  0  0  0  0
   -4.5510   -2.0608    1.6242 H   0  0  0  0  0  0  0  0  0  0  0  0
   -4.1140   -2.7798    0.0522 H   0  0  0  0  0  0  0  0  0  0  0  0
   -2.4570   -2.1098    1.2172 C   0  0  0  0  0  0  0  0  0  0  0  0
   -1.5600   -2.7438    1.7572 O   0  0  0  0  0  0  0  0  0  0  0  0
   -2.2870   -0.8898    0.7102 N   0  0  0  0  0  0  0  0  0  0  0  0
   -3.0820   -0.4218    0.2992 H   0  0  0  0  0  0  0  0  0  0  0  0
   -1.0240   -0.1468    0.7262 C   0  0  1  0  0  0  0  0  0  0  0  0
   -0.3583   -0.6100    1.4558 H   0  0  0  0  0  0  0  0  0  0  0  0
   -0.3739   -0.2459   -0.6675 C   0  0  0  0  0  0  0  0  0  0  0  0
   -1.0233   -0.8423   -1.3117 H   0  0  0  0  0  0  0  0  0  0  0  0
   -0.2918    0.7531   -1.0979 H   0  0  0  0  0  0  0  0  0  0  0  0
    1.0147   -0.9037   -0.6454 C   0  0  0  0  0  0  0  0  0  0  0  0
    1.0655   -1.6241    0.1714 H   0  0  0  0  0  0  0  0  0  0  0  0
    1.1809   -1.4231   -1.5910 H   0  0  0  0  0  0  0  0  0  0  0  0
    2.1143    0.1456   -0.4467 C   0  0  0  0  0  0  0  0  0  0  0  0
    2.0713    0.8787   -1.2528 H   0  0  0  0  0  0  0  0  0  0  0  0
    1.9663    0.6510    0.5081 H   0  0  0  0  0  0  0  0  0  0  0  0
    3.4837   -0.5309   -0.4534 C   0  0  0  0  0  0  0  0  0  0  0  0
    3.5356   -1.2503    0.3623 H   0  0  0  0  0  0  0  0  0  0  0  0
    3.6260   -1.0510   -1.3993 H   0  0  0  0  0  0  0  0  0  0  0  0
    4.5628    0.4498   -0.2888 N   0  0  0  0  0  0  0  0  0  0  0  0
    5.4497   -0.0321   -0.2838 H   0  0  0  0  0  0  0  0  0  0  0  0
    4.5391    1.1011   -1.0605 H   0  0  0  0  0  0  0  0  0  0  0  0
   -1.2712    1.3099    1.1517 C   0  0  0  0  0  0  0  0  0  0  0  0
   -2.2039    1.9448    0.6639 O   0  0  0  0  0  0  0  0  0  0  0  0
   -0.4306    1.8354    2.0503 N   0  0  0  0  0  0  0  0  0  0  0  0
    0.3001    1.2459    2.4139 H   0  0  0  0  0  0  0  0  0  0  0  0
   -0.5192    3.2082    2.5456 C   0  0  0  0  0  0  0  0  0  0  0  0
   -1.5166    3.3903    2.9518 H   0  0  0  0  0  0  0  0  0  0  0  0
    0.2240    3.3791    3.3257 H   0  0  0  0  0  0  0  0  0  0  0  0
   -0.3477    3.9067    1.7239 H   0  0  0  0  0  0  0  0  0  0  0  0
  5  6  2  0  0  0  0
  5  7  1  0  0  0  0
  2  3  1  0  0  0  0
  2  4  1  0  0  0  0
  2  5  1  0  0  0  0
  1  2  1  0  0  0  0
 26 27  2  0  0  0  0
 26 28  1  0  0  0  0
 23 24  1  0  0  0  0
 23 25  1  0  0  0  0
 20 21  1  0  0  0  0
 20 22  1  0  0  0  0
 20 23  1  0  0  0  0
 17 18  1  0  0  0  0
 17 19  1  0  0  0  0
 17 20  1  0  0  0  0
 14 15  1  0  0  0  0
 14 16  1  0  0  0  0
 14 17  1  0  0  0  0
 11 12  1  0  0  0  0
 11 13  1  0  0  0  0
 11 14  1  0  0  0  0
  9 10  1  0  0  0  0
  9 11  1  0  0  0  0
  9 26  1  0  0  0  0
  7  8  1  0  0  0  0
  7  9  1  0  0  0  0
 30 31  1  0  0  0  0
 30 32  1  0  0  0  0
 30 33  1  0  0  0  0
 28 29  1  0  0  0  0
 28 30  1  0  0  0  0
M  END
$$$$
default_name
  -OEChem-02102213163D

 33 32  0     1  0  0  0  0  0999 V2000
   -3.8420   -3.6918    1.5562 H   0  0  0  0  0  0  0  0  0  0  0  0
   -3.8430   -2.7008    1.1032 C   0  0  0  0  0  0  0  0  0  0  0  0
   -4.5510   -2.0608    1.6242 H   0  0  0  0  0  0  0  0  0  0  0  0
   -4.1140   -2.7798    0.0522 H   0  0  0  0  0  0  0  0  0  0  0  0
   -2.4570   -2.1098    1.2172 C   0  0  0  0  0  0  0  0  0  0  0  0
   -1.5600   -2.7438    1.7572 O   0  0  0  0  0  0  0  0  0  0  0  0
   -2.2870   -0.8898    0.7102 N   0  0  0  0  0  0  0  0  0  0  0  0
   -3.0820   -0.4218    0.2992 H   0  0  0  0  0  0  0  0  0  0  0  0
   -1.0240   -0.1468    0.7262 C   0  0  1  0  0  0  0  0  0  0  0  0
   -0.3583   -0.6100    1.4558 H   0  0  0  0  0  0  0  0  0  0  0  0
   -0.3739   -0.2459   -0.6675 C   0  0  0  0  0  0  0  0  0  0  0  0
   -1.0233   -0.8423   -1.3117 H   0  0  0  0  0  0  0  0  0  0  0  0
   -0.2918    0.7531   -1.0979 H   0  0  0  0  0  0  0  0  0  0  0  0
    1.0147   -0.9037   -0.6454 C   0  0  0  0  0  0  0  0  0  0  0  0
    0.9872   -1.7958   -0.0191 H   0  0  0  0  0  0  0  0  0  0  0  0
    1.2930   -1.1889   -1.6616 H   0  0  0  0  0  0  0  0  0  0  0  0
    2.0678    0.0595   -0.0859 C   0  0  0  0  0  0  0  0  0  0  0  0
    2.1016    0.9613   -0.6980 H   0  0  0  0  0  0  0  0  0  0  0  0
    1.8068    0.3287    0.9380 H   0  0  0  0  0  0  0  0  0  0  0  0
    3.4408   -0.6096   -0.0982 C   0  0  0  0  0  0  0  0  0  0  0  0
    3.4145   -1.5004    0.5274 H   0  0  0  0  0  0  0  0  0  0  0  0
    3.6953   -0.8952   -1.1176 H   0  0  0  0  0  0  0  0  0  0  0  0
    4.4784    0.2951    0.4100 N   0  0  0  0  0  0  0  0  0  0  0  0
    5.3674   -0.1830    0.4008 H   0  0  0  0  0  0  0  0  0  0  0  0
    4.5290    1.1092   -0.1858 H   0  0  0  0  0  0  0  0  0  0  0  0
   -1.2712    1.3099    1.1517 C   0  0  0  0  0  0  0  0  0  0  0  0
   -2.2039    1.9448    0.6639 O   0  0  0  0  0  0  0  0  0  0  0  0
   -0.4306    1.8354    2.0503 N   0  0  0  0  0  0  0  0  0  0  0  0
    0.3001    1.2459    2.4139 H   0  0  0  0  0  0  0  0  0  0  0  0
   -0.5192    3.2082    2.5456 C   0  0  0  0  0  0  0  0  0  0  0  0
   -1.5166    3.3903    2.9518 H   0  0  0  0  0  0  0  0  0  0  0  0
    0.2240    3.3791    3.3257 H   0  0  0  0  0  0  0  0  0  0  0  0
   -0.3477    3.9067    1.7239 H   0  0  0  0  0  0  0  0  0  0  0  0
  5  6  2  0  0  0  0
  5  7  1  0  0  0  0
  2  3  1  0  0  0  0
  2  4  1  0  0  0  0
  2  5  1  0  0  0  0
  1  2  1  0  0  0  0
 26 27  2  0  0  0  0
 26 28  1  0  0  0  0
 23 24  1  0  0  0  0
 23 25  1  0  0  0  0
 20 21  1  0  0  0  0
 20 22  1  0  0  0  0
 20 23  1  0  0  0  0
 17 18  1  0  0  0  0
 17 19  1  0  0  0  0
 17 20  1  0  0  0  0
 14 15  1  0  0  0  0
 14 16  1  0  0  0  0
 14 17  1  0  0  0  0
 11 12  1  0  0  0  0
 11 13  1  0  0  0  0
 11 14  1  0  0  0  0
  9 10  1  0  0  0  0
  9 11  1  0  0  0  0
  9 26  1  0  0  0  0
  7  8  1  0  0  0  0
  7  9  1  0  0  0  0
 30 31  1  0  0  0  0
 30 32  1  0  0  0  0
 30 33  1  0  0  0  0
 28 29  1  0  0  0  0
 28 30  1  0  0  0  0
M  END
$$$$
default_name
  -OEChem-02102213163D

 33 32  0     1  0  0  0  0  0999 V2000
   -3.8420   -3.6918    1.5562 H   0  0  0  0  0  0  0  0  0  0  0  0
   -3.8430   -2.7008    1.1032 C   0  0  0  0  0  0  0  0  0  0  0  0
   -4.5510   -2.0608    1.6242 H   0  0  0  0  0  0  0  0  0  0  0  0
   -4.1140   -2.7798    0.0522 H   0  0  0  0  0  0  0  0  0  0  0  0
   -2.4570   -2.1098    1.2172 C   0  0  0  0  0  0  0  0  0  0  0  0
   -1.5600   -2.7438    1.7572 O   0  0  0  0  0  0  0  0  0  0  0  0
   -2.2870   -0.8898    0.7102 N   0  0  0  0  0  0  0  0  0  0  0  0
   -3.0820   -0.4218    0.2992 H   0  0  0  0  0  0  0  0  0  0  0  0
   -1.0240   -0.1468    0.7262 C   0  0  1  0  0  0  0  0  0  0  0  0
   -0.3583   -0.6100    1.4558 H   0  0  0  0  0  0  0  0  0  0  0  0
   -0.3739   -0.2459   -0.6675 C   0  0  0  0  0  0  0  0  0  0  0  0
   -1.0233   -0.8423   -1.3117 H   0  0  0  0  0  0  0  0  0  0  0  0
   -0.2918    0.7531   -1.0979 H   0  0  0  0  0  0  0  0  0  0  0  0
    1.0147   -0.9037   -0.6454 C   0  0  0  0  0  0  0  0  0  0  0  0
    0.9333   -1.9173   -0.2519 H   0  0  0  0  0  0  0  0  0  0  0  0
    1.4082   -0.9457   -1.6627 H   0  0  0  0  0  0  0  0  0  0  0  0
    1.9832   -0.1083    0.2372 C   0  0  0  0  0  0  0  0  0  0  0  0
    2.0691    0.9114   -0.1396 H   0  0  0  0  0  0  0  0  0  0  0  0
    1.6063   -0.0837    1.2601 H   0  0  0  0  0  0  0  0  0  0  0  0
    3.3603   -0.7688    0.2217 C   0  0  0  0  0  0  0  0  0  0  0  0
    3.2802   -1.7810    0.6150 H   0  0  0  0  0  0  0  0  0  0  0  0
    3.7305   -0.8102   -0.8013 H   0  0  0  0  0  0  0  0  0  0  0  0
    4.3200   -0.0181    1.0395 N   0  0  0  0  0  0  0  0  0  0  0  0
    5.2126   -0.4891    1.0178 H   0  0  0  0  0  0  0  0  0  0  0  0
    4.4223    0.9123    0.6598 H   0  0  0  0  0  0  0  0  0  0  0  0
   -1.2712    1.3099    1.1517 C   0  0  0  0  0  0  0  0  0  0  0  0
   -2.2039    1.9448    0.6639 O   0  0  0  0  0  0  0  0  0  0  0  0
   -0.4306    1.8354    2.0503 N   0  0  0  0  0  0  0  0  0  0  0  0
    0.3001    1.2459    2.4139 H   0  0  0  0  0  0  0  0  0  0  0  0
   -0.5192    3.2082    2.5456 C   0  0  0  0  0  0  0  0  0  0  0  0
   -1.5166    3.3903    2.9518 H   0  0  0  0  0  0  0  0  0  0  0  0
    0.2240    3.3791    3.3257 H   0  0  0  0  0  0  0  0  0  0  0  0
   -0.3477    3.9067    1.7239 H   0  0  0  0  0  0  0  0  0  0  0  0
  5  6  2  0  0  0  0
  5  7  1  0  0  0  0
  2  3  1  0  0  0  0
  2  4  1  0  0  0  0
  2  5  1  0  0  0  0
  1  2  1  0  0  0  0
 26 27  2  0  0  0  0
 26 28  1  0  0  0  0
 23 24  1  0  0  0  0
 23 25  1  0  0  0  0
 20 21  1  0  0  0  0
 20 22  1  0  0  0  0
 20 23  1  0  0  0  0
 17 18  1  0  0  0  0
 17 19  1  0  0  0  0
 17 20  1  0  0  0  0
 14 15  1  0  0  0  0
 14 16  1  0  0  0  0
 14 17  1  0  0  0  0
 11 12  1  0  0  0  0
 11 13  1  0  0  0  0
 11 14  1  0  0  0  0
  9 10  1  0  0  0  0
  9 11  1  0  0  0  0
  9 26  1  0  0  0  0
  7  8  1  0  0  0  0
  7  9  1  0  0  0  0
 30 31  1  0  0  0  0
 30 32  1  0  0  0  0
 30 33  1  0  0  0  0
 28 29  1  0  0  0  0
 28 30  1  0  0  0  0
M  END
$$$$
default_name
  -OEChem-02102213163D

 33 32  0     1  0  0  0  0  0999 V2000
   -3.8420   -3.6918    1.5562 H   0  0  0  0  0  0  0  0  0  0  0  0
   -3.8430   -2.7008    1.1032 C   0  0  0  0  0  0  0  0  0  0  0  0
   -4.5510   -2.0608    1.6242 H   0  0  0  0  0  0  0  0  0  0  0  0
   -4.1140   -2.7798    0.0522 H   0  0  0  0  0  0  0  0  0  0  0  0
   -2.4570   -2.1098    1.2172 C   0  0  0  0  0  0  0  0  0  0  0  0
   -1.5600   -2.7438    1.7572 O   0  0  0  0  0  0  0  0  0  0  0  0
   -2.2870   -0.8898    0.7102 N   0  0  0  0  0  0  0  0  0  0  0  0
   -3.0820   -0.4218    0.2992 H   0  0  0  0  0  0  0  0  0  0  0  0
   -1.0240   -0.1468    0.7262 C   0  0  1  0  0  0  0  0  0  0  0  0
   -0.3583   -0.6100    1.4558 H   0  0  0  0  0  0  0  0  0  0  0  0
   -0.3739   -0.2459   -0.6675 C   0  0  0  0  0  0  0  0  0  0  0  0
   -1.0233   -0.8423   -1.3117 H   0  0  0  0  0  0  0  0  0  0  0  0
   -0.2918    0.7531   -1.0979 H   0  0  0  0  0  0  0  0  0  0  0  0
    1.0147   -0.9037   -0.6454 C   0  0  0  0  0  0  0  0  0  0  0  0
    0.9075   -1.9804   -0.5112 H   0  0  0  0  0  0  0  0  0  0  0  0
    1.5187   -0.7101   -1.5941 H   0  0  0  0  0  0  0  0  0  0  0  0
    1.8663   -0.3462    0.5007 C   0  0  0  0  0  0  0  0  0  0  0  0
    1.9761    0.7325    0.3846 H   0  0  0  0  0  0  0  0  0  0  0  0
    1.3784   -0.5582    1.4526 H   0  0  0  0  0  0  0  0  0  0  0  0
    3.2477   -0.9978    0.4846 C   0  0  0  0  0  0  0  0  0  0  0  0
    3.1417   -2.0731    0.6190 H   0  0  0  0  0  0  0  0  0  0  0  0
    3.7292   -0.8020   -0.4721 H   0  0  0  0  0  0  0  0  0  0  0  0
    4.0984   -0.4685    1.5567 N   0  0  0  0  0  0  0  0  0  0  0  0
    4.9958   -0.9297    1.5249 H   0  0  0  0  0  0  0  0  0  0  0  0
    4.2263    0.5240    1.4187 H   0  0  0  0  0  0  0  0  0  0  0  0
   -1.2712    1.3099    1.1517 C   0  0  0  0  0  0  0  0  0  0  0  0
   -2.2039    1.9448    0.6639 O   0  0  0  0  0  0  0  0  0  0  0  0
   -0.4306    1.8354    2.0503 N   0  0  0  0  0  0  0  0  0  0  0  0
    0.3001    1.2459    2.4139 H   0  0  0  0  0  0  0  0  0  0  0  0
   -0.5192    3.2082    2.5456 C   0  0  0  0  0  0  0  0  0  0  0  0
   -1.5166    3.3903    2.9518 H   0  0  0  0  0  0  0  0  0  0  0  0
    0.2240    3.3791    3.3257 H   0  0  0  0  0  0  0  0  0  0  0  0
   -0.3477    3.9067    1.7239 H   0  0  0  0  0  0  0  0  0  0  0  0
  5  6  2  0  0  0  0
  5  7  1  0  0  0  0
  2  3  1  0  0  0  0
  2  4  1  0  0  0  0
  2  5  1  0  0  0  0
  1  2  1  0  0  0  0
 26 27  2  0  0  0  0
 26 28  1  0  0  0  0
 23 24  1  0  0  0  0
 23 25  1  0  0  0  0
 20 21  1  0  0  0  0
 20 22  1  0  0  0  0
 20 23  1  0  0  0  0
 17 18  1  0  0  0  0
 17 19  1  0  0  0  0
 17 20  1  0  0  0  0
 14 15  1  0  0  0  0
 14 16  1  0  0  0  0
 14 17  1  0  0  0  0
 11 12  1  0  0  0  0
 11 13  1  0  0  0  0
 11 14  1  0  0  0  0
  9 10  1  0  0  0  0
  9 11  1  0  0  0  0
  9 26  1  0  0  0  0
  7  8  1  0  0  0  0
  7  9  1  0  0  0  0
 30 31  1  0  0  0  0
 30 32  1  0  0  0  0
 30 33  1  0  0  0  0
 28 29  1  0  0  0  0
 28 30  1  0  0  0  0
M  END
$$$$
default_name
  -OEChem-02102213163D

 33 32  0     1  0  0  0  0  0999 V2000
   -3.8420   -3.6918    1.5562 H   0  0  0  0  0  0  0  0  0  0  0  0
   -3.8430   -2.7008    1.1032 C   0  0  0  0  0  0  0  0  0  0  0  0
   -4.5510   -2.0608    1.6242 H   0  0  0  0  0  0  0  0  0  0  0  0
   -4.1140   -2.7798    0.0522 H   0  0  0  0  0  0  0  0  0  0  0  0
   -2.4570   -2.1098    1.2172 C   0  0  0  0  0  0  0  0  0  0  0  0
   -1.5600   -2.7438    1.7572 O   0  0  0  0  0  0  0  0  0  0  0  0
   -2.2870   -0.8898    0.7102 N   0  0  0  0  0  0  0  0  0  0  0  0
   -3.0820   -0.4218    0.2992 H   0  0  0  0  0  0  0  0  0  0  0  0
   -1.0240   -0.1468    0.7262 C   0  0  1  0  0  0  0  0  0  0  0  0
   -0.3583   -0.6100    1.4558 H   0  0  0  0  0  0  0  0  0  0  0  0
   -0.3739   -0.2459   -0.6675 C   0  0  0  0  0  0  0  0  0  0  0  0
   -1.0233   -0.8423   -1.3117 H   0  0  0  0  0  0  0  0  0  0  0  0
   -0.2918    0.7531   -1.0979 H   0  0  0  0  0  0  0  0  0  0  0  0
    1.0147   -0.9037   -0.6454 C   0  0  0  0  0  0  0  0  0  0  0  0
    0.9116   -1.9809   -0.7793 H   0  0  0  0  0  0  0  0  0  0  0  0
    1.6170   -0.4982   -1.4605 H   0  0  0  0  0  0  0  0  0  0  0  0
    1.7251   -0.6381    0.6867 C   0  0  0  0  0  0  0  0  0  0  0  0
    1.8287    0.4367    0.8388 H   0  0  0  0  0  0  0  0  0  0  0  0
    1.1388   -1.0624    1.5023 H   0  0  0  0  0  0  0  0  0  0  0  0
    3.1106   -1.2808    0.6725 C   0  0  0  0  0  0  0  0  0  0  0  0
    3.0087   -2.3566    0.5393 H   0  0  0  0  0  0  0  0  0  0  0  0
    3.6914   -0.8711   -0.1523 H   0  0  0  0  0  0  0  0  0  0  0  0
    3.8288   -1.0252    1.9264 N   0  0  0  0  0  0  0  0  0  0  0  0
    4.7318   -1.4747    1.8877 H   0  0  0  0  0  0  0  0  0  0  0  0
    3.9544   -0.0293    2.0392 H   0  0  0  0  0  0  0  0  0  0  0  0
   -1.2712    1.3099    1.1517 C   0  0  0  0  0  0  0  0  0  0  0  0
   -2.2039    1.9448    0.6639 O   0  0  0  0  0  0  0  0  0  0  0  0
   -0.4306    1.8354    2.0503 N   0  0  0  0  0  0  0  0  0  0  0  0
    0.3001    1.2459    2.4139 H   0  0  0  0  0  0  0  0  0  0  0  0
   -0.5192    3.2082    2.5456 C   0  0  0  0  0  0  0  0  0  0  0  0
   -1.5166    3.3903    2.9518 H   0  0  0  0  0  0  0  0  0  0  0  0
    0.2240    3.3791    3.3257 H   0  0  0  0  0  0  0  0  0  0  0  0
   -0.3477    3.9067    1.7239 H   0  0  0  0  0  0  0  0  0  0  0  0
  5  6  2  0  0  0  0
  5  7  1  0  0  0  0
  2  3  1  0  0  0  0
  2  4  1  0  0  0  0
  2  5  1  0  0  0  0
  1  2  1  0  0  0  0
 26 27  2  0  0  0  0
 26 28  1  0  0  0  0
 23 24  1  0  0  0  0
 23 25  1  0  0  0  0
 20 21  1  0  0  0  0
 20 22  1  0  0  0  0
 20 23  1  0  0  0  0
 17 18  1  0  0  0  0
 17 19  1  0  0  0  0
 17 20  1  0  0  0  0
 14 15  1  0  0  0  0
 14 16  1  0  0  0  0
 14 17  1  0  0  0  0
 11 12  1  0  0  0  0
 11 13  1  0  0  0  0
 11 14  1  0  0  0  0
  9 10  1  0  0  0  0
  9 11  1  0  0  0  0
  9 26  1  0  0  0  0
  7  8  1  0  0  0  0
  7  9  1  0  0  0  0
 30 31  1  0  0  0  0
 30 32  1  0  0  0  0
 30 33  1  0  0  0  0
 28 29  1  0  0  0  0
 28 30  1  0  0  0  0
M  END
$$$$
default_name
  -OEChem-02102213163D

 33 32  0     1  0  0  0  0  0999 V2000
   -3.8420   -3.6918    1.5562 H   0  0  0  0  0  0  0  0  0  0  0  0
   -3.8430   -2.7008    1.1032 C   0  0  0  0  0  0  0  0  0  0  0  0
   -4.5510   -2.0608    1.6242 H   0  0  0  0  0  0  0  0  0  0  0  0
   -4.1140   -2.7798    0.0522 H   0  0  0  0  0  0  0  0  0  0  0  0
   -2.4570   -2.1098    1.2172 C   0  0  0  0  0  0  0  0  0  0  0  0
   -1.5600   -2.7438    1.7572 O   0  0  0  0  0  0  0  0  0  0  0  0
   -2.2870   -0.8898    0.7102 N   0  0  0  0  0  0  0  0  0  0  0  0
   -3.0820   -0.4218    0.2992 H   0  0  0  0  0  0  0  0  0  0  0  0
   -1.0240   -0.1468    0.7262 C   0  0  1  0  0  0  0  0  0  0  0  0
   -0.3583   -0.6100    1.4558 H   0  0  0  0  0  0  0  0  0  0  0  0
   -0.3739   -0.2459   -0.6675 C   0  0  0  0  0  0  0  0  0  0  0  0
   -1.0233   -0.8423   -1.3117 H   0  0  0  0  0  0  0  0  0  0  0  0
   -0.2918    0.7531   -1.0979 H   0  0  0  0  0  0  0  0  0  0  0  0
    1.0147   -0.9037   -0.6454 C   0  0  0  0  0  0  0  0  0  0  0  0
    0.9452   -1.9186   -1.0379 H   0  0  0  0  0  0  0  0  0  0  0  0
    1.6963   -0.3244   -1.2710 H   0  0  0  0  0  0  0  0  0  0  0  0
    1.5691   -0.9640    0.7824 C   0  0  0  0  0  0  0  0  0  0  0  0
    1.6372    0.0443    1.1920 H   0  0  0  0  0  0  0  0  0  0  0  0
    0.9037   -1.5619    1.4059 H   0  0  0  0  0  0  0  0  0  0  0  0
    2.9585   -1.5987    0.7726 C   0  0  0  0  0  0  0  0  0  0  0  0
    2.8900   -2.6124    0.3812 H   0  0  0  0  0  0  0  0  0  0  0  0
    3.6197   -1.0128    0.1363 H   0  0  0  0  0  0  0  0  0  0  0  0
    3.5295   -1.6505    2.1234 N   0  0  0  0  0  0  0  0  0  0  0  0
    4.4387   -2.0870    2.0815 H   0  0  0  0  0  0  0  0  0  0  0  0
    3.6250   -0.7099    2.4791 H   0  0  0  0  0  0  0  0  0  0  0  0
   -1.2712    1.3099    1.1517 C   0  0  0  0  0  0  0  0  0  0  0  0
   -2.2039    1.9448    0.6639 O   0  0  0  0  0  0  0  0  0  0  0  0
   -0.4306    1.8354    2.0503 N   0  0  0  0  0  0  0  0  0  0  0  0
    0.3001    1.2459    2.4139 H   0  0  0  0  0  0  0  0  0  0  0  0
   -0.5192    3.2082    2.5456 C   0  0  0  0  0  0  0  0  0  0  0  0
   -1.5166    3.3903    2.9518 H   0  0  0  0  0  0  0  0  0  0  0  0
    0.2240    3.3791    3.3257 H   0  0  0  0  0  0  0  0  0  0  0  0
   -0.3477    3.9067    1.7239 H   0  0  0  0  0  0  0  0  0  0  0  0
  5  6  2  0  0  0  0
  5  7  1  0  0  0  0
  2  3  1  0  0  0  0
  2  4  1  0  0  0  0
  2  5  1  0  0  0  0
  1  2  1  0  0  0  0
 26 27  2  0  0  0  0
 26 28  1  0  0  0  0
 23 24  1  0  0  0  0
 23 25  1  0  0  0  0
 20 21  1  0  0  0  0
 20 22  1  0  0  0  0
 20 23  1  0  0  0  0
 17 18  1  0  0  0  0
 17 19  1  0  0  0  0
 17 20  1  0  0  0  0
 14 15  1  0  0  0  0
 14 16  1  0  0  0  0
 14 17  1  0  0  0  0
 11 12  1  0  0  0  0
 11 13  1  0  0  0  0
 11 14  1  0  0  0  0
  9 10  1  0  0  0  0
  9 11  1  0  0  0  0
  9 26  1  0  0  0  0
  7  8  1  0  0  0  0
  7  9  1  0  0  0  0
 30 31  1  0  0  0  0
 30 32  1  0  0  0  0
 30 33  1  0  0  0  0
 28 29  1  0  0  0  0
 28 30  1  0  0  0  0
M  END
$$$$
default_name
  -OEChem-02102213163D

 33 32  0     1  0  0  0  0  0999 V2000
   -3.8420   -3.6918    1.5562 H   0  0  0  0  0  0  0  0  0  0  0  0
   -3.8430   -2.7008    1.1032 C   0  0  0  0  0  0  0  0  0  0  0  0
   -4.5510   -2.0608    1.6242 H   0  0  0  0  0  0  0  0  0  0  0  0
   -4.1140   -2.7798    0.0522 H   0  0  0  0  0  0  0  0  0  0  0  0
   -2.4570   -2.1098    1.2172 C   0  0  0  0  0  0  0  0  0  0  0  0
   -1.5600   -2.7438    1.7572 O   0  0  0  0  0  0  0  0  0  0  0  0
   -2.2870   -0.8898    0.7102 N   0  0  0  0  0  0  0  0  0  0  0  0
   -3.0820   -0.4218    0.2992 H   0  0  0  0  0  0  0  0  0  0  0  0
   -1.0240   -0.1468    0.7262 C   0  0  1  0  0  0  0  0  0  0  0  0
   -0.3583   -0.6100    1.4558 H   0  0  0  0  0  0  0  0  0  0  0  0
   -0.3739   -0.2459   -0.6675 C   0  0  0  0  0  0  0  0  0  0  0  0
   -1.0233   -0.8423   -1.3117 H   0  0  0  0  0  0  0  0  0  0  0  0
   -0.2918    0.7531   -1.0979 H   0  0  0  0  0  0  0  0  0  0  0  0
    1.0147   -0.9037   -0.6454 C   0  0  0  0  0  0  0  0  0  0  0  0
    1.0061   -1.7978   -1.2694 H   0  0  0  0  0  0  0  0  0  0  0  0
    1.7513   -0.2005   -1.0385 H   0  0  0  0  0  0  0  0  0  0  0  0
    1.4091   -1.3018    0.7813 C   0  0  0  0  0  0  0  0  0  0  0  0
    1.4146   -0.4181    1.4202 H   0  0  0  0  0  0  0  0  0  0  0  0
    0.6892   -2.0227    1.1698 H   0  0  0  0  0  0  0  0  0  0  0  0
    2.8016   -1.9297    0.7781 C   0  0  0  0  0  0  0  0  0  0  0  0
    2.7939   -2.8229    0.1556 H   0  0  0  0  0  0  0  0  0  0  0  0
    3.5190   -1.2174    0.3739 H   0  0  0  0  0  0  0  0  0  0  0  0
    3.2209   -2.3017    2.1343 N   0  0  0  0  0  0  0  0  0  0  0  0
    4.1364   -2.7248    2.0929 H   0  0  0  0  0  0  0  0  0  0  0  0
    3.2606   -1.4714    2.7082 H   0  0  0  0  0  0  0  0  0  0  0  0
   -1.2712    1.3099    1.1517 C   0  0  0  0  0  0  0  0  0  0  0  0
   -2.2039    1.9448    0.6639 O   0  0  0  0  0  0  0  0  0  0  0  0
   -0.4306    1.8354    2.0503 N   0  0  0  0  0  0  0  0  0  0  0  0
    0.3001    1.2459    2.4139 H   0  0  0  0  0  0  0  0  0  0  0  0
   -0.5192    3.2082    2.5456 C   0  0  0  0  0  0  0  0  0  0  0  0
   -1.5166    3.3903    2.9518 H   0  0  0  0  0  0  0  0  0  0  0  0
    0.2240    3.3791    3.3257 H   0  0  0  0  0  0  0  0  0  0  0  0
   -0.3477    3.9067    1.7239 H   0  0  0  0  0  0  0  0  0  0  0  0
  5  6  2  0  0  0  0
  5  7  1  0  0  0  0
  2  3  1  0  0  0  0
  2  4  1  0  0  0  0
  2  5  1  0  0  0  0
  1  2  1  0  0  0  0
 26 27  2  0  0  0  0
 26 28  1  0  0  0  0
 23 24  1  0  0  0  0
 23 25  1  0  0  0  0
 20 21  1  0  0  0  0
 20 22  1  0  0  0  0
 20 23  1  0  0  0  0
 17 18  1  0  0  0  0
 17 19  1  0  0  0  0
 17 20  1  0  0  0  0
 14 15  1  0  0  0  0
 14 16  1  0  0  0  0
 14 17  1  0  0  0  0
 11 12  1  0  0  0  0
 11 13  1  0  0  0  0
 11 14  1  0  0  0  0
  9 10  1  0  0  0  0
  9 11  1  0  0  0  0
  9 26  1  0  0  0  0
  7  8  1  0  0  0  0
  7  9  1  0  0  0  0
 30 31  1  0  0  0  0
 30 32  1  0  0  0  0
 30 33  1  0  0  0  0
 28 29  1  0  0  0  0
 28 30  1  0  0  0  0
M  END
$$$$
default_name
  -OEChem-02102213163D

 33 32  0     1  0  0  0  0  0999 V2000
   -3.8420   -3.6918    1.5562 H   0  0  0  0  0  0  0  0  0  0  0  0
   -3.8430   -2.7008    1.1032 C   0  0  0  0  0  0  0  0  0  0  0  0
   -4.5510   -2.0608    1.6242 H   0  0  0  0  0  0  0  0  0  0  0  0
   -4.1140   -2.7798    0.0522 H   0  0  0  0  0  0  0  0  0  0  0  0
   -2.4570   -2.1098    1.2172 C   0  0  0  0  0  0  0  0  0  0  0  0
   -1.5600   -2.7438    1.7572 O   0  0  0  0  0  0  0  0  0  0  0  0
   -2.2870   -0.8898    0.7102 N   0  0  0  0  0  0  0  0  0  0  0  0
   -3.0820   -0.4218    0.2992 H   0  0  0  0  0  0  0  0  0  0  0  0
   -1.0240   -0.1468    0.7262 C   0  0  1  0  0  0  0  0  0  0  0  0
   -0.3583   -0.6100    1.4558 H   0  0  0  0  0  0  0  0  0  0  0  0
   -0.3739   -0.2459   -0.6675 C   0  0  0  0  0  0  0  0  0  0  0  0
   -1.0233   -0.8423   -1.3117 H   0  0  0  0  0  0  0  0  0  0  0  0
   -0.2918    0.7531   -1.0979 H   0  0  0  0  0  0  0  0  0  0  0  0
    1.0147   -0.9037   -0.6454 C   0  0  0  0  0  0  0  0  0  0  0  0
    1.0901   -1.6268   -1.4580 H   0  0  0  0  0  0  0  0  0  0  0  0
    1.7781   -0.1351   -0.7788 H   0  0  0  0  0  0  0  0  0  0  0  0
    1.2560   -1.6284    0.6836 C   0  0  0  0  0  0  0  0  0  0  0  0
    1.1759   -0.9189    1.5077 H   0  0  0  0  0  0  0  0  0  0  0  0
    0.5098   -2.4134    0.8103 H   0  0  0  0  0  0  0  0  0  0  0  0
    2.6506   -2.2513    0.6887 C   0  0  0  0  0  0  0  0  0  0  0  0
    2.7268   -2.9739   -0.1223 H   0  0  0  0  0  0  0  0  0  0  0  0
    3.3961   -1.4710    0.5444 H   0  0  0  0  0  0  0  0  0  0  0  0
    2.9240   -2.9343    1.9583 N   0  0  0  0  0  0  0  0  0  0  0  0
    3.8455   -3.3447    1.9214 H   0  0  0  0  0  0  0  0  0  0  0  0
    2.8861   -2.2619    2.7112 H   0  0  0  0  0  0  0  0  0  0  0  0
   -1.2712    1.3099    1.1517 C   0  0  0  0  0  0  0  0  0  0  0  0
   -2.2039    1.9448    0.6639 O   0  0  0  0  0  0  0  0  0  0  0  0
   -0.4306    1.8354    2.0503 N   0  0  0  0  0  0  0  0  0  0  0  0
    0.3001    1.2459    2.4139 H   0  0  0  0  0  0  0  0  0  0  0  0
   -0.5192    3.2082    2.5456 C   0  0  0  0  0  0  0  0  0  0  0  0
   -1.5166    3.3903    2.9518 H   0  0  0  0  0  0  0  0  0  0  0  0
    0.2240    3.3791    3.3257 H   0  0  0  0  0  0  0  0  0  0  0  0
   -0.3477    3.9067    1.7239 H   0  0  0  0  0  0  0  0  0  0  0  0
  5  6  2  0  0  0  0
  5  7  1  0  0  0  0
  2  3  1  0  0  0  0
  2  4  1  0  0  0  0
  2  5  1  0  0  0  0
  1  2  1  0  0  0  0
 26 27  2  0  0  0  0
 26 28  1  0  0  0  0
 23 24  1  0  0  0  0
 23 25  1  0  0  0  0
 20 21  1  0  0  0  0
 20 22  1  0  0  0  0
 20 23  1  0  0  0  0
 17 18  1  0  0  0  0
 17 19  1  0  0  0  0
 17 20  1  0  0  0  0
 14 15  1  0  0  0  0
 14 16  1  0  0  0  0
 14 17  1  0  0  0  0
 11 12  1  0  0  0  0
 11 13  1  0  0  0  0
 11 14  1  0  0  0  0
  9 10  1  0  0  0  0
  9 11  1  0  0  0  0
  9 26  1  0  0  0  0
  7  8  1  0  0  0  0
  7  9  1  0  0  0  0
 30 31  1  0  0  0  0
 30 32  1  0  0  0  0
 30 33  1  0  0  0  0
 28 29  1  0  0  0  0
 28 30  1  0  0  0  0
M  END
$$$$
default_name
  -OEChem-02102213163D

 33 32  0     1  0  0  0  0  0999 V2000
   -3.8420   -3.6918    1.5562 H   0  0  0  0  0  0  0  0  0  0  0  0
   -3.8430   -2.7008    1.1032 C   0  0  0  0  0  0  0  0  0  0  0  0
   -4.5510   -2.0608    1.6242 H   0  0  0  0  0  0  0  0  0  0  0  0
   -4.1140   -2.7798    0.0522 H   0  0  0  0  0  0  0  0  0  0  0  0
   -2.4570   -2.1098    1.2172 C   0  0  0  0  0  0  0  0  0  0  0  0
   -1.5600   -2.7438    1.7572 O   0  0  0  0  0  0  0  0  0  0  0  0
   -2.2870   -0.8898    0.7102 N   0  0  0  0  0  0  0  0  0  0  0  0
   -3.0820   -0.4218    0.2992 H   0  0  0  0  0  0  0  0  0  0  0  0
   -1.0240   -0.1468    0.7262 C   0  0  1  0  0  0  0  0  0  0  0  0
   -0.3583   -0.6100    1.4558 H   0  0  0  0  0  0  0  0  0  0  0  0
   -0.3739   -0.2459   -0.6675 C   0  0  0  0  0  0  0  0  0  0  0  0
   -1.0233   -0.8423   -1.3117 H   0  0  0  0  0  0  0  0  0  0  0  0
   -0.2918    0.7531   -1.0979 H   0  0  0  0  0  0  0  0  0  0  0  0
    1.0147   -0.9037   -0.6454 C   0  0  0  0  0  0  0  0  0  0  0  0
    1.1916   -1.4171   -1.5909 H   0  0  0  0  0  0  0  0  0  0  0  0
    1.7751   -0.1325   -0.5098 H   0  0  0  0  0  0  0  0  0  0  0  0
    1.1200   -1.9217    0.4958 C   0  0  0  0  0  0  0  0  0  0  0  0
    0.9376   -1.4241    1.4488 H   0  0  0  0  0  0  0  0  0  0  0  0
    0.3779   -2.7074    0.3518 H   0  0  0  0  0  0  0  0  0  0  0  0
    2.5160   -2.5415    0.5103 C   0  0  0  0  0  0  0  0  0  0  0  0
    2.6934   -3.0549   -0.4334 H   0  0  0  0  0  0  0  0  0  0  0  0
    3.2595   -1.7563    0.6362 H   0  0  0  0  0  0  0  0  0  0  0  0
    2.6590   -3.5054    1.6075 N   0  0  0  0  0  0  0  0  0  0  0  0
    3.5858   -3.9044    1.5784 H   0  0  0  0  0  0  0  0  0  0  0  0
    2.5269   -3.0276    2.4876 H   0  0  0  0  0  0  0  0  0  0  0  0
   -1.2712    1.3099    1.1517 C   0  0  0  0  0  0  0  0  0  0  0  0
   -2.2039    1.9448    0.6639 O   0  0  0  0  0  0  0  0  0  0  0  0
   -0.4306    1.8354    2.0503 N   0  0  0  0  0  0  0  0  0  0  0  0
    0.3001    1.2459    2.4139 H   0  0  0  0  0  0  0  0  0  0  0  0
   -0.5192    3.2082    2.5456 C   0  0  0  0  0  0  0  0  0  0  0  0
   -1.5166    3.3903    2.9518 H   0  0  0  0  0  0  0  0  0  0  0  0
    0.2240    3.3791    3.3257 H   0  0  0  0  0  0  0  0  0  0  0  0
   -0.3477    3.9067    1.7239 H   0  0  0  0  0  0  0  0  0  0  0  0
  5  6  2  0  0  0  0
  5  7  1  0  0  0  0
  2  3  1  0  0  0  0
  2  4  1  0  0  0  0
  2  5  1  0  0  0  0
  1  2  1  0  0  0  0
 26 27  2  0  0  0  0
 26 28  1  0  0  0  0
 23 24  1  0  0  0  0
 23 25  1  0  0  0  0
 20 21  1  0  0  0  0
 20 22  1  0  0  0  0
 20 23  1  0  0  0  0
 17 18  1  0  0  0  0
 17 19  1  0  0  0  0
 17 20  1  0  0  0  0
 14 15  1  0  0  0  0
 14 16  1  0  0  0  0
 14 17  1  0  0  0  0
 11 12  1  0  0  0  0
 11 13  1  0  0  0  0
 11 14  1  0  0  0  0
  9 10  1  0  0  0  0
  9 11  1  0  0  0  0
  9 26  1  0  0  0  0
  7  8  1  0  0  0  0
  7  9  1  0  0  0  0
 30 31  1  0  0  0  0
 30 32  1  0  0  0  0
 30 33  1  0  0  0  0
 28 29  1  0  0  0  0
 28 30  1  0  0  0  0
M  END
$$$$
default_name
  -OEChem-02102213163D

 33 32  0     1  0  0  0  0  0999 V2000
   -3.8420   -3.6918    1.5562 H   0  0  0  0  0  0  0  0  0  0  0  0
   -3.8430   -2.7008    1.1032 C   0  0  0  0  0  0  0  0  0  0  0  0
   -4.5510   -2.0608    1.6242 H   0  0  0  0  0  0  0  0  0  0  0  0
   -4.1140   -2.7798    0.0522 H   0  0  0  0  0  0  0  0  0  0  0  0
   -2.4570   -2.1098    1.2172 C   0  0  0  0  0  0  0  0  0  0  0  0
   -1.5600   -2.7438    1.7572 O   0  0  0  0  0  0  0  0  0  0  0  0
   -2.2870   -0.8898    0.7102 N   0  0  0  0  0  0  0  0  0  0  0  0
   -3.0820   -0.4218    0.2992 H   0  0  0  0  0  0  0  0  0  0  0  0
   -1.0240   -0.1468    0.7262 C   0  0  1  0  0  0  0  0  0  0  0  0
   -0.3583   -0.6100    1.4558 H   0  0  0  0  0  0  0  0  0  0  0  0
   -0.3739   -0.2459   -0.6675 C   0  0  0  0  0  0  0  0  0  0  0  0
   -1.0233   -0.8423   -1.3117 H   0  0  0  0  0  0  0  0  0  0  0  0
   -0.2918    0.7531   -1.0979 H   0  0  0  0  0  0  0  0  0  0  0  0
    1.0147   -0.9037   -0.6454 C   0  0  0  0  0  0  0  0  0  0  0  0
    1.3035   -1.1832   -1.6590 H   0  0  0  0  0  0  0  0  0  0  0  0
    1.7424   -0.1929   -0.2496 H   0  0  0  0  0  0  0  0  0  0  0  0
    1.0106   -2.1615    0.2308 C   0  0  0  0  0  0  0  0  0  0  0  0
    0.7158   -1.8991    1.2472 H   0  0  0  0  0  0  0  0  0  0  0  0
    0.3023   -2.8846   -0.1745 H   0  0  0  0  0  0  0  0  0  0  0  0
    2.4067   -2.7807    0.2552 C   0  0  0  0  0  0  0  0  0  0  0  0
    2.6958   -3.0606   -0.7565 H   0  0  0  0  0  0  0  0  0  0  0  0
    3.1185   -2.0538    0.6431 H   0  0  0  0  0  0  0  0  0  0  0  0
    2.4441   -3.9759    1.1057 N   0  0  0  0  0  0  0  0  0  0  0  0
    3.3750   -4.3658    1.0875 H   0  0  0  0  0  0  0  0  0  0  0  0
    2.2077   -3.7162    2.0528 H   0  0  0  0  0  0  0  0  0  0  0  0
   -1.2712    1.3099    1.1517 C   0  0  0  0  0  0  0  0  0  0  0  0
   -2.2039    1.9448    0.6639 O   0  0  0  0  0  0  0  0  0  0  0  0
   -0.4306    1.8354    2.0503 N   0  0  0  0  0  0  0  0  0  0  0  0
    0.3001    1.2459    2.4139 H   0  0  0  0  0  0  0  0  0  0  0  0
   -0.5192    3.2082    2.5456 C   0  0  0  0  0  0  0  0  0  0  0  0
   -1.5166    3.3903    2.9518 H   0  0  0  0  0  0  0  0  0  0  0  0
    0.2240    3.3791    3.3257 H   0  0  0  0  0  0  0  0  0  0  0  0
   -0.3477    3.9067    1.7239 H   0  0  0  0  0  0  0  0  0  0  0  0
  5  6  2  0  0  0  0
  5  7  1  0  0  0  0
  2  3  1  0  0  0  0
  2  4  1  0  0  0  0
  2  5  1  0  0  0  0
  1  2  1  0  0  0  0
 26 27  2  0  0  0  0
 26 28  1  0  0  0  0
 23 24  1  0  0  0  0
 23 25  1  0  0  0  0
 20 21  1  0  0  0  0
 20 22  1  0  0  0  0
 20 23  1  0  0  0  0
 17 18  1  0  0  0  0
 17 19  1  0  0  0  0
 17 20  1  0  0  0  0
 14 15  1  0  0  0  0
 14 16  1  0  0  0  0
 14 17  1  0  0  0  0
 11 12  1  0  0  0  0
 11 13  1  0  0  0  0
 11 14  1  0  0  0  0
  9 10  1  0  0  0  0
  9 11  1  0  0  0  0
  9 26  1  0  0  0  0
  7  8  1  0  0  0  0
  7  9  1  0  0  0  0
 30 31  1  0  0  0  0
 30 32  1  0  0  0  0
 30 33  1  0  0  0  0
 28 29  1  0  0  0  0
 28 30  1  0  0  0  0
M  END
$$$$
default_name
  -OEChem-02102213163D

 33 32  0     1  0  0  0  0  0999 V2000
   -3.8420   -3.6918    1.5562 H   0  0  0  0  0  0  0  0  0  0  0  0
   -3.8430   -2.7008    1.1032 C   0  0  0  0  0  0  0  0  0  0  0  0
   -4.5510   -2.0608    1.6242 H   0  0  0  0  0  0  0  0  0  0  0  0
   -4.1140   -2.7798    0.0522 H   0  0  0  0  0  0  0  0  0  0  0  0
   -2.4570   -2.1098    1.2172 C   0  0  0  0  0  0  0  0  0  0  0  0
   -1.5600   -2.7438    1.7572 O   0  0  0  0  0  0  0  0  0  0  0  0
   -2.2870   -0.8898    0.7102 N   0  0  0  0  0  0  0  0  0  0  0  0
   -3.0820   -0.4218    0.2992 H   0  0  0  0  0  0  0  0  0  0  0  0
   -1.0240   -0.1468    0.7262 C   0  0  1  0  0  0  0  0  0  0  0  0
   -0.3583   -0.6100    1.4558 H   0  0  0  0  0  0  0  0  0  0  0  0
   -0.3739   -0.2459   -0.6675 C   0  0  0  0  0  0  0  0  0  0  0  0
   -1.0233   -0.8423   -1.3117 H   0  0  0  0  0  0  0  0  0  0  0  0
   -0.2918    0.7531   -1.0979 H   0  0  0  0  0  0  0  0  0  0  0  0
    1.0147   -0.9037   -0.6454 C   0  0  0  0  0  0  0  0  0  0  0  0
    1.4182   -0.9409   -1.6577 H   0  0  0  0  0  0  0  0  0  0  0  0
    1.6821   -0.3122   -0.0160 H   0  0  0  0  0  0  0  0  0  0  0  0
    0.9352   -2.3315   -0.0934 C   0  0  0  0  0  0  0  0  0  0  0  0
    0.5256   -2.3116    0.9169 H   0  0  0  0  0  0  0  0  0  0  0  0
    0.2882   -2.9330   -0.7327 H   0  0  0  0  0  0  0  0  0  0  0  0
    2.3304   -2.9525   -0.0592 C   0  0  0  0  0  0  0  0  0  0  0  0
    2.7340   -2.9904   -1.0697 H   0  0  0  0  0  0  0  0  0  0  0  0
    2.9826   -2.3433    0.5644 H   0  0  0  0  0  0  0  0  0  0  0  0
    2.2938   -4.3139    0.4872 N   0  0  0  0  0  0  0  0  0  0  0  0
    3.2276   -4.6974    0.4820 H   0  0  0  0  0  0  0  0  0  0  0  0
    1.9500   -4.2808    1.4364 H   0  0  0  0  0  0  0  0  0  0  0  0
   -1.2712    1.3099    1.1517 C   0  0  0  0  0  0  0  0  0  0  0  0
   -2.2039    1.9448    0.6639 O   0  0  0  0  0  0  0  0  0  0  0  0
   -0.4306    1.8354    2.0503 N   0  0  0  0  0  0  0  0  0  0  0  0
    0.3001    1.2459    2.4139 H   0  0  0  0  0  0  0  0  0  0  0  0
   -0.5192    3.2082    2.5456 C   0  0  0  0  0  0  0  0  0  0  0  0
   -1.5166    3.3903    2.9518 H   0  0  0  0  0  0  0  0  0  0  0  0
    0.2240    3.3791    3.3257 H   0  0  0  0  0  0  0  0  0  0  0  0
   -0.3477    3.9067    1.7239 H   0  0  0  0  0  0  0  0  0  0  0  0
  5  6  2  0  0  0  0
  5  7  1  0  0  0  0
  2  3  1  0  0  0  0
  2  4  1  0  0  0  0
  2  5  1  0  0  0  0
  1  2  1  0  0  0  0
 26 27  2  0  0  0  0
 26 28  1  0  0  0  0
 23 24  1  0  0  0  0
 23 25  1  0  0  0  0
 20 21  1  0  0  0  0
 20 22  1  0  0  0  0
 20 23  1  0  0  0  0
 17 18  1  0  0  0  0
 17 19  1  0  0  0  0
 17 20  1  0  0  0  0
 14 15  1  0  0  0  0
 14 16  1  0  0  0  0
 14 17  1  0  0  0  0
 11 12  1  0  0  0  0
 11 13  1  0  0  0  0
 11 14  1  0  0  0  0
  9 10  1  0  0  0  0
  9 11  1  0  0  0  0
  9 26  1  0  0  0  0
  7  8  1  0  0  0  0
  7  9  1  0  0  0  0
 30 31  1  0  0  0  0
 30 32  1  0  0  0  0
 30 33  1  0  0  0  0
 28 29  1  0  0  0  0
 28 30  1  0  0  0  0
M  END
$$$$
default_name
  -OEChem-02102213163D

 33 32  0     1  0  0  0  0  0999 V2000
   -3.8420   -3.6918    1.5562 H   0  0  0  0  0  0  0  0  0  0  0  0
   -3.8430   -2.7008    1.1032 C   0  0  0  0  0  0  0  0  0  0  0  0
   -4.5510   -2.0608    1.6242 H   0  0  0  0  0  0  0  0  0  0  0  0
   -4.1140   -2.7798    0.0522 H   0  0  0  0  0  0  0  0  0  0  0  0
   -2.4570   -2.1098    1.2172 C   0  0  0  0  0  0  0  0  0  0  0  0
   -1.5600   -2.7438    1.7572 O   0  0  0  0  0  0  0  0  0  0  0  0
   -2.2870   -0.8898    0.7102 N   0  0  0  0  0  0  0  0  0  0  0  0
   -3.0820   -0.4218    0.2992 H   0  0  0  0  0  0  0  0  0  0  0  0
   -1.0240   -0.1468    0.7262 C   0  0  1  0  0  0  0  0  0  0  0  0
   -0.3583   -0.6100    1.4558 H   0  0  0  0  0  0  0  0  0  0  0  0
   -0.3739   -0.2459   -0.6675 C   0  0  0  0  0  0  0  0  0  0  0  0
   -1.0233   -0.8423   -1.3117 H   0  0  0  0  0  0  0  0  0  0  0  0
   -0.2918    0.7531   -1.0979 H   0  0  0  0  0  0  0  0  0  0  0  0
    1.0147   -0.9037   -0.6454 C   0  0  0  0  0  0  0  0  0  0  0  0
    1.5280   -0.7067   -1.5870 H   0  0  0  0  0  0  0  0  0  0  0  0
    1.5985   -0.4823    0.1750 H   0  0  0  0  0  0  0  0  0  0  0  0
    0.8989   -2.4203   -0.4547 C   0  0  0  0  0  0  0  0  0  0  0  0
    0.3800   -2.6335    0.4803 H   0  0  0  0  0  0  0  0  0  0  0  0
    0.3367   -2.8492   -1.2847 H   0  0  0  0  0  0  0  0  0  0  0  0
    2.2921   -3.0451   -0.4116 C   0  0  0  0  0  0  0  0  0  0  0  0
    2.8054   -2.8493   -1.3516 H   0  0  0  0  0  0  0  0  0  0  0  0
    2.8611   -2.6051    0.4057 H   0  0  0  0  0  0  0  0  0  0  0  0
    2.2185   -4.4962   -0.2060 N   0  0  0  0  0  0  0  0  0  0  0  0
    3.1534   -4.8767   -0.1967 H   0  0  0  0  0  0  0  0  0  0  0  0
    1.7715   -4.6830    0.6804 H   0  0  0  0  0  0  0  0  0  0  0  0
   -1.2712    1.3099    1.1517 C   0  0  0  0  0  0  0  0  0  0  0  0
   -2.2039    1.9448    0.6639 O   0  0  0  0  0  0  0  0  0  0  0  0
   -0.4306    1.8354    2.0503 N   0  0  0  0  0  0  0  0  0  0  0  0
    0.3001    1.2459    2.4139 H   0  0  0  0  0  0  0  0  0  0  0  0
   -0.5192    3.2082    2.5456 C   0  0  0  0  0  0  0  0  0  0  0  0
   -1.5166    3.3903    2.9518 H   0  0  0  0  0  0  0  0  0  0  0  0
    0.2240    3.3791    3.3257 H   0  0  0  0  0  0  0  0  0  0  0  0
   -0.3477    3.9067    1.7239 H   0  0  0  0  0  0  0  0  0  0  0  0
  5  6  2  0  0  0  0
  5  7  1  0  0  0  0
  2  3  1  0  0  0  0
  2  4  1  0  0  0  0
  2  5  1  0  0  0  0
  1  2  1  0  0  0  0
 26 27  2  0  0  0  0
 26 28  1  0  0  0  0
 23 24  1  0  0  0  0
 23 25  1  0  0  0  0
 20 21  1  0  0  0  0
 20 22  1  0  0  0  0
 20 23  1  0  0  0  0
 17 18  1  0  0  0  0
 17 19  1  0  0  0  0
 17 20  1  0  0  0  0
 14 15  1  0  0  0  0
 14 16  1  0  0  0  0
 14 17  1  0  0  0  0
 11 12  1  0  0  0  0
 11 13  1  0  0  0  0
 11 14  1  0  0  0  0
  9 10  1  0  0  0  0
  9 11  1  0  0  0  0
  9 26  1  0  0  0  0
  7  8  1  0  0  0  0
  7  9  1  0  0  0  0
 30 31  1  0  0  0  0
 30 32  1  0  0  0  0
 30 33  1  0  0  0  0
 28 29  1  0  0  0  0
 28 30  1  0  0  0  0
M  END
$$$$
default_name
  -OEChem-02102213163D

 33 32  0     1  0  0  0  0  0999 V2000
   -3.8420   -3.6918    1.5562 H   0  0  0  0  0  0  0  0  0  0  0  0
   -3.8430   -2.7008    1.1032 C   0  0  0  0  0  0  0  0  0  0  0  0
   -4.5510   -2.0608    1.6242 H   0  0  0  0  0  0  0  0  0  0  0  0
   -4.1140   -2.7798    0.0522 H   0  0  0  0  0  0  0  0  0  0  0  0
   -2.4570   -2.1098    1.2172 C   0  0  0  0  0  0  0  0  0  0  0  0
   -1.5600   -2.7438    1.7572 O   0  0  0  0  0  0  0  0  0  0  0  0
   -2.2870   -0.8898    0.7102 N   0  0  0  0  0  0  0  0  0  0  0  0
   -3.0820   -0.4218    0.2992 H   0  0  0  0  0  0  0  0  0  0  0  0
   -1.0240   -0.1468    0.7262 C   0  0  1  0  0  0  0  0  0  0  0  0
   -0.3583   -0.6100    1.4558 H   0  0  0  0  0  0  0  0  0  0  0  0
   -0.3739   -0.2459   -0.6675 C   0  0  0  0  0  0  0  0  0  0  0  0
   -1.0233   -0.8423   -1.3117 H   0  0  0  0  0  0  0  0  0  0  0  0
   -0.2918    0.7531   -1.0979 H   0  0  0  0  0  0  0  0  0  0  0  0
    1.0147   -0.9037   -0.6454 C   0  0  0  0  0  0  0  0  0  0  0  0
    1.6254   -0.4966   -1.4518 H   0  0  0  0  0  0  0  0  0  0  0  0
    1.4972   -0.6916    0.3104 H   0  0  0  0  0  0  0  0  0  0  0  0
    0.9043   -2.4216   -0.8285 C   0  0  0  0  0  0  0  0  0  0  0  0
    0.2890   -2.8429   -0.0328 H   0  0  0  0  0  0  0  0  0  0  0  0
    0.4443   -2.6390   -1.7929 H   0  0  0  0  0  0  0  0  0  0  0  0
    2.2945   -3.0523   -0.7778 C   0  0  0  0  0  0  0  0  0  0  0  0
    2.9050   -2.6468   -1.5830 H   0  0  0  0  0  0  0  0  0  0  0  0
    2.7623   -2.8213    0.1777 H   0  0  0  0  0  0  0  0  0  0  0  0
    2.2232   -4.5105   -0.9265 N   0  0  0  0  0  0  0  0  0  0  0  0
    3.1577   -4.8914   -0.9025 H   0  0  0  0  0  0  0  0  0  0  0  0
    1.6843   -4.8953   -0.1637 H   0  0  0  0  0  0  0  0  0  0  0  0
   -1.2712    1.3099    1.1517 C   0  0  0  0  0  0  0  0  0  0  0  0
   -2.2039    1.9448    0.6639 O   0  0  0  0  0  0  0  0  0  0  0  0
   -0.4306    1.8354    2.0503 N   0  0  0  0  0  0  0  0  0  0  0  0
    0.3001    1.2459    2.4139 H   0  0  0  0  0  0  0  0  0  0  0  0
   -0.5192    3.2082    2.5456 C   0  0  0  0  0  0  0  0  0  0  0  0
   -1.5166    3.3903    2.9518 H   0  0  0  0  0  0  0  0  0  0  0  0
    0.2240    3.3791    3.3257 H   0  0  0  0  0  0  0  0  0  0  0  0
   -0.3477    3.9067    1.7239 H   0  0  0  0  0  0  0  0  0  0  0  0
  5  6  2  0  0  0  0
  5  7  1  0  0  0  0
  2  3  1  0  0  0  0
  2  4  1  0  0  0  0
  2  5  1  0  0  0  0
  1  2  1  0  0  0  0
 26 27  2  0  0  0  0
 26 28  1  0  0  0  0
 23 24  1  0  0  0  0
 23 25  1  0  0  0  0
 20 21  1  0  0  0  0
 20 22  1  0  0  0  0
 20 23  1  0  0  0  0
 17 18  1  0  0  0  0
 17 19  1  0  0  0  0
 17 20  1  0  0  0  0
 14 15  1  0  0  0  0
 14 16  1  0  0  0  0
 14 17  1  0  0  0  0
 11 12  1  0  0  0  0
 11 13  1  0  0  0  0
 11 14  1  0  0  0  0
  9 10  1  0  0  0  0
  9 11  1  0  0  0  0
  9 26  1  0  0  0  0
  7  8  1  0  0  0  0
  7  9  1  0  0  0  0
 30 31  1  0  0  0  0
 30 32  1  0  0  0  0
 30 33  1  0  0  0  0
 28 29  1  0  0  0  0
 28 30  1  0  0  0  0
M  END
$$$$
default_name
  -OEChem-02102213163D

 33 32  0     1  0  0  0  0  0999 V2000
   -3.8420   -3.6918    1.5562 H   0  0  0  0  0  0  0  0  0  0  0  0
   -3.8430   -2.7008    1.1032 C   0  0  0  0  0  0  0  0  0  0  0  0
   -4.5510   -2.0608    1.6242 H   0  0  0  0  0  0  0  0  0  0  0  0
   -4.1140   -2.7798    0.0522 H   0  0  0  0  0  0  0  0  0  0  0  0
   -2.4570   -2.1098    1.2172 C   0  0  0  0  0  0  0  0  0  0  0  0
   -1.5600   -2.7438    1.7572 O   0  0  0  0  0  0  0  0  0  0  0  0
   -2.2870   -0.8898    0.7102 N   0  0  0  0  0  0  0  0  0  0  0  0
   -3.0820   -0.4218    0.2992 H   0  0  0  0  0  0  0  0  0  0  0  0
   -1.0240   -0.1468    0.7262 C   0  0  1  0  0  0  0  0  0  0  0  0
   -0.3583   -0.6100    1.4558 H   0  0  0  0  0  0  0  0  0  0  0  0
   -0.3739   -0.2459   -0.6675 C   0  0  0  0  0  0  0  0  0  0  0  0
   -1.0233   -0.8423   -1.3117 H   0  0  0  0  0  0  0  0  0  0  0  0
   -0.2918    0.7531   -1.0979 H   0  0  0  0  0  0  0  0  0  0  0  0
    1.0147   -0.9037   -0.6454 C   0  0  0  0  0  0  0  0  0  0  0  0
    1.7037   -0.3250   -1.2612 H   0  0  0  0  0  0  0  0  0  0  0  0
    1.3851   -0.9258    0.3811 H   0  0  0  0  0  0  0  0  0  0  0  0
    0.9508   -2.3355   -1.1892 C   0  0  0  0  0  0  0  0  0  0  0  0
    0.2587   -2.9255   -0.5875 H   0  0  0  0  0  0  0  0  0  0  0  0
    0.6038   -2.3167   -2.2227 H   0  0  0  0  0  0  0  0  0  0  0  0
    2.3374   -2.9737   -1.1330 C   0  0  0  0  0  0  0  0  0  0  0  0
    3.0261   -2.3967   -1.7481 H   0  0  0  0  0  0  0  0  0  0  0  0
    2.6930   -2.9771   -0.1040 H   0  0  0  0  0  0  0  0  0  0  0  0
    2.3076   -4.3557   -1.6253 N   0  0  0  0  0  0  0  0  0  0  0  0
    3.2400   -4.7405   -1.5871 H   0  0  0  0  0  0  0  0  0  0  0  0
    1.6944   -4.9033   -1.0384 H   0  0  0  0  0  0  0  0  0  0  0  0
   -1.2712    1.3099    1.1517 C   0  0  0  0  0  0  0  0  0  0  0  0
   -2.2039    1.9448    0.6639 O   0  0  0  0  0  0  0  0  0  0  0  0
   -0.4306    1.8354    2.0503 N   0  0  0  0  0  0  0  0  0  0  0  0
    0.3001    1.2459    2.4139 H   0  0  0  0  0  0  0  0  0  0  0  0
   -0.5192    3.2082    2.5456 C   0  0  0  0  0  0  0  0  0  0  0  0
   -1.5166    3.3903    2.9518 H   0  0  0  0  0  0  0  0  0  0  0  0
    0.2240    3.3791    3.3257 H   0  0  0  0  0  0  0  0  0  0  0  0
   -0.3477    3.9067    1.7239 H   0  0  0  0  0  0  0  0  0  0  0  0
  5  6  2  0  0  0  0
  5  7  1  0  0  0  0
  2  3  1  0  0  0  0
  2  4  1  0  0  0  0
  2  5  1  0  0  0  0
  1  2  1  0  0  0  0
 26 27  2  0  0  0  0
 26 28  1  0  0  0  0
 23 24  1  0  0  0  0
 23 25  1  0  0  0  0
 20 21  1  0  0  0  0
 20 22  1  0  0  0  0
 20 23  1  0  0  0  0
 17 18  1  0  0  0  0
 17 19  1  0  0  0  0
 17 20  1  0  0  0  0
 14 15  1  0  0  0  0
 14 16  1  0  0  0  0
 14 17  1  0  0  0  0
 11 12  1  0  0  0  0
 11 13  1  0  0  0  0
 11 14  1  0  0  0  0
  9 10  1  0  0  0  0
  9 11  1  0  0  0  0
  9 26  1  0  0  0  0
  7  8  1  0  0  0  0
  7  9  1  0  0  0  0
 30 31  1  0  0  0  0
 30 32  1  0  0  0  0
 30 33  1  0  0  0  0
 28 29  1  0  0  0  0
 28 30  1  0  0  0  0
M  END
$$$$
default_name
  -OEChem-02102213163D

 33 32  0     1  0  0  0  0  0999 V2000
   -3.8420   -3.6918    1.5562 H   0  0  0  0  0  0  0  0  0  0  0  0
   -3.8430   -2.7008    1.1032 C   0  0  0  0  0  0  0  0  0  0  0  0
   -4.5510   -2.0608    1.6242 H   0  0  0  0  0  0  0  0  0  0  0  0
   -4.1140   -2.7798    0.0522 H   0  0  0  0  0  0  0  0  0  0  0  0
   -2.4570   -2.1098    1.2172 C   0  0  0  0  0  0  0  0  0  0  0  0
   -1.5600   -2.7438    1.7572 O   0  0  0  0  0  0  0  0  0  0  0  0
   -2.2870   -0.8898    0.7102 N   0  0  0  0  0  0  0  0  0  0  0  0
   -3.0820   -0.4218    0.2992 H   0  0  0  0  0  0  0  0  0  0  0  0
   -1.0240   -0.1468    0.7262 C   0  0  1  0  0  0  0  0  0  0  0  0
   -0.3583   -0.6100    1.4558 H   0  0  0  0  0  0  0  0  0  0  0  0
   -0.3739   -0.2459   -0.6675 C   0  0  0  0  0  0  0  0  0  0  0  0
   -1.0233   -0.8423   -1.3117 H   0  0  0  0  0  0  0  0  0  0  0  0
   -0.2918    0.7531   -1.0979 H   0  0  0  0  0  0  0  0  0  0  0  0
    1.0147   -0.9037   -0.6454 C   0  0  0  0  0  0  0  0  0  0  0  0
    1.7575   -0.2035   -1.0284 H   0  0  0  0  0  0  0  0  0  0  0  0
    1.2699   -1.1690    0.3822 H   0  0  0  0  0  0  0  0  0  0  0  0
    1.0354   -2.1677   -1.5123 C   0  0  0  0  0  0  0  0  0  0  0  0
    0.2912   -2.8756   -1.1460 H   0  0  0  0  0  0  0  0  0  0  0  0
    0.8043   -1.9042   -2.5449 H   0  0  0  0  0  0  0  0  0  0  0  0
    2.4179   -2.8144   -1.4530 C   0  0  0  0  0  0  0  0  0  0  0  0
    3.1604   -2.1160   -1.8357 H   0  0  0  0  0  0  0  0  0  0  0  0
    2.6578   -3.0620   -0.4203 H   0  0  0  0  0  0  0  0  0  0  0  0
    2.4659   -4.0425   -2.2547 N   0  0  0  0  0  0  0  0  0  0  0  0
    3.3949   -4.4344   -2.2041 H   0  0  0  0  0  0  0  0  0  0  0  0
    1.8011   -4.7065   -1.8839 H   0  0  0  0  0  0  0  0  0  0  0  0
   -1.2712    1.3099    1.1517 C   0  0  0  0  0  0  0  0  0  0  0  0
   -2.2039    1.9448    0.6639 O   0  0  0  0  0  0  0  0  0  0  0  0
   -0.4306    1.8354    2.0503 N   0  0  0  0  0  0  0  0  0  0  0  0
    0.3001    1.2459    2.4139 H   0  0  0  0  0  0  0  0  0  0  0  0
   -0.5192    3.2082    2.5456 C   0  0  0  0  0  0  0  0  0  0  0  0
   -1.5166    3.3903    2.9518 H   0  0  0  0  0  0  0  0  0  0  0  0
    0.2240    3.3791    3.3257 H   0  0  0  0  0  0  0  0  0  0  0  0
   -0.3477    3.9067    1.7239 H   0  0  0  0  0  0  0  0  0  0  0  0
  5  6  2  0  0  0  0
  5  7  1  0  0  0  0
  2  3  1  0  0  0  0
  2  4  1  0  0  0  0
  2  5  1  0  0  0  0
  1  2  1  0  0  0  0
 26 27  2  0  0  0  0
 26 28  1  0  0  0  0
 23 24  1  0  0  0  0
 23 25  1  0  0  0  0
 20 21  1  0  0  0  0
 20 22  1  0  0  0  0
 20 23  1  0  0  0  0
 17 18  1  0  0  0  0
 17 19  1  0  0  0  0
 17 20  1  0  0  0  0
 14 15  1  0  0  0  0
 14 16  1  0  0  0  0
 14 17  1  0  0  0  0
 11 12  1  0  0  0  0
 11 13  1  0  0  0  0
 11 14  1  0  0  0  0
  9 10  1  0  0  0  0
  9 11  1  0  0  0  0
  9 26  1  0  0  0  0
  7  8  1  0  0  0  0
  7  9  1  0  0  0  0
 30 31  1  0  0  0  0
 30 32  1  0  0  0  0
 30 33  1  0  0  0  0
 28 29  1  0  0  0  0
 28 30  1  0  0  0  0
M  END
$$$$
default_name
  -OEChem-02102213163D

 33 32  0     1  0  0  0  0  0999 V2000
   -3.8420   -3.6918    1.5562 H   0  0  0  0  0  0  0  0  0  0  0  0
   -3.8430   -2.7008    1.1032 C   0  0  0  0  0  0  0  0  0  0  0  0
   -4.5510   -2.0608    1.6242 H   0  0  0  0  0  0  0  0  0  0  0  0
   -4.1140   -2.7798    0.0522 H   0  0  0  0  0  0  0  0  0  0  0  0
   -2.4570   -2.1098    1.2172 C   0  0  0  0  0  0  0  0  0  0  0  0
   -1.5600   -2.7438    1.7572 O   0  0  0  0  0  0  0  0  0  0  0  0
   -2.2870   -0.8898    0.7102 N   0  0  0  0  0  0  0  0  0  0  0  0
   -3.0820   -0.4218    0.2992 H   0  0  0  0  0  0  0  0  0  0  0  0
   -1.0240   -0.1468    0.7262 C   0  0  1  0  0  0  0  0  0  0  0  0
   -0.3583   -0.6100    1.4558 H   0  0  0  0  0  0  0  0  0  0  0  0
   -0.3739   -0.2459   -0.6675 C   0  0  0  0  0  0  0  0  0  0  0  0
   -1.0233   -0.8423   -1.3117 H   0  0  0  0  0  0  0  0  0  0  0  0
   -0.2918    0.7531   -1.0979 H   0  0  0  0  0  0  0  0  0  0  0  0
    1.0147   -0.9037   -0.6454 C   0  0  0  0  0  0  0  0  0  0  0  0
    1.7833   -0.1403   -0.7691 H   0  0  0  0  0  0  0  0  0  0  0  0
    1.1594   -1.4046    0.3135 H   0  0  0  0  0  0  0  0  0  0  0  0
    1.1523   -1.9298   -1.7759 C   0  0  0  0  0  0  0  0  0  0  0  0
    0.3843   -2.6967   -1.6702 H   0  0  0  0  0  0  0  0  0  0  0  0
    1.0322   -1.4298   -2.7374 H   0  0  0  0  0  0  0  0  0  0  0  0
    2.5305   -2.5855   -1.7159 C   0  0  0  0  0  0  0  0  0  0  0  0
    3.2988   -1.8240   -1.8398 H   0  0  0  0  0  0  0  0  0  0  0  0
    2.6591   -3.0702   -0.7495 H   0  0  0  0  0  0  0  0  0  0  0  0
    2.6875   -3.5922   -2.7719 N   0  0  0  0  0  0  0  0  0  0  0  0
    3.6116   -3.9938   -2.7112 H   0  0  0  0  0  0  0  0  0  0  0  0
    1.9971   -4.3182   -2.6429 H   0  0  0  0  0  0  0  0  0  0  0  0
   -1.2712    1.3099    1.1517 C   0  0  0  0  0  0  0  0  0  0  0  0
   -2.2039    1.9448    0.6639 O   0  0  0  0  0  0  0  0  0  0  0  0
   -0.4306    1.8354    2.0503 N   0  0  0  0  0  0  0  0  0  0  0  0
    0.3001    1.2459    2.4139 H   0  0  0  0  0  0  0  0  0  0  0  0
   -0.5192    3.2082    2.5456 C   0  0  0  0  0  0  0  0  0  0  0  0
   -1.5166    3.3903    2.9518 H   0  0  0  0  0  0  0  0  0  0  0  0
    0.2240    3.3791    3.3257 H   0  0  0  0  0  0  0  0  0  0  0  0
   -0.3477    3.9067    1.7239 H   0  0  0  0  0  0  0  0  0  0  0  0
  5  6  2  0  0  0  0
  5  7  1  0  0  0  0
  2  3  1  0  0  0  0
  2  4  1  0  0  0  0
  2  5  1  0  0  0  0
  1  2  1  0  0  0  0
 26 27  2  0  0  0  0
 26 28  1  0  0  0  0
 23 24  1  0  0  0  0
 23 25  1  0  0  0  0
 20 21  1  0  0  0  0
 20 22  1  0  0  0  0
 20 23  1  0  0  0  0
 17 18  1  0  0  0  0
 17 19  1  0  0  0  0
 17 20  1  0  0  0  0
 14 15  1  0  0  0  0
 14 16  1  0  0  0  0
 14 17  1  0  0  0  0
 11 12  1  0  0  0  0
 11 13  1  0  0  0  0
 11 14  1  0  0  0  0
  9 10  1  0  0  0  0
  9 11  1  0  0  0  0
  9 26  1  0  0  0  0
  7  8  1  0  0  0  0
  7  9  1  0  0  0  0
 30 31  1  0  0  0  0
 30 32  1  0  0  0  0
 30 33  1  0  0  0  0
 28 29  1  0  0  0  0
 28 30  1  0  0  0  0
M  END
$$$$
default_name
  -OEChem-02102213163D

 33 32  0     1  0  0  0  0  0999 V2000
   -3.8420   -3.6918    1.5562 H   0  0  0  0  0  0  0  0  0  0  0  0
   -3.8430   -2.7008    1.1032 C   0  0  0  0  0  0  0  0  0  0  0  0
   -4.5510   -2.0608    1.6242 H   0  0  0  0  0  0  0  0  0  0  0  0
   -4.1140   -2.7798    0.0522 H   0  0  0  0  0  0  0  0  0  0  0  0
   -2.4570   -2.1098    1.2172 C   0  0  0  0  0  0  0  0  0  0  0  0
   -1.5600   -2.7438    1.7572 O   0  0  0  0  0  0  0  0  0  0  0  0
   -2.2870   -0.8898    0.7102 N   0  0  0  0  0  0  0  0  0  0  0  0
   -3.0820   -0.4218    0.2992 H   0  0  0  0  0  0  0  0  0  0  0  0
   -1.0240   -0.1468    0.7262 C   0  0  1  0  0  0  0  0  0  0  0  0
   -0.3583   -0.6100    1.4558 H   0  0  0  0  0  0  0  0  0  0  0  0
   -0.3739   -0.2459   -0.6675 C   0  0  0  0  0  0  0  0  0  0  0  0
   -1.0233   -0.8423   -1.3117 H   0  0  0  0  0  0  0  0  0  0  0  0
   -0.2918    0.7531   -1.0979 H   0  0  0  0  0  0  0  0  0  0  0  0
    1.0147   -0.9037   -0.6454 C   0  0  0  0  0  0  0  0  0  0  0  0
    1.7793   -0.1399   -0.5010 H   0  0  0  0  0  0  0  0  0  0  0  0
    1.0611   -1.6165    0.1799 H   0  0  0  0  0  0  0  0  0  0  0  0
    1.2935   -1.6379   -1.9618 C   0  0  0  0  0  0  0  0  0  0  0  0
    0.5316   -2.4009   -2.1244 H   0  0  0  0  0  0  0  0  0  0  0  0
    1.2718   -0.9256   -2.7871 H   0  0  0  0  0  0  0  0  0  0  0  0
    2.6676   -2.3024   -1.9038 C   0  0  0  0  0  0  0  0  0  0  0  0
    3.4319   -1.5404   -1.7600 H   0  0  0  0  0  0  0  0  0  0  0  0
    2.6969   -3.0011   -1.0693 H   0  0  0  0  0  0  0  0  0  0  0  0
    2.9571   -3.0354   -3.1416 N   0  0  0  0  0  0  0  0  0  0  0  0
    3.8756   -3.4488   -3.0740 H   0  0  0  0  0  0  0  0  0  0  0  0
    2.2691   -3.7649   -3.2634 H   0  0  0  0  0  0  0  0  0  0  0  0
   -1.2712    1.3099    1.1517 C   0  0  0  0  0  0  0  0  0  0  0  0
   -2.2039    1.9448    0.6639 O   0  0  0  0  0  0  0  0  0  0  0  0
   -0.4306    1.8354    2.0503 N   0  0  0  0  0  0  0  0  0  0  0  0
    0.3001    1.2459    2.4139 H   0  0  0  0  0  0  0  0  0  0  0  0
   -0.5192    3.2082    2.5456 C   0  0  0  0  0  0  0  0  0  0  0  0
   -1.5166    3.3903    2.9518 H   0  0  0  0  0  0  0  0  0  0  0  0
    0.2240    3.3791    3.3257 H   0  0  0  0  0  0  0  0  0  0  0  0
   -0.3477    3.9067    1.7239 H   0  0  0  0  0  0  0  0  0  0  0  0
  5  6  2  0  0  0  0
  5  7  1  0  0  0  0
  2  3  1  0  0  0  0
  2  4  1  0  0  0  0
  2  5  1  0  0  0  0
  1  2  1  0  0  0  0
 26 27  2  0  0  0  0
 26 28  1  0  0  0  0
 23 24  1  0  0  0  0
 23 25  1  0  0  0  0
 20 21  1  0  0  0  0
 20 22  1  0  0  0  0
 20 23  1  0  0  0  0
 17 18  1  0  0  0  0
 17 19  1  0  0  0  0
 17 20  1  0  0  0  0
 14 15  1  0  0  0  0
 14 16  1  0  0  0  0
 14 17  1  0  0  0  0
 11 12  1  0  0  0  0
 11 13  1  0  0  0  0
 11 14  1  0  0  0  0
  9 10  1  0  0  0  0
  9 11  1  0  0  0  0
  9 26  1  0  0  0  0
  7  8  1  0  0  0  0
  7  9  1  0  0  0  0
 30 31  1  0  0  0  0
 30 32  1  0  0  0  0
 30 33  1  0  0  0  0
 28 29  1  0  0  0  0
 28 30  1  0  0  0  0
M  END
$$$$
default_name
  -OEChem-02102213163D

 33 32  0     1  0  0  0  0  0999 V2000
   -3.8420   -3.6918    1.5562 H   0  0  0  0  0  0  0  0  0  0  0  0
   -3.8430   -2.7008    1.1032 C   0  0  0  0  0  0  0  0  0  0  0  0
   -4.5510   -2.0608    1.6242 H   0  0  0  0  0  0  0  0  0  0  0  0
   -4.1140   -2.7798    0.0522 H   0  0  0  0  0  0  0  0  0  0  0  0
   -2.4570   -2.1098    1.2172 C   0  0  0  0  0  0  0  0  0  0  0  0
   -1.5600   -2.7438    1.7572 O   0  0  0  0  0  0  0  0  0  0  0  0
   -2.2870   -0.8898    0.7102 N   0  0  0  0  0  0  0  0  0  0  0  0
   -3.0820   -0.4218    0.2992 H   0  0  0  0  0  0  0  0  0  0  0  0
   -1.0240   -0.1468    0.7262 C   0  0  1  0  0  0  0  0  0  0  0  0
   -0.3583   -0.6100    1.4558 H   0  0  0  0  0  0  0  0  0  0  0  0
   -0.3739   -0.2459   -0.6675 C   0  0  0  0  0  0  0  0  0  0  0  0
   -1.0233   -0.8423   -1.3117 H   0  0  0  0  0  0  0  0  0  0  0  0
   -0.2918    0.7531   -1.0979 H   0  0  0  0  0  0  0  0  0  0  0  0
    1.0147   -0.9037   -0.6454 C   0  0  0  0  0  0  0  0  0  0  0  0
    1.7456   -0.2022   -0.2424 H   0  0  0  0  0  0  0  0  0  0  0  0
    0.9818   -1.7903   -0.0096 H   0  0  0  0  0  0  0  0  0  0  0  0
    1.4494   -1.3120   -2.0575 C   0  0  0  0  0  0  0  0  0  0  0  0
    0.7231   -2.0085   -2.4776 H   0  0  0  0  0  0  0  0  0  0  0  0
    1.5069   -0.4261   -2.6906 H   0  0  0  0  0  0  0  0  0  0  0  0
    2.8198   -1.9846   -2.0039 C   0  0  0  0  0  0  0  0  0  0  0  0
    3.5505   -1.2846   -1.6020 H   0  0  0  0  0  0  0  0  0  0  0  0
    2.7686   -2.8595   -1.3578 H   0  0  0  0  0  0  0  0  0  0  0  0
    3.2564   -2.4101   -3.3386 N   0  0  0  0  0  0  0  0  0  0  0  0
    4.1687   -2.8365   -3.2678 H   0  0  0  0  0  0  0  0  0  0  0  0
    2.5985   -3.0843   -3.7032 H   0  0  0  0  0  0  0  0  0  0  0  0
   -1.2712    1.3099    1.1517 C   0  0  0  0  0  0  0  0  0  0  0  0
   -2.2039    1.9448    0.6639 O   0  0  0  0  0  0  0  0  0  0  0  0
   -0.4306    1.8354    2.0503 N   0  0  0  0  0  0  0  0  0  0  0  0
    0.3001    1.2459    2.4139 H   0  0  0  0  0  0  0  0  0  0  0  0
   -0.5192    3.2082    2.5456 C   0  0  0  0  0  0  0  0  0  0  0  0
   -1.5166    3.3903    2.9518 H   0  0  0  0  0  0  0  0  0  0  0  0
    0.2240    3.3791    3.3257 H   0  0  0  0  0  0  0  0  0  0  0  0
   -0.3477    3.9067    1.7239 H   0  0  0  0  0  0  0  0  0  0  0  0
  5  6  2  0  0  0  0
  5  7  1  0  0  0  0
  2  3  1  0  0  0  0
  2  4  1  0  0  0  0
  2  5  1  0  0  0  0
  1  2  1  0  0  0  0
 26 27  2  0  0  0  0
 26 28  1  0  0  0  0
 23 24  1  0  0  0  0
 23 25  1  0  0  0  0
 20 21  1  0  0  0  0
 20 22  1  0  0  0  0
 20 23  1  0  0  0  0
 17 18  1  0  0  0  0
 17 19  1  0  0  0  0
 17 20  1  0  0  0  0
 14 15  1  0  0  0  0
 14 16  1  0  0  0  0
 14 17  1  0  0  0  0
 11 12  1  0  0  0  0
 11 13  1  0  0  0  0
 11 14  1  0  0  0  0
  9 10  1  0  0  0  0
  9 11  1  0  0  0  0
  9 26  1  0  0  0  0
  7  8  1  0  0  0  0
  7  9  1  0  0  0  0
 30 31  1  0  0  0  0
 30 32  1  0  0  0  0
 30 33  1  0  0  0  0
 28 29  1  0  0  0  0
 28 30  1  0  0  0  0
M  END
$$$$
default_name
  -OEChem-02102213163D

 33 32  0     1  0  0  0  0  0999 V2000
   -3.8420   -3.6918    1.5562 H   0  0  0  0  0  0  0  0  0  0  0  0
   -3.8430   -2.7008    1.1032 C   0  0  0  0  0  0  0  0  0  0  0  0
   -4.5510   -2.0608    1.6242 H   0  0  0  0  0  0  0  0  0  0  0  0
   -4.1140   -2.7798    0.0522 H   0  0  0  0  0  0  0  0  0  0  0  0
   -2.4570   -2.1098    1.2172 C   0  0  0  0  0  0  0  0  0  0  0  0
   -1.5600   -2.7438    1.7572 O   0  0  0  0  0  0  0  0  0  0  0  0
   -2.2870   -0.8898    0.7102 N   0  0  0  0  0  0  0  0  0  0  0  0
   -3.0820   -0.4218    0.2992 H   0  0  0  0  0  0  0  0  0  0  0  0
   -1.0240   -0.1468    0.7262 C   0  0  1  0  0  0  0  0  0  0  0  0
   -0.3583   -0.6100    1.4558 H   0  0  0  0  0  0  0  0  0  0  0  0
   -0.3739   -0.2459   -0.6675 C   0  0  0  0  0  0  0  0  0  0  0  0
   -1.1250   -0.6004   -1.3764 H   0  0  0  0  0  0  0  0  0  0  0  0
   -0.0484    0.7460   -0.9839 H   0  0  0  0  0  0  0  0  0  0  0  0
    0.8218   -1.2101   -0.7136 C   0  0  0  0  0  0  0  0  0  0  0  0
    1.5897   -0.8745   -0.0160 H   0  0  0  0  0  0  0  0  0  0  0  0
    0.4888   -2.2088   -0.4254 H   0  0  0  0  0  0  0  0  0  0  0  0
    1.4253   -1.2667   -2.1216 C   0  0  0  0  0  0  0  0  0  0  0  0
    0.6661   -1.5936   -2.8328 H   0  0  0  0  0  0  0  0  0  0  0  0
    1.7811   -0.2756   -2.4047 H   0  0  0  0  0  0  0  0  0  0  0  0
    2.5944   -2.2493   -2.1453 C   0  0  0  0  0  0  0  0  0  0  0  0
    3.3620   -1.9148   -1.4493 H   0  0  0  0  0  0  0  0  0  0  0  0
    2.2444   -3.2358   -1.8456 H   0  0  0  0  0  0  0  0  0  0  0  0
    3.1815   -2.3458   -3.4867 N   0  0  0  0  0  0  0  0  0  0  0  0
    3.9575   -2.9910   -3.4624 H   0  0  0  0  0  0  0  0  0  0  0  0
    2.4820   -2.6864   -4.1309 H   0  0  0  0  0  0  0  0  0  0  0  0
   -1.2712    1.3099    1.1517 C   0  0  0  0  0  0  0  0  0  0  0  0
   -2.2039    1.9448    0.6639 O   0  0  0  0  0  0  0  0  0  0  0  0
   -0.4306    1.8354    2.0503 N   0  0  0  0  0  0  0  0  0  0  0  0
    0.3001    1.2459    2.4139 H   0  0  0  0  0  0  0  0  0  0  0  0
   -0.5192    3.2082    2.5456 C   0  0  0  0  0  0  0  0  0  0  0  0
   -1.5166    3.3903    2.9518 H   0  0  0  0  0  0  0  0  0  0  0  0
    0.2240    3.3791    3.3257 H   0  0  0  0  0  0  0  0  0  0  0  0
   -0.3477    3.9067    1.7239 H   0  0  0  0  0  0  0  0  0  0  0  0
  5  6  2  0  0  0  0
  5  7  1  0  0  0  0
  2  3  1  0  0  0  0
  2  4  1  0  0  0  0
  2  5  1  0  0  0  0
  1  2  1  0  0  0  0
 26 27  2  0  0  0  0
 26 28  1  0  0  0  0
 23 24  1  0  0  0  0
 23 25  1  0  0  0  0
 20 21  1  0  0  0  0
 20 22  1  0  0  0  0
 20 23  1  0  0  0  0
 17 18  1  0  0  0  0
 17 19  1  0  0  0  0
 17 20  1  0  0  0  0
 14 15  1  0  0  0  0
 14 16  1  0  0  0  0
 14 17  1  0  0  0  0
 11 12  1  0  0  0  0
 11 13  1  0  0  0  0
 11 14  1  0  0  0  0
  9 10  1  0  0  0  0
  9 11  1  0  0  0  0
  9 26  1  0  0  0  0
  7  8  1  0  0  0  0
  7  9  1  0  0  0  0
 30 31  1  0  0  0  0
 30 32  1  0  0  0  0
 30 33  1  0  0  0  0
 28 29  1  0  0  0  0
 28 30  1  0  0  0  0
M  END
$$$$
default_name
  -OEChem-02102213163D

 33 32  0     1  0  0  0  0  0999 V2000
   -3.8420   -3.6918    1.5562 H   0  0  0  0  0  0  0  0  0  0  0  0
   -3.8430   -2.7008    1.1032 C   0  0  0  0  0  0  0  0  0  0  0  0
   -4.5510   -2.0608    1.6242 H   0  0  0  0  0  0  0  0  0  0  0  0
   -4.1140   -2.7798    0.0522 H   0  0  0  0  0  0  0  0  0  0  0  0
   -2.4570   -2.1098    1.2172 C   0  0  0  0  0  0  0  0  0  0  0  0
   -1.5600   -2.7438    1.7572 O   0  0  0  0  0  0  0  0  0  0  0  0
   -2.2870   -0.8898    0.7102 N   0  0  0  0  0  0  0  0  0  0  0  0
   -3.0820   -0.4218    0.2992 H   0  0  0  0  0  0  0  0  0  0  0  0
   -1.0240   -0.1468    0.7262 C   0  0  1  0  0  0  0  0  0  0  0  0
   -0.3583   -0.6100    1.4558 H   0  0  0  0  0  0  0  0  0  0  0  0
   -0.3739   -0.2459   -0.6675 C   0  0  0  0  0  0  0  0  0  0  0  0
   -1.1250   -0.6004   -1.3764 H   0  0  0  0  0  0  0  0  0  0  0  0
   -0.0484    0.7460   -0.9839 H   0  0  0  0  0  0  0  0  0  0  0  0
    0.8218   -1.2101   -0.7136 C   0  0  0  0  0  0  0  0  0  0  0  0
    1.4625   -1.0402    0.1521 H   0  0  0  0  0  0  0  0  0  0  0  0
    0.4551   -2.2379   -0.6908 H   0  0  0  0  0  0  0  0  0  0  0  0
    1.6474   -0.9976   -1.9875 C   0  0  0  0  0  0  0  0  0  0  0  0
    1.0175   -1.1564   -2.8633 H   0  0  0  0  0  0  0  0  0  0  0  0
    2.0359    0.0211   -2.0033 H   0  0  0  0  0  0  0  0  0  0  0  0
    2.8134   -1.9837   -2.0201 C   0  0  0  0  0  0  0  0  0  0  0  0
    3.4541   -1.8146   -1.1562 H   0  0  0  0  0  0  0  0  0  0  0  0
    2.4279   -3.0014   -1.9865 H   0  0  0  0  0  0  0  0  0  0  0  0
    3.6124   -1.8232   -3.2404 N   0  0  0  0  0  0  0  0  0  0  0  0
    4.3797   -2.4789   -3.2219 H   0  0  0  0  0  0  0  0  0  0  0  0
    3.0304   -2.0104   -4.0445 H   0  0  0  0  0  0  0  0  0  0  0  0
   -1.2712    1.3099    1.1517 C   0  0  0  0  0  0  0  0  0  0  0  0
   -2.2039    1.9448    0.6639 O   0  0  0  0  0  0  0  0  0  0  0  0
   -0.4306    1.8354    2.0503 N   0  0  0  0  0  0  0  0  0  0  0  0
    0.3001    1.2459    2.4139 H   0  0  0  0  0  0  0  0  0  0  0  0
   -0.5192    3.2082    2.5456 C   0  0  0  0  0  0  0  0  0  0  0  0
   -1.5166    3.3903    2.9518 H   0  0  0  0  0  0  0  0  0  0  0  0
    0.2240    3.3791    3.3257 H   0  0  0  0  0  0  0  0  0  0  0  0
   -0.3477    3.9067    1.7239 H   0  0  0  0  0  0  0  0  0  0  0  0
  5  6  2  0  0  0  0
  5  7  1  0  0  0  0
  2  3  1  0  0  0  0
  2  4  1  0  0  0  0
  2  5  1  0  0  0  0
  1  2  1  0  0  0  0
 26 27  2  0  0  0  0
 26 28  1  0  0  0  0
 23 24  1  0  0  0  0
 23 25  1  0  0  0  0
 20 21  1  0  0  0  0
 20 22  1  0  0  0  0
 20 23  1  0  0  0  0
 17 18  1  0  0  0  0
 17 19  1  0  0  0  0
 17 20  1  0  0  0  0
 14 15  1  0  0  0  0
 14 16  1  0  0  0  0
 14 17  1  0  0  0  0
 11 12  1  0  0  0  0
 11 13  1  0  0  0  0
 11 14  1  0  0  0  0
  9 10  1  0  0  0  0
  9 11  1  0  0  0  0
  9 26  1  0  0  0  0
  7  8  1  0  0  0  0
  7  9  1  0  0  0  0
 30 31  1  0  0  0  0
 30 32  1  0  0  0  0
 30 33  1  0  0  0  0
 28 29  1  0  0  0  0
 28 30  1  0  0  0  0
M  END
$$$$
default_name
  -OEChem-02102213163D

 33 32  0     1  0  0  0  0  0999 V2000
   -3.8420   -3.6918    1.5562 H   0  0  0  0  0  0  0  0  0  0  0  0
   -3.8430   -2.7008    1.1032 C   0  0  0  0  0  0  0  0  0  0  0  0
   -4.5510   -2.0608    1.6242 H   0  0  0  0  0  0  0  0  0  0  0  0
   -4.1140   -2.7798    0.0522 H   0  0  0  0  0  0  0  0  0  0  0  0
   -2.4570   -2.1098    1.2172 C   0  0  0  0  0  0  0  0  0  0  0  0
   -1.5600   -2.7438    1.7572 O   0  0  0  0  0  0  0  0  0  0  0  0
   -2.2870   -0.8898    0.7102 N   0  0  0  0  0  0  0  0  0  0  0  0
   -3.0820   -0.4218    0.2992 H   0  0  0  0  0  0  0  0  0  0  0  0
   -1.0240   -0.1468    0.7262 C   0  0  1  0  0  0  0  0  0  0  0  0
   -0.3583   -0.6100    1.4558 H   0  0  0  0  0  0  0  0  0  0  0  0
   -0.3739   -0.2459   -0.6675 C   0  0  0  0  0  0  0  0  0  0  0  0
   -1.1250   -0.6004   -1.3764 H   0  0  0  0  0  0  0  0  0  0  0  0
   -0.0484    0.7460   -0.9839 H   0  0  0  0  0  0  0  0  0  0  0  0
    0.8218   -1.2101   -0.7136 C   0  0  0  0  0  0  0  0  0  0  0  0
    1.3111   -1.2332    0.2605 H   0  0  0  0  0  0  0  0  0  0  0  0
    0.4655   -2.2123   -0.9585 H   0  0  0  0  0  0  0  0  0  0  0  0
    1.8423   -0.7664   -1.7678 C   0  0  0  0  0  0  0  0  0  0  0  0
    1.3651   -0.7308   -2.7477 H   0  0  0  0  0  0  0  0  0  0  0  0
    2.2191    0.2250   -1.5144 H   0  0  0  0  0  0  0  0  0  0  0  0
    3.0067   -1.7541   -1.8101 C   0  0  0  0  0  0  0  0  0  0  0  0
    3.4963   -1.7775   -0.8379 H   0  0  0  0  0  0  0  0  0  0  0  0
    2.6299   -2.7481   -2.0455 H   0  0  0  0  0  0  0  0  0  0  0  0
    3.9926   -1.3714   -2.8273 N   0  0  0  0  0  0  0  0  0  0  0  0
    4.7524   -2.0360   -2.8180 H   0  0  0  0  0  0  0  0  0  0  0  0
    3.5514   -1.3791   -3.7359 H   0  0  0  0  0  0  0  0  0  0  0  0
   -1.2712    1.3099    1.1517 C   0  0  0  0  0  0  0  0  0  0  0  0
   -2.2039    1.9448    0.6639 O   0  0  0  0  0  0  0  0  0  0  0  0
   -0.4306    1.8354    2.0503 N   0  0  0  0  0  0  0  0  0  0  0  0
    0.3001    1.2459    2.4139 H   0  0  0  0  0  0  0  0  0  0  0  0
   -0.5192    3.2082    2.5456 C   0  0  0  0  0  0  0  0  0  0  0  0
   -1.5166    3.3903    2.9518 H   0  0  0  0  0  0  0  0  0  0  0  0
    0.2240    3.3791    3.3257 H   0  0  0  0  0  0  0  0  0  0  0  0
   -0.3477    3.9067    1.7239 H   0  0  0  0  0  0  0  0  0  0  0  0
  5  6  2  0  0  0  0
  5  7  1  0  0  0  0
  2  3  1  0  0  0  0
  2  4  1  0  0  0  0
  2  5  1  0  0  0  0
  1  2  1  0  0  0  0
 26 27  2  0  0  0  0
 26 28  1  0  0  0  0
 23 24  1  0  0  0  0
 23 25  1  0  0  0  0
 20 21  1  0  0  0  0
 20 22  1  0  0  0  0
 20 23  1  0  0  0  0
 17 18  1  0  0  0  0
 17 19  1  0  0  0  0
 17 20  1  0  0  0  0
 14 15  1  0  0  0  0
 14 16  1  0  0  0  0
 14 17  1  0  0  0  0
 11 12  1  0  0  0  0
 11 13  1  0  0  0  0
 11 14  1  0  0  0  0
  9 10  1  0  0  0  0
  9 11  1  0  0  0  0
  9 26  1  0  0  0  0
  7  8  1  0  0  0  0
  7  9  1  0  0  0  0
 30 31  1  0  0  0  0
 30 32  1  0  0  0  0
 30 33  1  0  0  0  0
 28 29  1  0  0  0  0
 28 30  1  0  0  0  0
M  END
$$$$
default_name
  -OEChem-02102213163D

 33 32  0     1  0  0  0  0  0999 V2000
   -3.8420   -3.6918    1.5562 H   0  0  0  0  0  0  0  0  0  0  0  0
   -3.8430   -2.7008    1.1032 C   0  0  0  0  0  0  0  0  0  0  0  0
   -4.5510   -2.0608    1.6242 H   0  0  0  0  0  0  0  0  0  0  0  0
   -4.1140   -2.7798    0.0522 H   0  0  0  0  0  0  0  0  0  0  0  0
   -2.4570   -2.1098    1.2172 C   0  0  0  0  0  0  0  0  0  0  0  0
   -1.5600   -2.7438    1.7572 O   0  0  0  0  0  0  0  0  0  0  0  0
   -2.2870   -0.8898    0.7102 N   0  0  0  0  0  0  0  0  0  0  0  0
   -3.0820   -0.4218    0.2992 H   0  0  0  0  0  0  0  0  0  0  0  0
   -1.0240   -0.1468    0.7262 C   0  0  1  0  0  0  0  0  0  0  0  0
   -0.3583   -0.6100    1.4558 H   0  0  0  0  0  0  0  0  0  0  0  0
   -0.3739   -0.2459   -0.6675 C   0  0  0  0  0  0  0  0  0  0  0  0
   -1.1250   -0.6004   -1.3764 H   0  0  0  0  0  0  0  0  0  0  0  0
   -0.0484    0.7460   -0.9839 H   0  0  0  0  0  0  0  0  0  0  0  0
    0.8218   -1.2101   -0.7136 C   0  0  0  0  0  0  0  0  0  0  0  0
    1.1458   -1.4402    0.3017 H   0  0  0  0  0  0  0  0  0  0  0  0
    0.5191   -2.1338   -1.2102 H   0  0  0  0  0  0  0  0  0  0  0  0
    1.9967   -0.5888   -1.4774 C   0  0  0  0  0  0  0  0  0  0  0  0
    1.6855   -0.3456   -2.4938 H   0  0  0  0  0  0  0  0  0  0  0  0
    2.3183    0.3220   -0.9715 H   0  0  0  0  0  0  0  0  0  0  0  0
    3.1611   -1.5760   -1.5296 C   0  0  0  0  0  0  0  0  0  0  0  0
    3.4857   -1.8061   -0.5161 H   0  0  0  0  0  0  0  0  0  0  0  0
    2.8366   -2.4930   -2.0187 H   0  0  0  0  0  0  0  0  0  0  0  0
    4.2964   -1.0211   -2.2756 N   0  0  0  0  0  0  0  0  0  0  0  0
    5.0503   -1.6924   -2.2780 H   0  0  0  0  0  0  0  0  0  0  0  0
    4.0094   -0.8355   -3.2261 H   0  0  0  0  0  0  0  0  0  0  0  0
   -1.2712    1.3099    1.1517 C   0  0  0  0  0  0  0  0  0  0  0  0
   -2.2039    1.9448    0.6639 O   0  0  0  0  0  0  0  0  0  0  0  0
   -0.4306    1.8354    2.0503 N   0  0  0  0  0  0  0  0  0  0  0  0
    0.3001    1.2459    2.4139 H   0  0  0  0  0  0  0  0  0  0  0  0
   -0.5192    3.2082    2.5456 C   0  0  0  0  0  0  0  0  0  0  0  0
   -1.5166    3.3903    2.9518 H   0  0  0  0  0  0  0  0  0  0  0  0
    0.2240    3.3791    3.3257 H   0  0  0  0  0  0  0  0  0  0  0  0
   -0.3477    3.9067    1.7239 H   0  0  0  0  0  0  0  0  0  0  0  0
  5  6  2  0  0  0  0
  5  7  1  0  0  0  0
  2  3  1  0  0  0  0
  2  4  1  0  0  0  0
  2  5  1  0  0  0  0
  1  2  1  0  0  0  0
 26 27  2  0  0  0  0
 26 28  1  0  0  0  0
 23 24  1  0  0  0  0
 23 25  1  0  0  0  0
 20 21  1  0  0  0  0
 20 22  1  0  0  0  0
 20 23  1  0  0  0  0
 17 18  1  0  0  0  0
 17 19  1  0  0  0  0
 17 20  1  0  0  0  0
 14 15  1  0  0  0  0
 14 16  1  0  0  0  0
 14 17  1  0  0  0  0
 11 12  1  0  0  0  0
 11 13  1  0  0  0  0
 11 14  1  0  0  0  0
  9 10  1  0  0  0  0
  9 11  1  0  0  0  0
  9 26  1  0  0  0  0
  7  8  1  0  0  0  0
  7  9  1  0  0  0  0
 30 31  1  0  0  0  0
 30 32  1  0  0  0  0
 30 33  1  0  0  0  0
 28 29  1  0  0  0  0
 28 30  1  0  0  0  0
M  END
$$$$
default_name
  -OEChem-02102213163D

 33 32  0     1  0  0  0  0  0999 V2000
   -3.8420   -3.6918    1.5562 H   0  0  0  0  0  0  0  0  0  0  0  0
   -3.8430   -2.7008    1.1032 C   0  0  0  0  0  0  0  0  0  0  0  0
   -4.5510   -2.0608    1.6242 H   0  0  0  0  0  0  0  0  0  0  0  0
   -4.1140   -2.7798    0.0522 H   0  0  0  0  0  0  0  0  0  0  0  0
   -2.4570   -2.1098    1.2172 C   0  0  0  0  0  0  0  0  0  0  0  0
   -1.5600   -2.7438    1.7572 O   0  0  0  0  0  0  0  0  0  0  0  0
   -2.2870   -0.8898    0.7102 N   0  0  0  0  0  0  0  0  0  0  0  0
   -3.0820   -0.4218    0.2992 H   0  0  0  0  0  0  0  0  0  0  0  0
   -1.0240   -0.1468    0.7262 C   0  0  1  0  0  0  0  0  0  0  0  0
   -0.3583   -0.6100    1.4558 H   0  0  0  0  0  0  0  0  0  0  0  0
   -0.3739   -0.2459   -0.6675 C   0  0  0  0  0  0  0  0  0  0  0  0
   -1.1250   -0.6004   -1.3764 H   0  0  0  0  0  0  0  0  0  0  0  0
   -0.0484    0.7460   -0.9839 H   0  0  0  0  0  0  0  0  0  0  0  0
    0.8218   -1.2101   -0.7136 C   0  0  0  0  0  0  0  0  0  0  0  0
    0.9778   -1.6471    0.2730 H   0  0  0  0  0  0  0  0  0  0  0  0
    0.6124   -2.0076   -1.4288 H   0  0  0  0  0  0  0  0  0  0  0  0
    2.1000   -0.4770   -1.1360 C   0  0  0  0  0  0  0  0  0  0  0  0
    1.9567   -0.0272   -2.1190 H   0  0  0  0  0  0  0  0  0  0  0  0
    2.3267    0.3056   -0.4113 H   0  0  0  0  0  0  0  0  0  0  0  0
    3.2660   -1.4618   -1.1977 C   0  0  0  0  0  0  0  0  0  0  0  0
    3.4229   -1.8984   -0.2127 H   0  0  0  0  0  0  0  0  0  0  0  0
    3.0339   -2.2537   -1.9079 H   0  0  0  0  0  0  0  0  0  0  0  0
    4.5029   -0.7963   -1.6227 N   0  0  0  0  0  0  0  0  0  0  0  0
    5.2530   -1.4716   -1.6389 H   0  0  0  0  0  0  0  0  0  0  0  0
    4.3732   -0.4167   -2.5498 H   0  0  0  0  0  0  0  0  0  0  0  0
   -1.2712    1.3099    1.1517 C   0  0  0  0  0  0  0  0  0  0  0  0
   -2.2039    1.9448    0.6639 O   0  0  0  0  0  0  0  0  0  0  0  0
   -0.4306    1.8354    2.0503 N   0  0  0  0  0  0  0  0  0  0  0  0
    0.3001    1.2459    2.4139 H   0  0  0  0  0  0  0  0  0  0  0  0
   -0.5192    3.2082    2.5456 C   0  0  0  0  0  0  0  0  0  0  0  0
   -1.5166    3.3903    2.9518 H   0  0  0  0  0  0  0  0  0  0  0  0
    0.2240    3.3791    3.3257 H   0  0  0  0  0  0  0  0  0  0  0  0
   -0.3477    3.9067    1.7239 H   0  0  0  0  0  0  0  0  0  0  0  0
  5  6  2  0  0  0  0
  5  7  1  0  0  0  0
  2  3  1  0  0  0  0
  2  4  1  0  0  0  0
  2  5  1  0  0  0  0
  1  2  1  0  0  0  0
 26 27  2  0  0  0  0
 26 28  1  0  0  0  0
 23 24  1  0  0  0  0
 23 25  1  0  0  0  0
 20 21  1  0  0  0  0
 20 22  1  0  0  0  0
 20 23  1  0  0  0  0
 17 18  1  0  0  0  0
 17 19  1  0  0  0  0
 17 20  1  0  0  0  0
 14 15  1  0  0  0  0
 14 16  1  0  0  0  0
 14 17  1  0  0  0  0
 11 12  1  0  0  0  0
 11 13  1  0  0  0  0
 11 14  1  0  0  0  0
  9 10  1  0  0  0  0
  9 11  1  0  0  0  0
  9 26  1  0  0  0  0
  7  8  1  0  0  0  0
  7  9  1  0  0  0  0
 30 31  1  0  0  0  0
 30 32  1  0  0  0  0
 30 33  1  0  0  0  0
 28 29  1  0  0  0  0
 28 30  1  0  0  0  0
M  END
$$$$
default_name
  -OEChem-02102213163D

 33 32  0     1  0  0  0  0  0999 V2000
   -3.8420   -3.6918    1.5562 H   0  0  0  0  0  0  0  0  0  0  0  0
   -3.8430   -2.7008    1.1032 C   0  0  0  0  0  0  0  0  0  0  0  0
   -4.5510   -2.0608    1.6242 H   0  0  0  0  0  0  0  0  0  0  0  0
   -4.1140   -2.7798    0.0522 H   0  0  0  0  0  0  0  0  0  0  0  0
   -2.4570   -2.1098    1.2172 C   0  0  0  0  0  0  0  0  0  0  0  0
   -1.5600   -2.7438    1.7572 O   0  0  0  0  0  0  0  0  0  0  0  0
   -2.2870   -0.8898    0.7102 N   0  0  0  0  0  0  0  0  0  0  0  0
   -3.0820   -0.4218    0.2992 H   0  0  0  0  0  0  0  0  0  0  0  0
   -1.0240   -0.1468    0.7262 C   0  0  1  0  0  0  0  0  0  0  0  0
   -0.3583   -0.6100    1.4558 H   0  0  0  0  0  0  0  0  0  0  0  0
   -0.3739   -0.2459   -0.6675 C   0  0  0  0  0  0  0  0  0  0  0  0
   -1.1250   -0.6004   -1.3764 H   0  0  0  0  0  0  0  0  0  0  0  0
   -0.0484    0.7460   -0.9839 H   0  0  0  0  0  0  0  0  0  0  0  0
    0.8218   -1.2101   -0.7136 C   0  0  0  0  0  0  0  0  0  0  0  0
    0.8186   -1.8400    0.1764 H   0  0  0  0  0  0  0  0  0  0  0  0
    0.7390   -1.8424   -1.5994 H   0  0  0  0  0  0  0  0  0  0  0  0
    2.1453   -0.4385   -0.7670 C   0  0  0  0  0  0  0  0  0  0  0  0
    2.1603    0.2028   -1.6487 H   0  0  0  0  0  0  0  0  0  0  0  0
    2.2437    0.1769    0.1278 H   0  0  0  0  0  0  0  0  0  0  0  0
    3.3144   -1.4190   -0.8371 C   0  0  0  0  0  0  0  0  0  0  0  0
    3.3123   -2.0482    0.0515 H   0  0  0  0  0  0  0  0  0  0  0  0
    3.2083   -2.0464   -1.7206 H   0  0  0  0  0  0  0  0  0  0  0  0
    4.5981   -0.7121   -0.9134 N   0  0  0  0  0  0  0  0  0  0  0  0
    5.3467   -1.3886   -0.9442 H   0  0  0  0  0  0  0  0  0  0  0  0
    4.6180   -0.1511   -1.7531 H   0  0  0  0  0  0  0  0  0  0  0  0
   -1.2712    1.3099    1.1517 C   0  0  0  0  0  0  0  0  0  0  0  0
   -2.2039    1.9448    0.6639 O   0  0  0  0  0  0  0  0  0  0  0  0
   -0.4306    1.8354    2.0503 N   0  0  0  0  0  0  0  0  0  0  0  0
    0.3001    1.2459    2.4139 H   0  0  0  0  0  0  0  0  0  0  0  0
   -0.5192    3.2082    2.5456 C   0  0  0  0  0  0  0  0  0  0  0  0
   -1.5166    3.3903    2.9518 H   0  0  0  0  0  0  0  0  0  0  0  0
    0.2240    3.3791    3.3257 H   0  0  0  0  0  0  0  0  0  0  0  0
   -0.3477    3.9067    1.7239 H   0  0  0  0  0  0  0  0  0  0  0  0
  5  6  2  0  0  0  0
  5  7  1  0  0  0  0
  2  3  1  0  0  0  0
  2  4  1  0  0  0  0
  2  5  1  0  0  0  0
  1  2  1  0  0  0  0
 26 27  2  0  0  0  0
 26 28  1  0  0  0  0
 23 24  1  0  0  0  0
 23 25  1  0  0  0  0
 20 21  1  0  0  0  0
 20 22  1  0  0  0  0
 20 23  1  0  0  0  0
 17 18  1  0  0  0  0
 17 19  1  0  0  0  0
 17 20  1  0  0  0  0
 14 15  1  0  0  0  0
 14 16  1  0  0  0  0
 14 17  1  0  0  0  0
 11 12  1  0  0  0  0
 11 13  1  0  0  0  0
 11 14  1  0  0  0  0
  9 10  1  0  0  0  0
  9 11  1  0  0  0  0
  9 26  1  0  0  0  0
  7  8  1  0  0  0  0
  7  9  1  0  0  0  0
 30 31  1  0  0  0  0
 30 32  1  0  0  0  0
 30 33  1  0  0  0  0
 28 29  1  0  0  0  0
 28 30  1  0  0  0  0
M  END
$$$$
default_name
  -OEChem-02102213163D

 33 32  0     1  0  0  0  0  0999 V2000
   -3.8420   -3.6918    1.5562 H   0  0  0  0  0  0  0  0  0  0  0  0
   -3.8430   -2.7008    1.1032 C   0  0  0  0  0  0  0  0  0  0  0  0
   -4.5510   -2.0608    1.6242 H   0  0  0  0  0  0  0  0  0  0  0  0
   -4.1140   -2.7798    0.0522 H   0  0  0  0  0  0  0  0  0  0  0  0
   -2.4570   -2.1098    1.2172 C   0  0  0  0  0  0  0  0  0  0  0  0
   -1.5600   -2.7438    1.7572 O   0  0  0  0  0  0  0  0  0  0  0  0
   -2.2870   -0.8898    0.7102 N   0  0  0  0  0  0  0  0  0  0  0  0
   -3.0820   -0.4218    0.2992 H   0  0  0  0  0  0  0  0  0  0  0  0
   -1.0240   -0.1468    0.7262 C   0  0  1  0  0  0  0  0  0  0  0  0
   -0.3583   -0.6100    1.4558 H   0  0  0  0  0  0  0  0  0  0  0  0
   -0.3739   -0.2459   -0.6675 C   0  0  0  0  0  0  0  0  0  0  0  0
   -1.1250   -0.6004   -1.3764 H   0  0  0  0  0  0  0  0  0  0  0  0
   -0.0484    0.7460   -0.9839 H   0  0  0  0  0  0  0  0  0  0  0  0
    0.8218   -1.2101   -0.7136 C   0  0  0  0  0  0  0  0  0  0  0  0
    0.6790   -2.0055    0.0183 H   0  0  0  0  0  0  0  0  0  0  0  0
    0.8903   -1.6495   -1.7104 H   0  0  0  0  0  0  0  0  0  0  0  0
    2.1293   -0.4761   -0.3954 C   0  0  0  0  0  0  0  0  0  0  0  0
    2.2824    0.3286   -1.1152 H   0  0  0  0  0  0  0  0  0  0  0  0
    2.0750   -0.0554    0.6091 H   0  0  0  0  0  0  0  0  0  0  0  0
    3.3029   -1.4507   -0.4723 C   0  0  0  0  0  0  0  0  0  0  0  0
    3.1614   -2.2453    0.2585 H   0  0  0  0  0  0  0  0  0  0  0  0
    3.3479   -1.8852   -1.4696 H   0  0  0  0  0  0  0  0  0  0  0  0
    4.5755   -0.7745   -0.1957 N   0  0  0  0  0  0  0  0  0  0  0  0
    5.3251   -1.4490   -0.2412 H   0  0  0  0  0  0  0  0  0  0  0  0
    4.7272   -0.0570   -0.8903 H   0  0  0  0  0  0  0  0  0  0  0  0
   -1.2712    1.3099    1.1517 C   0  0  0  0  0  0  0  0  0  0  0  0
   -2.2039    1.9448    0.6639 O   0  0  0  0  0  0  0  0  0  0  0  0
   -0.4306    1.8354    2.0503 N   0  0  0  0  0  0  0  0  0  0  0  0
    0.3001    1.2459    2.4139 H   0  0  0  0  0  0  0  0  0  0  0  0
   -0.5192    3.2082    2.5456 C   0  0  0  0  0  0  0  0  0  0  0  0
   -1.5166    3.3903    2.9518 H   0  0  0  0  0  0  0  0  0  0  0  0
    0.2240    3.3791    3.3257 H   0  0  0  0  0  0  0  0  0  0  0  0
   -0.3477    3.9067    1.7239 H   0  0  0  0  0  0  0  0  0  0  0  0
  5  6  2  0  0  0  0
  5  7  1  0  0  0  0
  2  3  1  0  0  0  0
  2  4  1  0  0  0  0
  2  5  1  0  0  0  0
  1  2  1  0  0  0  0
 26 27  2  0  0  0  0
 26 28  1  0  0  0  0
 23 24  1  0  0  0  0
 23 25  1  0  0  0  0
 20 21  1  0  0  0  0
 20 22  1  0  0  0  0
 20 23  1  0  0  0  0
 17 18  1  0  0  0  0
 17 19  1  0  0  0  0
 17 20  1  0  0  0  0
 14 15  1  0  0  0  0
 14 16  1  0  0  0  0
 14 17  1  0  0  0  0
 11 12  1  0  0  0  0
 11 13  1  0  0  0  0
 11 14  1  0  0  0  0
  9 10  1  0  0  0  0
  9 11  1  0  0  0  0
  9 26  1  0  0  0  0
  7  8  1  0  0  0  0
  7  9  1  0  0  0  0
 30 31  1  0  0  0  0
 30 32  1  0  0  0  0
 30 33  1  0  0  0  0
 28 29  1  0  0  0  0
 28 30  1  0  0  0  0
M  END
$$$$
default_name
  -OEChem-02102213163D

 33 32  0     1  0  0  0  0  0999 V2000
   -3.8420   -3.6918    1.5562 H   0  0  0  0  0  0  0  0  0  0  0  0
   -3.8430   -2.7008    1.1032 C   0  0  0  0  0  0  0  0  0  0  0  0
   -4.5510   -2.0608    1.6242 H   0  0  0  0  0  0  0  0  0  0  0  0
   -4.1140   -2.7798    0.0522 H   0  0  0  0  0  0  0  0  0  0  0  0
   -2.4570   -2.1098    1.2172 C   0  0  0  0  0  0  0  0  0  0  0  0
   -1.5600   -2.7438    1.7572 O   0  0  0  0  0  0  0  0  0  0  0  0
   -2.2870   -0.8898    0.7102 N   0  0  0  0  0  0  0  0  0  0  0  0
   -3.0820   -0.4218    0.2992 H   0  0  0  0  0  0  0  0  0  0  0  0
   -1.0240   -0.1468    0.7262 C   0  0  1  0  0  0  0  0  0  0  0  0
   -0.3583   -0.6100    1.4558 H   0  0  0  0  0  0  0  0  0  0  0  0
   -0.3739   -0.2459   -0.6675 C   0  0  0  0  0  0  0  0  0  0  0  0
   -1.1250   -0.6004   -1.3764 H   0  0  0  0  0  0  0  0  0  0  0  0
   -0.0484    0.7460   -0.9839 H   0  0  0  0  0  0  0  0  0  0  0  0
    0.8218   -1.2101   -0.7136 C   0  0  0  0  0  0  0  0  0  0  0  0
    0.5685   -2.1326   -0.1904 H   0  0  0  0  0  0  0  0  0  0  0  0
    1.0559   -1.4420   -1.7542 H   0  0  0  0  0  0  0  0  0  0  0  0
    2.0533   -0.5870   -0.0467 C   0  0  0  0  0  0  0  0  0  0  0  0
    2.3147    0.3418   -0.5546 H   0  0  0  0  0  0  0  0  0  0  0  0
    1.8320   -0.3754    0.9998 H   0  0  0  0  0  0  0  0  0  0  0  0
    3.2323   -1.5547   -0.1282 C   0  0  0  0  0  0  0  0  0  0  0  0
    2.9805   -2.4761    0.3944 H   0  0  0  0  0  0  0  0  0  0  0  0
    3.4433   -1.7811   -1.1721 H   0  0  0  0  0  0  0  0  0  0  0  0
    4.4366   -0.9790    0.4812 N   0  0  0  0  0  0  0  0  0  0  0  0
    5.1896   -1.6488    0.4222 H   0  0  0  0  0  0  0  0  0  0  0  0
    4.6934   -0.1406   -0.0203 H   0  0  0  0  0  0  0  0  0  0  0  0
   -1.2712    1.3099    1.1517 C   0  0  0  0  0  0  0  0  0  0  0  0
   -2.2039    1.9448    0.6639 O   0  0  0  0  0  0  0  0  0  0  0  0
   -0.4306    1.8354    2.0503 N   0  0  0  0  0  0  0  0  0  0  0  0
    0.3001    1.2459    2.4139 H   0  0  0  0  0  0  0  0  0  0  0  0
   -0.5192    3.2082    2.5456 C   0  0  0  0  0  0  0  0  0  0  0  0
   -1.5166    3.3903    2.9518 H   0  0  0  0  0  0  0  0  0  0  0  0
    0.2240    3.3791    3.3257 H   0  0  0  0  0  0  0  0  0  0  0  0
   -0.3477    3.9067    1.7239 H   0  0  0  0  0  0  0  0  0  0  0  0
  5  6  2  0  0  0  0
  5  7  1  0  0  0  0
  2  3  1  0  0  0  0
  2  4  1  0  0  0  0
  2  5  1  0  0  0  0
  1  2  1  0  0  0  0
 26 27  2  0  0  0  0
 26 28  1  0  0  0  0
 23 24  1  0  0  0  0
 23 25  1  0  0  0  0
 20 21  1  0  0  0  0
 20 22  1  0  0  0  0
 20 23  1  0  0  0  0
 17 18  1  0  0  0  0
 17 19  1  0  0  0  0
 17 20  1  0  0  0  0
 14 15  1  0  0  0  0
 14 16  1  0  0  0  0
 14 17  1  0  0  0  0
 11 12  1  0  0  0  0
 11 13  1  0  0  0  0
 11 14  1  0  0  0  0
  9 10  1  0  0  0  0
  9 11  1  0  0  0  0
  9 26  1  0  0  0  0
  7  8  1  0  0  0  0
  7  9  1  0  0  0  0
 30 31  1  0  0  0  0
 30 32  1  0  0  0  0
 30 33  1  0  0  0  0
 28 29  1  0  0  0  0
 28 30  1  0  0  0  0
M  END
$$$$
default_name
  -OEChem-02102213163D

 33 32  0     1  0  0  0  0  0999 V2000
   -3.8420   -3.6918    1.5562 H   0  0  0  0  0  0  0  0  0  0  0  0
   -3.8430   -2.7008    1.1032 C   0  0  0  0  0  0  0  0  0  0  0  0
   -4.5510   -2.0608    1.6242 H   0  0  0  0  0  0  0  0  0  0  0  0
   -4.1140   -2.7798    0.0522 H   0  0  0  0  0  0  0  0  0  0  0  0
   -2.4570   -2.1098    1.2172 C   0  0  0  0  0  0  0  0  0  0  0  0
   -1.5600   -2.7438    1.7572 O   0  0  0  0  0  0  0  0  0  0  0  0
   -2.2870   -0.8898    0.7102 N   0  0  0  0  0  0  0  0  0  0  0  0
   -3.0820   -0.4218    0.2992 H   0  0  0  0  0  0  0  0  0  0  0  0
   -1.0240   -0.1468    0.7262 C   0  0  1  0  0  0  0  0  0  0  0  0
   -0.3583   -0.6100    1.4558 H   0  0  0  0  0  0  0  0  0  0  0  0
   -0.3739   -0.2459   -0.6675 C   0  0  0  0  0  0  0  0  0  0  0  0
   -1.1250   -0.6004   -1.3764 H   0  0  0  0  0  0  0  0  0  0  0  0
   -0.0484    0.7460   -0.9839 H   0  0  0  0  0  0  0  0  0  0  0  0
    0.8218   -1.2101   -0.7136 C   0  0  0  0  0  0  0  0  0  0  0  0
    0.4947   -2.2123   -0.4355 H   0  0  0  0  0  0  0  0  0  0  0  0
    1.2246   -1.2340   -1.7278 H   0  0  0  0  0  0  0  0  0  0  0  0
    1.9224   -0.7638    0.2555 C   0  0  0  0  0  0  0  0  0  0  0  0
    2.2549    0.2414   -0.0053 H   0  0  0  0  0  0  0  0  0  0  0  0
    1.5314   -0.7612    1.2734 H   0  0  0  0  0  0  0  0  0  0  0  0
    3.1074   -1.7240    0.1717 C   0  0  0  0  0  0  0  0  0  0  0  0
    2.7819   -2.7251    0.4497 H   0  0  0  0  0  0  0  0  0  0  0  0
    3.4880   -1.7413   -0.8482 H   0  0  0  0  0  0  0  0  0  0  0  0
    4.1910   -1.3119    1.0714 N   0  0  0  0  0  0  0  0  0  0  0  0
    4.9494   -1.9743    1.0007 H   0  0  0  0  0  0  0  0  0  0  0  0
    4.5187   -0.3964    0.7978 H   0  0  0  0  0  0  0  0  0  0  0  0
   -1.2712    1.3099    1.1517 C   0  0  0  0  0  0  0  0  0  0  0  0
   -2.2039    1.9448    0.6639 O   0  0  0  0  0  0  0  0  0  0  0  0
   -0.4306    1.8354    2.0503 N   0  0  0  0  0  0  0  0  0  0  0  0
    0.3001    1.2459    2.4139 H   0  0  0  0  0  0  0  0  0  0  0  0
   -0.5192    3.2082    2.5456 C   0  0  0  0  0  0  0  0  0  0  0  0
   -1.5166    3.3903    2.9518 H   0  0  0  0  0  0  0  0  0  0  0  0
    0.2240    3.3791    3.3257 H   0  0  0  0  0  0  0  0  0  0  0  0
   -0.3477    3.9067    1.7239 H   0  0  0  0  0  0  0  0  0  0  0  0
  5  6  2  0  0  0  0
  5  7  1  0  0  0  0
  2  3  1  0  0  0  0
  2  4  1  0  0  0  0
  2  5  1  0  0  0  0
  1  2  1  0  0  0  0
 26 27  2  0  0  0  0
 26 28  1  0  0  0  0
 23 24  1  0  0  0  0
 23 25  1  0  0  0  0
 20 21  1  0  0  0  0
 20 22  1  0  0  0  0
 20 23  1  0  0  0  0
 17 18  1  0  0  0  0
 17 19  1  0  0  0  0
 17 20  1  0  0  0  0
 14 15  1  0  0  0  0
 14 16  1  0  0  0  0
 14 17  1  0  0  0  0
 11 12  1  0  0  0  0
 11 13  1  0  0  0  0
 11 14  1  0  0  0  0
  9 10  1  0  0  0  0
  9 11  1  0  0  0  0
  9 26  1  0  0  0  0
  7  8  1  0  0  0  0
  7  9  1  0  0  0  0
 30 31  1  0  0  0  0
 30 32  1  0  0  0  0
 30 33  1  0  0  0  0
 28 29  1  0  0  0  0
 28 30  1  0  0  0  0
M  END
$$$$
default_name
  -OEChem-02102213163D

 33 32  0     1  0  0  0  0  0999 V2000
   -3.8420   -3.6918    1.5562 H   0  0  0  0  0  0  0  0  0  0  0  0
   -3.8430   -2.7008    1.1032 C   0  0  0  0  0  0  0  0  0  0  0  0
   -4.5510   -2.0608    1.6242 H   0  0  0  0  0  0  0  0  0  0  0  0
   -4.1140   -2.7798    0.0522 H   0  0  0  0  0  0  0  0  0  0  0  0
   -2.4570   -2.1098    1.2172 C   0  0  0  0  0  0  0  0  0  0  0  0
   -1.5600   -2.7438    1.7572 O   0  0  0  0  0  0  0  0  0  0  0  0
   -2.2870   -0.8898    0.7102 N   0  0  0  0  0  0  0  0  0  0  0  0
   -3.0820   -0.4218    0.2992 H   0  0  0  0  0  0  0  0  0  0  0  0
   -1.0240   -0.1468    0.7262 C   0  0  1  0  0  0  0  0  0  0  0  0
   -0.3583   -0.6100    1.4558 H   0  0  0  0  0  0  0  0  0  0  0  0
   -0.3739   -0.2459   -0.6675 C   0  0  0  0  0  0  0  0  0  0  0  0
   -1.1250   -0.6004   -1.3764 H   0  0  0  0  0  0  0  0  0  0  0  0
   -0.0484    0.7460   -0.9839 H   0  0  0  0  0  0  0  0  0  0  0  0
    0.8218   -1.2101   -0.7136 C   0  0  0  0  0  0  0  0  0  0  0  0
    0.4626   -2.2395   -0.7003 H   0  0  0  0  0  0  0  0  0  0  0  0
    1.3849   -1.0398   -1.6330 H   0  0  0  0  0  0  0  0  0  0  0  0
    1.7455   -0.9944    0.4905 C   0  0  0  0  0  0  0  0  0  0  0  0
    2.1071    0.0343    0.4954 H   0  0  0  0  0  0  0  0  0  0  0  0
    1.1937   -1.1867    1.4111 H   0  0  0  0  0  0  0  0  0  0  0  0
    2.9368   -1.9468    0.4071 C   0  0  0  0  0  0  0  0  0  0  0  0
    2.5791   -2.9751    0.4208 H   0  0  0  0  0  0  0  0  0  0  0  0
    3.4788   -1.7683   -0.5201 H   0  0  0  0  0  0  0  0  0  0  0  0
    3.8553   -1.7503    1.5345 N   0  0  0  0  0  0  0  0  0  0  0  0
    4.6209   -2.4034    1.4549 H   0  0  0  0  0  0  0  0  0  0  0  0
    4.2151   -0.8068    1.5081 H   0  0  0  0  0  0  0  0  0  0  0  0
   -1.2712    1.3099    1.1517 C   0  0  0  0  0  0  0  0  0  0  0  0
   -2.2039    1.9448    0.6639 O   0  0  0  0  0  0  0  0  0  0  0  0
   -0.4306    1.8354    2.0503 N   0  0  0  0  0  0  0  0  0  0  0  0
    0.3001    1.2459    2.4139 H   0  0  0  0  0  0  0  0  0  0  0  0
   -0.5192    3.2082    2.5456 C   0  0  0  0  0  0  0  0  0  0  0  0
   -1.5166    3.3903    2.9518 H   0  0  0  0  0  0  0  0  0  0  0  0
    0.2240    3.3791    3.3257 H   0  0  0  0  0  0  0  0  0  0  0  0
   -0.3477    3.9067    1.7239 H   0  0  0  0  0  0  0  0  0  0  0  0
  5  6  2  0  0  0  0
  5  7  1  0  0  0  0
  2  3  1  0  0  0  0
  2  4  1  0  0  0  0
  2  5  1  0  0  0  0
  1  2  1  0  0  0  0
 26 27  2  0  0  0  0
 26 28  1  0  0  0  0
 23 24  1  0  0  0  0
 23 25  1  0  0  0  0
 20 21  1  0  0  0  0
 20 22  1  0  0  0  0
 20 23  1  0  0  0  0
 17 18  1  0  0  0  0
 17 19  1  0  0  0  0
 17 20  1  0  0  0  0
 14 15  1  0  0  0  0
 14 16  1  0  0  0  0
 14 17  1  0  0  0  0
 11 12  1  0  0  0  0
 11 13  1  0  0  0  0
 11 14  1  0  0  0  0
  9 10  1  0  0  0  0
  9 11  1  0  0  0  0
  9 26  1  0  0  0  0
  7  8  1  0  0  0  0
  7  9  1  0  0  0  0
 30 31  1  0  0  0  0
 30 32  1  0  0  0  0
 30 33  1  0  0  0  0
 28 29  1  0  0  0  0
 28 30  1  0  0  0  0
M  END
$$$$
default_name
  -OEChem-02102213163D

 33 32  0     1  0  0  0  0  0999 V2000
   -3.8420   -3.6918    1.5562 H   0  0  0  0  0  0  0  0  0  0  0  0
   -3.8430   -2.7008    1.1032 C   0  0  0  0  0  0  0  0  0  0  0  0
   -4.5510   -2.0608    1.6242 H   0  0  0  0  0  0  0  0  0  0  0  0
   -4.1140   -2.7798    0.0522 H   0  0  0  0  0  0  0  0  0  0  0  0
   -2.4570   -2.1098    1.2172 C   0  0  0  0  0  0  0  0  0  0  0  0
   -1.5600   -2.7438    1.7572 O   0  0  0  0  0  0  0  0  0  0  0  0
   -2.2870   -0.8898    0.7102 N   0  0  0  0  0  0  0  0  0  0  0  0
   -3.0820   -0.4218    0.2992 H   0  0  0  0  0  0  0  0  0  0  0  0
   -1.0240   -0.1468    0.7262 C   0  0  1  0  0  0  0  0  0  0  0  0
   -0.3583   -0.6100    1.4558 H   0  0  0  0  0  0  0  0  0  0  0  0
   -0.3739   -0.2459   -0.6675 C   0  0  0  0  0  0  0  0  0  0  0  0
   -1.1250   -0.6004   -1.3764 H   0  0  0  0  0  0  0  0  0  0  0  0
   -0.0484    0.7460   -0.9839 H   0  0  0  0  0  0  0  0  0  0  0  0
    0.8218   -1.2101   -0.7136 C   0  0  0  0  0  0  0  0  0  0  0  0
    0.4744   -2.2121   -0.9668 H   0  0  0  0  0  0  0  0  0  0  0  0
    1.5259   -0.8725   -1.4763 H   0  0  0  0  0  0  0  0  0  0  0  0
    1.5347   -1.2632    0.6424 C   0  0  0  0  0  0  0  0  0  0  0  0
    1.8815   -0.2655    0.9134 H   0  0  0  0  0  0  0  0  0  0  0  0
    0.8417   -1.6228    1.4036 H   0  0  0  0  0  0  0  0  0  0  0  0
    2.7320   -2.2082    0.5619 C   0  0  0  0  0  0  0  0  0  0  0  0
    2.3860   -3.2093    0.3095 H   0  0  0  0  0  0  0  0  0  0  0  0
    3.4165   -1.8605   -0.2101 H   0  0  0  0  0  0  0  0  0  0  0  0
    3.4525   -2.2645    1.8390 N   0  0  0  0  0  0  0  0  0  0  0  0
    4.2266   -2.9068    1.7539 H   0  0  0  0  0  0  0  0  0  0  0  0
    3.8034   -1.3440    2.0623 H   0  0  0  0  0  0  0  0  0  0  0  0
   -1.2712    1.3099    1.1517 C   0  0  0  0  0  0  0  0  0  0  0  0
   -2.2039    1.9448    0.6639 O   0  0  0  0  0  0  0  0  0  0  0  0
   -0.4306    1.8354    2.0503 N   0  0  0  0  0  0  0  0  0  0  0  0
    0.3001    1.2459    2.4139 H   0  0  0  0  0  0  0  0  0  0  0  0
   -0.5192    3.2082    2.5456 C   0  0  0  0  0  0  0  0  0  0  0  0
   -1.5166    3.3903    2.9518 H   0  0  0  0  0  0  0  0  0  0  0  0
    0.2240    3.3791    3.3257 H   0  0  0  0  0  0  0  0  0  0  0  0
   -0.3477    3.9067    1.7239 H   0  0  0  0  0  0  0  0  0  0  0  0
  5  6  2  0  0  0  0
  5  7  1  0  0  0  0
  2  3  1  0  0  0  0
  2  4  1  0  0  0  0
  2  5  1  0  0  0  0
  1  2  1  0  0  0  0
 26 27  2  0  0  0  0
 26 28  1  0  0  0  0
 23 24  1  0  0  0  0
 23 25  1  0  0  0  0
 20 21  1  0  0  0  0
 20 22  1  0  0  0  0
 20 23  1  0  0  0  0
 17 18  1  0  0  0  0
 17 19  1  0  0  0  0
 17 20  1  0  0  0  0
 14 15  1  0  0  0  0
 14 16  1  0  0  0  0
 14 17  1  0  0  0  0
 11 12  1  0  0  0  0
 11 13  1  0  0  0  0
 11 14  1  0  0  0  0
  9 10  1  0  0  0  0
  9 11  1  0  0  0  0
  9 26  1  0  0  0  0
  7  8  1  0  0  0  0
  7  9  1  0  0  0  0
 30 31  1  0  0  0  0
 30 32  1  0  0  0  0
 30 33  1  0  0  0  0
 28 29  1  0  0  0  0
 28 30  1  0  0  0  0
M  END
$$$$
default_name
  -OEChem-02102213163D

 33 32  0     1  0  0  0  0  0999 V2000
   -3.8420   -3.6918    1.5562 H   0  0  0  0  0  0  0  0  0  0  0  0
   -3.8430   -2.7008    1.1032 C   0  0  0  0  0  0  0  0  0  0  0  0
   -4.5510   -2.0608    1.6242 H   0  0  0  0  0  0  0  0  0  0  0  0
   -4.1140   -2.7798    0.0522 H   0  0  0  0  0  0  0  0  0  0  0  0
   -2.4570   -2.1098    1.2172 C   0  0  0  0  0  0  0  0  0  0  0  0
   -1.5600   -2.7438    1.7572 O   0  0  0  0  0  0  0  0  0  0  0  0
   -2.2870   -0.8898    0.7102 N   0  0  0  0  0  0  0  0  0  0  0  0
   -3.0820   -0.4218    0.2992 H   0  0  0  0  0  0  0  0  0  0  0  0
   -1.0240   -0.1468    0.7262 C   0  0  1  0  0  0  0  0  0  0  0  0
   -0.3583   -0.6100    1.4558 H   0  0  0  0  0  0  0  0  0  0  0  0
   -0.3739   -0.2459   -0.6675 C   0  0  0  0  0  0  0  0  0  0  0  0
   -1.1250   -0.6004   -1.3764 H   0  0  0  0  0  0  0  0  0  0  0  0
   -0.0484    0.7460   -0.9839 H   0  0  0  0  0  0  0  0  0  0  0  0
    0.8218   -1.2101   -0.7136 C   0  0  0  0  0  0  0  0  0  0  0  0
    0.5293   -2.1321   -1.2168 H   0  0  0  0  0  0  0  0  0  0  0  0
    1.6379   -0.7435   -1.2684 H   0  0  0  0  0  0  0  0  0  0  0  0
    1.3043   -1.5517    0.7007 C   0  0  0  0  0  0  0  0  0  0  0  0
    1.5934   -0.6375    1.2201 H   0  0  0  0  0  0  0  0  0  0  0  0
    0.4996   -2.0398    1.2514 H   0  0  0  0  0  0  0  0  0  0  0  0
    2.5070   -2.4902    0.6255 C   0  0  0  0  0  0  0  0  0  0  0  0
    2.2158   -3.4115    0.1236 H   0  0  0  0  0  0  0  0  0  0  0  0
    3.3052   -2.0114    0.0606 H   0  0  0  0  0  0  0  0  0  0  0  0
    3.0099   -2.8193    1.9642 N   0  0  0  0  0  0  0  0  0  0  0  0
    3.7932   -3.4502    1.8773 H   0  0  0  0  0  0  0  0  0  0  0  0
    3.3115   -1.9712    2.4226 H   0  0  0  0  0  0  0  0  0  0  0  0
   -1.2712    1.3099    1.1517 C   0  0  0  0  0  0  0  0  0  0  0  0
   -2.2039    1.9448    0.6639 O   0  0  0  0  0  0  0  0  0  0  0  0
   -0.4306    1.8354    2.0503 N   0  0  0  0  0  0  0  0  0  0  0  0
    0.3001    1.2459    2.4139 H   0  0  0  0  0  0  0  0  0  0  0  0
   -0.5192    3.2082    2.5456 C   0  0  0  0  0  0  0  0  0  0  0  0
   -1.5166    3.3903    2.9518 H   0  0  0  0  0  0  0  0  0  0  0  0
    0.2240    3.3791    3.3257 H   0  0  0  0  0  0  0  0  0  0  0  0
   -0.3477    3.9067    1.7239 H   0  0  0  0  0  0  0  0  0  0  0  0
  5  6  2  0  0  0  0
  5  7  1  0  0  0  0
  2  3  1  0  0  0  0
  2  4  1  0  0  0  0
  2  5  1  0  0  0  0
  1  2  1  0  0  0  0
 26 27  2  0  0  0  0
 26 28  1  0  0  0  0
 23 24  1  0  0  0  0
 23 25  1  0  0  0  0
 20 21  1  0  0  0  0
 20 22  1  0  0  0  0
 20 23  1  0  0  0  0
 17 18  1  0  0  0  0
 17 19  1  0  0  0  0
 17 20  1  0  0  0  0
 14 15  1  0  0  0  0
 14 16  1  0  0  0  0
 14 17  1  0  0  0  0
 11 12  1  0  0  0  0
 11 13  1  0  0  0  0
 11 14  1  0  0  0  0
  9 10  1  0  0  0  0
  9 11  1  0  0  0  0
  9 26  1  0  0  0  0
  7  8  1  0  0  0  0
  7  9  1  0  0  0  0
 30 31  1  0  0  0  0
 30 32  1  0  0  0  0
 30 33  1  0  0  0  0
 28 29  1  0  0  0  0
 28 30  1  0  0  0  0
M  END
$$$$
default_name
  -OEChem-02102213163D

 33 32  0     1  0  0  0  0  0999 V2000
   -3.8420   -3.6918    1.5562 H   0  0  0  0  0  0  0  0  0  0  0  0
   -3.8430   -2.7008    1.1032 C   0  0  0  0  0  0  0  0  0  0  0  0
   -4.5510   -2.0608    1.6242 H   0  0  0  0  0  0  0  0  0  0  0  0
   -4.1140   -2.7798    0.0522 H   0  0  0  0  0  0  0  0  0  0  0  0
   -2.4570   -2.1098    1.2172 C   0  0  0  0  0  0  0  0  0  0  0  0
   -1.5600   -2.7438    1.7572 O   0  0  0  0  0  0  0  0  0  0  0  0
   -2.2870   -0.8898    0.7102 N   0  0  0  0  0  0  0  0  0  0  0  0
   -3.0820   -0.4218    0.2992 H   0  0  0  0  0  0  0  0  0  0  0  0
   -1.0240   -0.1468    0.7262 C   0  0  1  0  0  0  0  0  0  0  0  0
   -0.3583   -0.6100    1.4558 H   0  0  0  0  0  0  0  0  0  0  0  0
   -0.3739   -0.2459   -0.6675 C   0  0  0  0  0  0  0  0  0  0  0  0
   -1.1250   -0.6004   -1.3764 H   0  0  0  0  0  0  0  0  0  0  0  0
   -0.0484    0.7460   -0.9839 H   0  0  0  0  0  0  0  0  0  0  0  0
    0.8218   -1.2101   -0.7136 C   0  0  0  0  0  0  0  0  0  0  0  0
    0.6235   -2.0049   -1.4332 H   0  0  0  0  0  0  0  0  0  0  0  0
    1.7133   -0.6617   -1.0234 H   0  0  0  0  0  0  0  0  0  0  0  0
    1.0700   -1.8403    0.6615 C   0  0  0  0  0  0  0  0  0  0  0  0
    1.2624   -1.0564    1.3946 H   0  0  0  0  0  0  0  0  0  0  0  0
    0.1907   -2.4092    0.9648 H   0  0  0  0  0  0  0  0  0  0  0  0
    2.2772   -2.7737    0.5936 C   0  0  0  0  0  0  0  0  0  0  0  0
    2.0799   -3.5681   -0.1244 H   0  0  0  0  0  0  0  0  0  0  0  0
    3.1526   -2.2109    0.2737 H   0  0  0  0  0  0  0  0  0  0  0  0
    2.5578   -3.3770    1.9015 N   0  0  0  0  0  0  0  0  0  0  0  0
    3.3503   -3.9965    1.8167 H   0  0  0  0  0  0  0  0  0  0  0  0
    2.7730   -2.6458    2.5643 H   0  0  0  0  0  0  0  0  0  0  0  0
   -1.2712    1.3099    1.1517 C   0  0  0  0  0  0  0  0  0  0  0  0
   -2.2039    1.9448    0.6639 O   0  0  0  0  0  0  0  0  0  0  0  0
   -0.4306    1.8354    2.0503 N   0  0  0  0  0  0  0  0  0  0  0  0
    0.3001    1.2459    2.4139 H   0  0  0  0  0  0  0  0  0  0  0  0
   -0.5192    3.2082    2.5456 C   0  0  0  0  0  0  0  0  0  0  0  0
   -1.5166    3.3903    2.9518 H   0  0  0  0  0  0  0  0  0  0  0  0
    0.2240    3.3791    3.3257 H   0  0  0  0  0  0  0  0  0  0  0  0
   -0.3477    3.9067    1.7239 H   0  0  0  0  0  0  0  0  0  0  0  0
  5  6  2  0  0  0  0
  5  7  1  0  0  0  0
  2  3  1  0  0  0  0
  2  4  1  0  0  0  0
  2  5  1  0  0  0  0
  1  2  1  0  0  0  0
 26 27  2  0  0  0  0
 26 28  1  0  0  0  0
 23 24  1  0  0  0  0
 23 25  1  0  0  0  0
 20 21  1  0  0  0  0
 20 22  1  0  0  0  0
 20 23  1  0  0  0  0
 17 18  1  0  0  0  0
 17 19  1  0  0  0  0
 17 20  1  0  0  0  0
 14 15  1  0  0  0  0
 14 16  1  0  0  0  0
 14 17  1  0  0  0  0
 11 12  1  0  0  0  0
 11 13  1  0  0  0  0
 11 14  1  0  0  0  0
  9 10  1  0  0  0  0
  9 11  1  0  0  0  0
  9 26  1  0  0  0  0
  7  8  1  0  0  0  0
  7  9  1  0  0  0  0
 30 31  1  0  0  0  0
 30 32  1  0  0  0  0
 30 33  1  0  0  0  0
 28 29  1  0  0  0  0
 28 30  1  0  0  0  0
M  END
$$$$
default_name
  -OEChem-02102213163D

 33 32  0     1  0  0  0  0  0999 V2000
   -3.8420   -3.6918    1.5562 H   0  0  0  0  0  0  0  0  0  0  0  0
   -3.8430   -2.7008    1.1032 C   0  0  0  0  0  0  0  0  0  0  0  0
   -4.5510   -2.0608    1.6242 H   0  0  0  0  0  0  0  0  0  0  0  0
   -4.1140   -2.7798    0.0522 H   0  0  0  0  0  0  0  0  0  0  0  0
   -2.4570   -2.1098    1.2172 C   0  0  0  0  0  0  0  0  0  0  0  0
   -1.5600   -2.7438    1.7572 O   0  0  0  0  0  0  0  0  0  0  0  0
   -2.2870   -0.8898    0.7102 N   0  0  0  0  0  0  0  0  0  0  0  0
   -3.0820   -0.4218    0.2992 H   0  0  0  0  0  0  0  0  0  0  0  0
   -1.0240   -0.1468    0.7262 C   0  0  1  0  0  0  0  0  0  0  0  0
   -0.3583   -0.6100    1.4558 H   0  0  0  0  0  0  0  0  0  0  0  0
   -0.3739   -0.2459   -0.6675 C   0  0  0  0  0  0  0  0  0  0  0  0
   -1.1250   -0.6004   -1.3764 H   0  0  0  0  0  0  0  0  0  0  0  0
   -0.0484    0.7460   -0.9839 H   0  0  0  0  0  0  0  0  0  0  0  0
    0.8218   -1.2101   -0.7136 C   0  0  0  0  0  0  0  0  0  0  0  0
    0.7506   -1.8392   -1.6013 H   0  0  0  0  0  0  0  0  0  0  0  0
    1.7470   -0.6326   -0.7580 H   0  0  0  0  0  0  0  0  0  0  0  0
    0.8479   -2.1094    0.5275 C   0  0  0  0  0  0  0  0  0  0  0  0
    0.9111   -1.4935    1.4251 H   0  0  0  0  0  0  0  0  0  0  0  0
   -0.0641   -2.7060    0.5634 H   0  0  0  0  0  0  0  0  0  0  0  0
    2.0582   -3.0394    0.4684 C   0  0  0  0  0  0  0  0  0  0  0  0
    1.9878   -3.6684   -0.4176 H   0  0  0  0  0  0  0  0  0  0  0  0
    2.9690   -2.4453    0.4145 H   0  0  0  0  0  0  0  0  0  0  0  0
    2.1269   -3.8996    1.6552 N   0  0  0  0  0  0  0  0  0  0  0  0
    2.9281   -4.5086    1.5762 H   0  0  0  0  0  0  0  0  0  0  0  0
    2.2246   -3.3218    2.4780 H   0  0  0  0  0  0  0  0  0  0  0  0
   -1.2712    1.3099    1.1517 C   0  0  0  0  0  0  0  0  0  0  0  0
   -2.2039    1.9448    0.6639 O   0  0  0  0  0  0  0  0  0  0  0  0
   -0.4306    1.8354    2.0503 N   0  0  0  0  0  0  0  0  0  0  0  0
    0.3001    1.2459    2.4139 H   0  0  0  0  0  0  0  0  0  0  0  0
   -0.5192    3.2082    2.5456 C   0  0  0  0  0  0  0  0  0  0  0  0
   -1.5166    3.3903    2.9518 H   0  0  0  0  0  0  0  0  0  0  0  0
    0.2240    3.3791    3.3257 H   0  0  0  0  0  0  0  0  0  0  0  0
   -0.3477    3.9067    1.7239 H   0  0  0  0  0  0  0  0  0  0  0  0
  5  6  2  0  0  0  0
  5  7  1  0  0  0  0
  2  3  1  0  0  0  0
  2  4  1  0  0  0  0
  2  5  1  0  0  0  0
  1  2  1  0  0  0  0
 26 27  2  0  0  0  0
 26 28  1  0  0  0  0
 23 24  1  0  0  0  0
 23 25  1  0  0  0  0
 20 21  1  0  0  0  0
 20 22  1  0  0  0  0
 20 23  1  0  0  0  0
 17 18  1  0  0  0  0
 17 19  1  0  0  0  0
 17 20  1  0  0  0  0
 14 15  1  0  0  0  0
 14 16  1  0  0  0  0
 14 17  1  0  0  0  0
 11 12  1  0  0  0  0
 11 13  1  0  0  0  0
 11 14  1  0  0  0  0
  9 10  1  0  0  0  0
  9 11  1  0  0  0  0
  9 26  1  0  0  0  0
  7  8  1  0  0  0  0
  7  9  1  0  0  0  0
 30 31  1  0  0  0  0
 30 32  1  0  0  0  0
 30 33  1  0  0  0  0
 28 29  1  0  0  0  0
 28 30  1  0  0  0  0
M  END
$$$$
default_name
  -OEChem-02102213163D

 33 32  0     1  0  0  0  0  0999 V2000
   -3.8420   -3.6918    1.5562 H   0  0  0  0  0  0  0  0  0  0  0  0
   -3.8430   -2.7008    1.1032 C   0  0  0  0  0  0  0  0  0  0  0  0
   -4.5510   -2.0608    1.6242 H   0  0  0  0  0  0  0  0  0  0  0  0
   -4.1140   -2.7798    0.0522 H   0  0  0  0  0  0  0  0  0  0  0  0
   -2.4570   -2.1098    1.2172 C   0  0  0  0  0  0  0  0  0  0  0  0
   -1.5600   -2.7438    1.7572 O   0  0  0  0  0  0  0  0  0  0  0  0
   -2.2870   -0.8898    0.7102 N   0  0  0  0  0  0  0  0  0  0  0  0
   -3.0820   -0.4218    0.2992 H   0  0  0  0  0  0  0  0  0  0  0  0
   -1.0240   -0.1468    0.7262 C   0  0  1  0  0  0  0  0  0  0  0  0
   -0.3583   -0.6100    1.4558 H   0  0  0  0  0  0  0  0  0  0  0  0
   -0.3739   -0.2459   -0.6675 C   0  0  0  0  0  0  0  0  0  0  0  0
   -1.1250   -0.6004   -1.3764 H   0  0  0  0  0  0  0  0  0  0  0  0
   -0.0484    0.7460   -0.9839 H   0  0  0  0  0  0  0  0  0  0  0  0
    0.8218   -1.2101   -0.7136 C   0  0  0  0  0  0  0  0  0  0  0  0
    0.9020   -1.6463   -1.7097 H   0  0  0  0  0  0  0  0  0  0  0  0
    1.7367   -0.6582   -0.4903 H   0  0  0  0  0  0  0  0  0  0  0  0
    0.6530   -2.3406    0.3078 C   0  0  0  0  0  0  0  0  0  0  0  0
    0.5634   -1.9191    1.3095 H   0  0  0  0  0  0  0  0  0  0  0  0
   -0.2473   -2.9098    0.0746 H   0  0  0  0  0  0  0  0  0  0  0  0
    1.8649   -3.2690    0.2584 C   0  0  0  0  0  0  0  0  0  0  0  0
    1.9456   -3.7055   -0.7359 H   0  0  0  0  0  0  0  0  0  0  0  0
    2.7670   -2.6986    0.4735 H   0  0  0  0  0  0  0  0  0  0  0  0
    1.7467   -4.3514    1.2421 N   0  0  0  0  0  0  0  0  0  0  0  0
    2.5553   -4.9515    1.1723 H   0  0  0  0  0  0  0  0  0  0  0  0
    1.7036   -3.9531    2.1694 H   0  0  0  0  0  0  0  0  0  0  0  0
   -1.2712    1.3099    1.1517 C   0  0  0  0  0  0  0  0  0  0  0  0
   -2.2039    1.9448    0.6639 O   0  0  0  0  0  0  0  0  0  0  0  0
   -0.4306    1.8354    2.0503 N   0  0  0  0  0  0  0  0  0  0  0  0
    0.3001    1.2459    2.4139 H   0  0  0  0  0  0  0  0  0  0  0  0
   -0.5192    3.2082    2.5456 C   0  0  0  0  0  0  0  0  0  0  0  0
   -1.5166    3.3903    2.9518 H   0  0  0  0  0  0  0  0  0  0  0  0
    0.2240    3.3791    3.3257 H   0  0  0  0  0  0  0  0  0  0  0  0
   -0.3477    3.9067    1.7239 H   0  0  0  0  0  0  0  0  0  0  0  0
  5  6  2  0  0  0  0
  5  7  1  0  0  0  0
  2  3  1  0  0  0  0
  2  4  1  0  0  0  0
  2  5  1  0  0  0  0
  1  2  1  0  0  0  0
 26 27  2  0  0  0  0
 26 28  1  0  0  0  0
 23 24  1  0  0  0  0
 23 25  1  0  0  0  0
 20 21  1  0  0  0  0
 20 22  1  0  0  0  0
 20 23  1  0  0  0  0
 17 18  1  0  0  0  0
 17 19  1  0  0  0  0
 17 20  1  0  0  0  0
 14 15  1  0  0  0  0
 14 16  1  0  0  0  0
 14 17  1  0  0  0  0
 11 12  1  0  0  0  0
 11 13  1  0  0  0  0
 11 14  1  0  0  0  0
  9 10  1  0  0  0  0
  9 11  1  0  0  0  0
  9 26  1  0  0  0  0
  7  8  1  0  0  0  0
  7  9  1  0  0  0  0
 30 31  1  0  0  0  0
 30 32  1  0  0  0  0
 30 33  1  0  0  0  0
 28 29  1  0  0  0  0
 28 30  1  0  0  0  0
M  END
$$$$
default_name
  -OEChem-02102213163D

 33 32  0     1  0  0  0  0  0999 V2000
   -3.8420   -3.6918    1.5562 H   0  0  0  0  0  0  0  0  0  0  0  0
   -3.8430   -2.7008    1.1032 C   0  0  0  0  0  0  0  0  0  0  0  0
   -4.5510   -2.0608    1.6242 H   0  0  0  0  0  0  0  0  0  0  0  0
   -4.1140   -2.7798    0.0522 H   0  0  0  0  0  0  0  0  0  0  0  0
   -2.4570   -2.1098    1.2172 C   0  0  0  0  0  0  0  0  0  0  0  0
   -1.5600   -2.7438    1.7572 O   0  0  0  0  0  0  0  0  0  0  0  0
   -2.2870   -0.8898    0.7102 N   0  0  0  0  0  0  0  0  0  0  0  0
   -3.0820   -0.4218    0.2992 H   0  0  0  0  0  0  0  0  0  0  0  0
   -1.0240   -0.1468    0.7262 C   0  0  1  0  0  0  0  0  0  0  0  0
   -0.3583   -0.6100    1.4558 H   0  0  0  0  0  0  0  0  0  0  0  0
   -0.3739   -0.2459   -0.6675 C   0  0  0  0  0  0  0  0  0  0  0  0
   -1.1250   -0.6004   -1.3764 H   0  0  0  0  0  0  0  0  0  0  0  0
   -0.0484    0.7460   -0.9839 H   0  0  0  0  0  0  0  0  0  0  0  0
    0.8218   -1.2101   -0.7136 C   0  0  0  0  0  0  0  0  0  0  0  0
    1.0674   -1.4393   -1.7509 H   0  0  0  0  0  0  0  0  0  0  0  0
    1.6830   -0.7368   -0.2386 H   0  0  0  0  0  0  0  0  0  0  0  0
    0.4986   -2.5181    0.0173 C   0  0  0  0  0  0  0  0  0  0  0  0
    0.2430   -2.3043    1.0556 H   0  0  0  0  0  0  0  0  0  0  0  0
   -0.3465   -3.0068   -0.4684 H   0  0  0  0  0  0  0  0  0  0  0  0
    1.7105   -3.4470   -0.0221 C   0  0  0  0  0  0  0  0  0  0  0  0
    1.9562   -3.6769   -1.0577 H   0  0  0  0  0  0  0  0  0  0  0  0
    2.5603   -2.9536    0.4467 H   0  0  0  0  0  0  0  0  0  0  0  0
    1.4429   -4.7017    0.6904 N   0  0  0  0  0  0  0  0  0  0  0  0
    2.2575   -5.2951    0.6323 H   0  0  0  0  0  0  0  0  0  0  0  0
    1.2456   -4.4967    1.6596 H   0  0  0  0  0  0  0  0  0  0  0  0
   -1.2712    1.3099    1.1517 C   0  0  0  0  0  0  0  0  0  0  0  0
   -2.2039    1.9448    0.6639 O   0  0  0  0  0  0  0  0  0  0  0  0
   -0.4306    1.8354    2.0503 N   0  0  0  0  0  0  0  0  0  0  0  0
    0.3001    1.2459    2.4139 H   0  0  0  0  0  0  0  0  0  0  0  0
   -0.5192    3.2082    2.5456 C   0  0  0  0  0  0  0  0  0  0  0  0
   -1.5166    3.3903    2.9518 H   0  0  0  0  0  0  0  0  0  0  0  0
    0.2240    3.3791    3.3257 H   0  0  0  0  0  0  0  0  0  0  0  0
   -0.3477    3.9067    1.7239 H   0  0  0  0  0  0  0  0  0  0  0  0
  5  6  2  0  0  0  0
  5  7  1  0  0  0  0
  2  3  1  0  0  0  0
  2  4  1  0  0  0  0
  2  5  1  0  0  0  0
  1  2  1  0  0  0  0
 26 27  2  0  0  0  0
 26 28  1  0  0  0  0
 23 24  1  0  0  0  0
 23 25  1  0  0  0  0
 20 21  1  0  0  0  0
 20 22  1  0  0  0  0
 20 23  1  0  0  0  0
 17 18  1  0  0  0  0
 17 19  1  0  0  0  0
 17 20  1  0  0  0  0
 14 15  1  0  0  0  0
 14 16  1  0  0  0  0
 14 17  1  0  0  0  0
 11 12  1  0  0  0  0
 11 13  1  0  0  0  0
 11 14  1  0  0  0  0
  9 10  1  0  0  0  0
  9 11  1  0  0  0  0
  9 26  1  0  0  0  0
  7  8  1  0  0  0  0
  7  9  1  0  0  0  0
 30 31  1  0  0  0  0
 30 32  1  0  0  0  0
 30 33  1  0  0  0  0
 28 29  1  0  0  0  0
 28 30  1  0  0  0  0
M  END
$$$$
default_name
  -OEChem-02102213163D

 33 32  0     1  0  0  0  0  0999 V2000
   -3.8420   -3.6918    1.5562 H   0  0  0  0  0  0  0  0  0  0  0  0
   -3.8430   -2.7008    1.1032 C   0  0  0  0  0  0  0  0  0  0  0  0
   -4.5510   -2.0608    1.6242 H   0  0  0  0  0  0  0  0  0  0  0  0
   -4.1140   -2.7798    0.0522 H   0  0  0  0  0  0  0  0  0  0  0  0
   -2.4570   -2.1098    1.2172 C   0  0  0  0  0  0  0  0  0  0  0  0
   -1.5600   -2.7438    1.7572 O   0  0  0  0  0  0  0  0  0  0  0  0
   -2.2870   -0.8898    0.7102 N   0  0  0  0  0  0  0  0  0  0  0  0
   -3.0820   -0.4218    0.2992 H   0  0  0  0  0  0  0  0  0  0  0  0
   -1.0240   -0.1468    0.7262 C   0  0  1  0  0  0  0  0  0  0  0  0
   -0.3583   -0.6100    1.4558 H   0  0  0  0  0  0  0  0  0  0  0  0
   -0.3739   -0.2459   -0.6675 C   0  0  0  0  0  0  0  0  0  0  0  0
   -1.1250   -0.6004   -1.3764 H   0  0  0  0  0  0  0  0  0  0  0  0
   -0.0484    0.7460   -0.9839 H   0  0  0  0  0  0  0  0  0  0  0  0
    0.8218   -1.2101   -0.7136 C   0  0  0  0  0  0  0  0  0  0  0  0
    1.2354   -1.2323   -1.7222 H   0  0  0  0  0  0  0  0  0  0  0  0
    1.5897   -0.8629   -0.0199 H   0  0  0  0  0  0  0  0  0  0  0  0
    0.3953   -2.6300   -0.3241 C   0  0  0  0  0  0  0  0  0  0  0  0
   -0.0282   -2.6227    0.6808 H   0  0  0  0  0  0  0  0  0  0  0  0
   -0.3549   -2.9904   -1.0285 H   0  0  0  0  0  0  0  0  0  0  0  0
    1.6056   -3.5613   -0.3540 C   0  0  0  0  0  0  0  0  0  0  0  0
    2.0190   -3.5845   -1.3610 H   0  0  0  0  0  0  0  0  0  0  0  0
    2.3630   -3.1930    0.3359 H   0  0  0  0  0  0  0  0  0  0  0  0
    1.2364   -4.9265    0.0375 N   0  0  0  0  0  0  0  0  0  0  0  0
    2.0548   -5.5159   -0.0068 H   0  0  0  0  0  0  0  0  0  0  0  0
    0.8818   -4.9155    0.9833 H   0  0  0  0  0  0  0  0  0  0  0  0
   -1.2712    1.3099    1.1517 C   0  0  0  0  0  0  0  0  0  0  0  0
   -2.2039    1.9448    0.6639 O   0  0  0  0  0  0  0  0  0  0  0  0
   -0.4306    1.8354    2.0503 N   0  0  0  0  0  0  0  0  0  0  0  0
    0.3001    1.2459    2.4139 H   0  0  0  0  0  0  0  0  0  0  0  0
   -0.5192    3.2082    2.5456 C   0  0  0  0  0  0  0  0  0  0  0  0
   -1.5166    3.3903    2.9518 H   0  0  0  0  0  0  0  0  0  0  0  0
    0.2240    3.3791    3.3257 H   0  0  0  0  0  0  0  0  0  0  0  0
   -0.3477    3.9067    1.7239 H   0  0  0  0  0  0  0  0  0  0  0  0
  5  6  2  0  0  0  0
  5  7  1  0  0  0  0
  2  3  1  0  0  0  0
  2  4  1  0  0  0  0
  2  5  1  0  0  0  0
  1  2  1  0  0  0  0
 26 27  2  0  0  0  0
 26 28  1  0  0  0  0
 23 24  1  0  0  0  0
 23 25  1  0  0  0  0
 20 21  1  0  0  0  0
 20 22  1  0  0  0  0
 20 23  1  0  0  0  0
 17 18  1  0  0  0  0
 17 19  1  0  0  0  0
 17 20  1  0  0  0  0
 14 15  1  0  0  0  0
 14 16  1  0  0  0  0
 14 17  1  0  0  0  0
 11 12  1  0  0  0  0
 11 13  1  0  0  0  0
 11 14  1  0  0  0  0
  9 10  1  0  0  0  0
  9 11  1  0  0  0  0
  9 26  1  0  0  0  0
  7  8  1  0  0  0  0
  7  9  1  0  0  0  0
 30 31  1  0  0  0  0
 30 32  1  0  0  0  0
 30 33  1  0  0  0  0
 28 29  1  0  0  0  0
 28 30  1  0  0  0  0
M  END
$$$$
default_name
  -OEChem-02102213163D

 33 32  0     1  0  0  0  0  0999 V2000
   -3.8420   -3.6918    1.5562 H   0  0  0  0  0  0  0  0  0  0  0  0
   -3.8430   -2.7008    1.1032 C   0  0  0  0  0  0  0  0  0  0  0  0
   -4.5510   -2.0608    1.6242 H   0  0  0  0  0  0  0  0  0  0  0  0
   -4.1140   -2.7798    0.0522 H   0  0  0  0  0  0  0  0  0  0  0  0
   -2.4570   -2.1098    1.2172 C   0  0  0  0  0  0  0  0  0  0  0  0
   -1.5600   -2.7438    1.7572 O   0  0  0  0  0  0  0  0  0  0  0  0
   -2.2870   -0.8898    0.7102 N   0  0  0  0  0  0  0  0  0  0  0  0
   -3.0820   -0.4218    0.2992 H   0  0  0  0  0  0  0  0  0  0  0  0
   -1.0240   -0.1468    0.7262 C   0  0  1  0  0  0  0  0  0  0  0  0
   -0.3583   -0.6100    1.4558 H   0  0  0  0  0  0  0  0  0  0  0  0
   -0.3739   -0.2459   -0.6675 C   0  0  0  0  0  0  0  0  0  0  0  0
   -1.1250   -0.6004   -1.3764 H   0  0  0  0  0  0  0  0  0  0  0  0
   -0.0484    0.7460   -0.9839 H   0  0  0  0  0  0  0  0  0  0  0  0
    0.8218   -1.2101   -0.7136 C   0  0  0  0  0  0  0  0  0  0  0  0
    1.3946   -1.0394   -1.6255 H   0  0  0  0  0  0  0  0  0  0  0  0
    1.4631   -1.0281    0.1507 H   0  0  0  0  0  0  0  0  0  0  0  0
    0.3500   -2.6684   -0.6931 C   0  0  0  0  0  0  0  0  0  0  0  0
   -0.2318   -2.8527    0.2105 H   0  0  0  0  0  0  0  0  0  0  0  0
   -0.2719   -2.8617   -1.5676 H   0  0  0  0  0  0  0  0  0  0  0  0
    1.5572   -3.6041   -0.7146 C   0  0  0  0  0  0  0  0  0  0  0  0
    2.1296   -3.4347   -1.6252 H   0  0  0  0  0  0  0  0  0  0  0  0
    2.1886   -3.4003    0.1486 H   0  0  0  0  0  0  0  0  0  0  0  0
    1.1412   -5.0106   -0.6718 N   0  0  0  0  0  0  0  0  0  0  0  0
    1.9610   -5.5989   -0.7015 H   0  0  0  0  0  0  0  0  0  0  0  0
    0.6369   -5.1811    0.1866 H   0  0  0  0  0  0  0  0  0  0  0  0
   -1.2712    1.3099    1.1517 C   0  0  0  0  0  0  0  0  0  0  0  0
   -2.2039    1.9448    0.6639 O   0  0  0  0  0  0  0  0  0  0  0  0
   -0.4306    1.8354    2.0503 N   0  0  0  0  0  0  0  0  0  0  0  0
    0.3001    1.2459    2.4139 H   0  0  0  0  0  0  0  0  0  0  0  0
   -0.5192    3.2082    2.5456 C   0  0  0  0  0  0  0  0  0  0  0  0
   -1.5166    3.3903    2.9518 H   0  0  0  0  0  0  0  0  0  0  0  0
    0.2240    3.3791    3.3257 H   0  0  0  0  0  0  0  0  0  0  0  0
   -0.3477    3.9067    1.7239 H   0  0  0  0  0  0  0  0  0  0  0  0
  5  6  2  0  0  0  0
  5  7  1  0  0  0  0
  2  3  1  0  0  0  0
  2  4  1  0  0  0  0
  2  5  1  0  0  0  0
  1  2  1  0  0  0  0
 26 27  2  0  0  0  0
 26 28  1  0  0  0  0
 23 24  1  0  0  0  0
 23 25  1  0  0  0  0
 20 21  1  0  0  0  0
 20 22  1  0  0  0  0
 20 23  1  0  0  0  0
 17 18  1  0  0  0  0
 17 19  1  0  0  0  0
 17 20  1  0  0  0  0
 14 15  1  0  0  0  0
 14 16  1  0  0  0  0
 14 17  1  0  0  0  0
 11 12  1  0  0  0  0
 11 13  1  0  0  0  0
 11 14  1  0  0  0  0
  9 10  1  0  0  0  0
  9 11  1  0  0  0  0
  9 26  1  0  0  0  0
  7  8  1  0  0  0  0
  7  9  1  0  0  0  0
 30 31  1  0  0  0  0
 30 32  1  0  0  0  0
 30 33  1  0  0  0  0
 28 29  1  0  0  0  0
 28 30  1  0  0  0  0
M  END
$$$$
default_name
  -OEChem-02102213163D

 33 32  0     1  0  0  0  0  0999 V2000
   -3.8420   -3.6918    1.5562 H   0  0  0  0  0  0  0  0  0  0  0  0
   -3.8430   -2.7008    1.1032 C   0  0  0  0  0  0  0  0  0  0  0  0
   -4.5510   -2.0608    1.6242 H   0  0  0  0  0  0  0  0  0  0  0  0
   -4.1140   -2.7798    0.0522 H   0  0  0  0  0  0  0  0  0  0  0  0
   -2.4570   -2.1098    1.2172 C   0  0  0  0  0  0  0  0  0  0  0  0
   -1.5600   -2.7438    1.7572 O   0  0  0  0  0  0  0  0  0  0  0  0
   -2.2870   -0.8898    0.7102 N   0  0  0  0  0  0  0  0  0  0  0  0
   -3.0820   -0.4218    0.2992 H   0  0  0  0  0  0  0  0  0  0  0  0
   -1.0240   -0.1468    0.7262 C   0  0  1  0  0  0  0  0  0  0  0  0
   -0.3583   -0.6100    1.4558 H   0  0  0  0  0  0  0  0  0  0  0  0
   -0.3739   -0.2459   -0.6675 C   0  0  0  0  0  0  0  0  0  0  0  0
   -1.1250   -0.6004   -1.3764 H   0  0  0  0  0  0  0  0  0  0  0  0
   -0.0484    0.7460   -0.9839 H   0  0  0  0  0  0  0  0  0  0  0  0
    0.8218   -1.2101   -0.7136 C   0  0  0  0  0  0  0  0  0  0  0  0
    1.5342   -0.8739   -1.4675 H   0  0  0  0  0  0  0  0  0  0  0  0
    1.3119   -1.2210    0.2617 H   0  0  0  0  0  0  0  0  0  0  0  0
    0.3660   -2.6309   -1.0646 C   0  0  0  0  0  0  0  0  0  0  0  0
   -0.3539   -2.9786   -0.3230 H   0  0  0  0  0  0  0  0  0  0  0  0
   -0.1032   -2.6294   -2.0490 H   0  0  0  0  0  0  0  0  0  0  0  0
    1.5687   -3.5723   -1.0794 C   0  0  0  0  0  0  0  0  0  0  0  0
    2.2805   -3.2377   -1.8323 H   0  0  0  0  0  0  0  0  0  0  0  0
    2.0490   -3.5615   -0.1023 H   0  0  0  0  0  0  0  0  0  0  0  0
    1.1638   -4.9483   -1.3895 N   0  0  0  0  0  0  0  0  0  0  0  0
    1.9826   -5.5385   -1.4045 H   0  0  0  0  0  0  0  0  0  0  0  0
    0.5277   -5.2752   -0.6762 H   0  0  0  0  0  0  0  0  0  0  0  0
   -1.2712    1.3099    1.1517 C   0  0  0  0  0  0  0  0  0  0  0  0
   -2.2039    1.9448    0.6639 O   0  0  0  0  0  0  0  0  0  0  0  0
   -0.4306    1.8354    2.0503 N   0  0  0  0  0  0  0  0  0  0  0  0
    0.3001    1.2459    2.4139 H   0  0  0  0  0  0  0  0  0  0  0  0
   -0.5192    3.2082    2.5456 C   0  0  0  0  0  0  0  0  0  0  0  0
   -1.5166    3.3903    2.9518 H   0  0  0  0  0  0  0  0  0  0  0  0
    0.2240    3.3791    3.3257 H   0  0  0  0  0  0  0  0  0  0  0  0
   -0.3477    3.9067    1.7239 H   0  0  0  0  0  0  0  0  0  0  0  0
  5  6  2  0  0  0  0
  5  7  1  0  0  0  0
  2  3  1  0  0  0  0
  2  4  1  0  0  0  0
  2  5  1  0  0  0  0
  1  2  1  0  0  0  0
 26 27  2  0  0  0  0
 26 28  1  0  0  0  0
 23 24  1  0  0  0  0
 23 25  1  0  0  0  0
 20 21  1  0  0  0  0
 20 22  1  0  0  0  0
 20 23  1  0  0  0  0
 17 18  1  0  0  0  0
 17 19  1  0  0  0  0
 17 20  1  0  0  0  0
 14 15  1  0  0  0  0
 14 16  1  0  0  0  0
 14 17  1  0  0  0  0
 11 12  1  0  0  0  0
 11 13  1  0  0  0  0
 11 14  1  0  0  0  0
  9 10  1  0  0  0  0
  9 11  1  0  0  0  0
  9 26  1  0  0  0  0
  7  8  1  0  0  0  0
  7  9  1  0  0  0  0
 30 31  1  0  0  0  0
 30 32  1  0  0  0  0
 30 33  1  0  0  0  0
 28 29  1  0  0  0  0
 28 30  1  0  0  0  0
M  END
$$$$
default_name
  -OEChem-02102213163D

 33 32  0     1  0  0  0  0  0999 V2000
   -3.8420   -3.6918    1.5562 H   0  0  0  0  0  0  0  0  0  0  0  0
   -3.8430   -2.7008    1.1032 C   0  0  0  0  0  0  0  0  0  0  0  0
   -4.5510   -2.0608    1.6242 H   0  0  0  0  0  0  0  0  0  0  0  0
   -4.1140   -2.7798    0.0522 H   0  0  0  0  0  0  0  0  0  0  0  0
   -2.4570   -2.1098    1.2172 C   0  0  0  0  0  0  0  0  0  0  0  0
   -1.5600   -2.7438    1.7572 O   0  0  0  0  0  0  0  0  0  0  0  0
   -2.2870   -0.8898    0.7102 N   0  0  0  0  0  0  0  0  0  0  0  0
   -3.0820   -0.4218    0.2992 H   0  0  0  0  0  0  0  0  0  0  0  0
   -1.0240   -0.1468    0.7262 C   0  0  1  0  0  0  0  0  0  0  0  0
   -0.3583   -0.6100    1.4558 H   0  0  0  0  0  0  0  0  0  0  0  0
   -0.3739   -0.2459   -0.6675 C   0  0  0  0  0  0  0  0  0  0  0  0
   -1.1250   -0.6004   -1.3764 H   0  0  0  0  0  0  0  0  0  0  0  0
   -0.0484    0.7460   -0.9839 H   0  0  0  0  0  0  0  0  0  0  0  0
    0.8218   -1.2101   -0.7136 C   0  0  0  0  0  0  0  0  0  0  0  0
    1.6446   -0.7469   -1.2588 H   0  0  0  0  0  0  0  0  0  0  0  0
    1.1462   -1.4285    0.3054 H   0  0  0  0  0  0  0  0  0  0  0  0
    0.4420   -2.5199   -1.4134 C   0  0  0  0  0  0  0  0  0  0  0  0
   -0.3861   -2.9918   -0.8836 H   0  0  0  0  0  0  0  0  0  0  0  0
    0.1398   -2.3095   -2.4397 H   0  0  0  0  0  0  0  0  0  0  0  0
    1.6393   -3.4683   -1.4235 C   0  0  0  0  0  0  0  0  0  0  0  0
    2.4614   -3.0068   -1.9681 H   0  0  0  0  0  0  0  0  0  0  0  0
    1.9536   -3.6656   -0.3999 H   0  0  0  0  0  0  0  0  0  0  0  0
    1.3027   -4.7437   -2.0664 N   0  0  0  0  0  0  0  0  0  0  0  0
    2.1182   -5.3387   -2.0679 H   0  0  0  0  0  0  0  0  0  0  0  0
    0.5616   -5.1916   -1.5462 H   0  0  0  0  0  0  0  0  0  0  0  0
   -1.2712    1.3099    1.1517 C   0  0  0  0  0  0  0  0  0  0  0  0
   -2.2039    1.9448    0.6639 O   0  0  0  0  0  0  0  0  0  0  0  0
   -0.4306    1.8354    2.0503 N   0  0  0  0  0  0  0  0  0  0  0  0
    0.3001    1.2459    2.4139 H   0  0  0  0  0  0  0  0  0  0  0  0
   -0.5192    3.2082    2.5456 C   0  0  0  0  0  0  0  0  0  0  0  0
   -1.5166    3.3903    2.9518 H   0  0  0  0  0  0  0  0  0  0  0  0
    0.2240    3.3791    3.3257 H   0  0  0  0  0  0  0  0  0  0  0  0
   -0.3477    3.9067    1.7239 H   0  0  0  0  0  0  0  0  0  0  0  0
  5  6  2  0  0  0  0
  5  7  1  0  0  0  0
  2  3  1  0  0  0  0
  2  4  1  0  0  0  0
  2  5  1  0  0  0  0
  1  2  1  0  0  0  0
 26 27  2  0  0  0  0
 26 28  1  0  0  0  0
 23 24  1  0  0  0  0
 23 25  1  0  0  0  0
 20 21  1  0  0  0  0
 20 22  1  0  0  0  0
 20 23  1  0  0  0  0
 17 18  1  0  0  0  0
 17 19  1  0  0  0  0
 17 20  1  0  0  0  0
 14 15  1  0  0  0  0
 14 16  1  0  0  0  0
 14 17  1  0  0  0  0
 11 12  1  0  0  0  0
 11 13  1  0  0  0  0
 11 14  1  0  0  0  0
  9 10  1  0  0  0  0
  9 11  1  0  0  0  0
  9 26  1  0  0  0  0
  7  8  1  0  0  0  0
  7  9  1  0  0  0  0
 30 31  1  0  0  0  0
 30 32  1  0  0  0  0
 30 33  1  0  0  0  0
 28 29  1  0  0  0  0
 28 30  1  0  0  0  0
M  END
$$$$
default_name
  -OEChem-02102213163D

 33 32  0     1  0  0  0  0  0999 V2000
   -3.8420   -3.6918    1.5562 H   0  0  0  0  0  0  0  0  0  0  0  0
   -3.8430   -2.7008    1.1032 C   0  0  0  0  0  0  0  0  0  0  0  0
   -4.5510   -2.0608    1.6242 H   0  0  0  0  0  0  0  0  0  0  0  0
   -4.1140   -2.7798    0.0522 H   0  0  0  0  0  0  0  0  0  0  0  0
   -2.4570   -2.1098    1.2172 C   0  0  0  0  0  0  0  0  0  0  0  0
   -1.5600   -2.7438    1.7572 O   0  0  0  0  0  0  0  0  0  0  0  0
   -2.2870   -0.8898    0.7102 N   0  0  0  0  0  0  0  0  0  0  0  0
   -3.0820   -0.4218    0.2992 H   0  0  0  0  0  0  0  0  0  0  0  0
   -1.0240   -0.1468    0.7262 C   0  0  1  0  0  0  0  0  0  0  0  0
   -0.3583   -0.6100    1.4558 H   0  0  0  0  0  0  0  0  0  0  0  0
   -0.3739   -0.2459   -0.6675 C   0  0  0  0  0  0  0  0  0  0  0  0
   -1.1250   -0.6004   -1.3764 H   0  0  0  0  0  0  0  0  0  0  0  0
   -0.0484    0.7460   -0.9839 H   0  0  0  0  0  0  0  0  0  0  0  0
    0.8218   -1.2101   -0.7136 C   0  0  0  0  0  0  0  0  0  0  0  0
    1.7184   -0.6671   -1.0136 H   0  0  0  0  0  0  0  0  0  0  0  0
    0.9775   -1.6365    0.2790 H   0  0  0  0  0  0  0  0  0  0  0  0
    0.5729   -2.3431   -1.7156 C   0  0  0  0  0  0  0  0  0  0  0  0
   -0.3263   -2.8914   -1.4329 H   0  0  0  0  0  0  0  0  0  0  0  0
    0.4404   -1.9236   -2.7133 H   0  0  0  0  0  0  0  0  0  0  0  0
    1.7642   -3.2991   -1.7235 C   0  0  0  0  0  0  0  0  0  0  0  0
    2.6600   -2.7579   -2.0234 H   0  0  0  0  0  0  0  0  0  0  0  0
    1.9090   -3.7054   -0.7238 H   0  0  0  0  0  0  0  0  0  0  0  0
    1.5483   -4.4109   -2.6565 N   0  0  0  0  0  0  0  0  0  0  0  0
    2.3583   -5.0132   -2.6464 H   0  0  0  0  0  0  0  0  0  0  0  0
    0.7363   -4.9358   -2.3643 H   0  0  0  0  0  0  0  0  0  0  0  0
   -1.2712    1.3099    1.1517 C   0  0  0  0  0  0  0  0  0  0  0  0
   -2.2039    1.9448    0.6639 O   0  0  0  0  0  0  0  0  0  0  0  0
   -0.4306    1.8354    2.0503 N   0  0  0  0  0  0  0  0  0  0  0  0
    0.3001    1.2459    2.4139 H   0  0  0  0  0  0  0  0  0  0  0  0
   -0.5192    3.2082    2.5456 C   0  0  0  0  0  0  0  0  0  0  0  0
   -1.5166    3.3903    2.9518 H   0  0  0  0  0  0  0  0  0  0  0  0
    0.2240    3.3791    3.3257 H   0  0  0  0  0  0  0  0  0  0  0  0
   -0.3477    3.9067    1.7239 H   0  0  0  0  0  0  0  0  0  0  0  0
  5  6  2  0  0  0  0
  5  7  1  0  0  0  0
  2  3  1  0  0  0  0
  2  4  1  0  0  0  0
  2  5  1  0  0  0  0
  1  2  1  0  0  0  0
 26 27  2  0  0  0  0
 26 28  1  0  0  0  0
 23 24  1  0  0  0  0
 23 25  1  0  0  0  0
 20 21  1  0  0  0  0
 20 22  1  0  0  0  0
 20 23  1  0  0  0  0
 17 18  1  0  0  0  0
 17 19  1  0  0  0  0
 17 20  1  0  0  0  0
 14 15  1  0  0  0  0
 14 16  1  0  0  0  0
 14 17  1  0  0  0  0
 11 12  1  0  0  0  0
 11 13  1  0  0  0  0
 11 14  1  0  0  0  0
  9 10  1  0  0  0  0
  9 11  1  0  0  0  0
  9 26  1  0  0  0  0
  7  8  1  0  0  0  0
  7  9  1  0  0  0  0
 30 31  1  0  0  0  0
 30 32  1  0  0  0  0
 30 33  1  0  0  0  0
 28 29  1  0  0  0  0
 28 30  1  0  0  0  0
M  END
$$$$
default_name
  -OEChem-02102213163D

 33 32  0     1  0  0  0  0  0999 V2000
   -3.8420   -3.6918    1.5562 H   0  0  0  0  0  0  0  0  0  0  0  0
   -3.8430   -2.7008    1.1032 C   0  0  0  0  0  0  0  0  0  0  0  0
   -4.5510   -2.0608    1.6242 H   0  0  0  0  0  0  0  0  0  0  0  0
   -4.1140   -2.7798    0.0522 H   0  0  0  0  0  0  0  0  0  0  0  0
   -2.4570   -2.1098    1.2172 C   0  0  0  0  0  0  0  0  0  0  0  0
   -1.5600   -2.7438    1.7572 O   0  0  0  0  0  0  0  0  0  0  0  0
   -2.2870   -0.8898    0.7102 N   0  0  0  0  0  0  0  0  0  0  0  0
   -3.0820   -0.4218    0.2992 H   0  0  0  0  0  0  0  0  0  0  0  0
   -1.0240   -0.1468    0.7262 C   0  0  1  0  0  0  0  0  0  0  0  0
   -0.3583   -0.6100    1.4558 H   0  0  0  0  0  0  0  0  0  0  0  0
   -0.3739   -0.2459   -0.6675 C   0  0  0  0  0  0  0  0  0  0  0  0
   -1.1250   -0.6004   -1.3764 H   0  0  0  0  0  0  0  0  0  0  0  0
   -0.0484    0.7460   -0.9839 H   0  0  0  0  0  0  0  0  0  0  0  0
    0.8218   -1.2101   -0.7136 C   0  0  0  0  0  0  0  0  0  0  0  0
    1.7505   -0.6400   -0.7488 H   0  0  0  0  0  0  0  0  0  0  0  0
    0.8172   -1.8308    0.1843 H   0  0  0  0  0  0  0  0  0  0  0  0
    0.7498   -2.1125   -1.9506 C   0  0  0  0  0  0  0  0  0  0  0  0
   -0.1786   -2.6842   -1.9337 H   0  0  0  0  0  0  0  0  0  0  0  0
    0.7781   -1.4981   -2.8510 H   0  0  0  0  0  0  0  0  0  0  0  0
    1.9348   -3.0762   -1.9588 C   0  0  0  0  0  0  0  0  0  0  0  0
    2.8628   -2.5078   -1.9945 H   0  0  0  0  0  0  0  0  0  0  0  0
    1.9181   -3.6784   -1.0519 H   0  0  0  0  0  0  0  0  0  0  0  0
    1.8840   -3.9725   -3.1197 N   0  0  0  0  0  0  0  0  0  0  0  0
    2.6868   -4.5841   -3.1006 H   0  0  0  0  0  0  0  0  0  0  0  0
    1.0398   -4.5254   -3.0746 H   0  0  0  0  0  0  0  0  0  0  0  0
   -1.2712    1.3099    1.1517 C   0  0  0  0  0  0  0  0  0  0  0  0
   -2.2039    1.9448    0.6639 O   0  0  0  0  0  0  0  0  0  0  0  0
   -0.4306    1.8354    2.0503 N   0  0  0  0  0  0  0  0  0  0  0  0
    0.3001    1.2459    2.4139 H   0  0  0  0  0  0  0  0  0  0  0  0
   -0.5192    3.2082    2.5456 C   0  0  0  0  0  0  0  0  0  0  0  0
   -1.5166    3.3903    2.9518 H   0  0  0  0  0  0  0  0  0  0  0  0
    0.2240    3.3791    3.3257 H   0  0  0  0  0  0  0  0  0  0  0  0
   -0.3477    3.9067    1.7239 H   0  0  0  0  0  0  0  0  0  0  0  0
  5  6  2  0  0  0  0
  5  7  1  0  0  0  0
  2  3  1  0  0  0  0
  2  4  1  0  0  0  0
  2  5  1  0  0  0  0
  1  2  1  0  0  0  0
 26 27  2  0  0  0  0
 26 28  1  0  0  0  0
 23 24  1  0  0  0  0
 23 25  1  0  0  0  0
 20 21  1  0  0  0  0
 20 22  1  0  0  0  0
 20 23  1  0  0  0  0
 17 18  1  0  0  0  0
 17 19  1  0  0  0  0
 17 20  1  0  0  0  0
 14 15  1  0  0  0  0
 14 16  1  0  0  0  0
 14 17  1  0  0  0  0
 11 12  1  0  0  0  0
 11 13  1  0  0  0  0
 11 14  1  0  0  0  0
  9 10  1  0  0  0  0
  9 11  1  0  0  0  0
  9 26  1  0  0  0  0
  7  8  1  0  0  0  0
  7  9  1  0  0  0  0
 30 31  1  0  0  0  0
 30 32  1  0  0  0  0
 30 33  1  0  0  0  0
 28 29  1  0  0  0  0
 28 30  1  0  0  0  0
M  END
$$$$
default_name
  -OEChem-02102213163D

 33 32  0     1  0  0  0  0  0999 V2000
   -3.8420   -3.6918    1.5562 H   0  0  0  0  0  0  0  0  0  0  0  0
   -3.8430   -2.7008    1.1032 C   0  0  0  0  0  0  0  0  0  0  0  0
   -4.5510   -2.0608    1.6242 H   0  0  0  0  0  0  0  0  0  0  0  0
   -4.1140   -2.7798    0.0522 H   0  0  0  0  0  0  0  0  0  0  0  0
   -2.4570   -2.1098    1.2172 C   0  0  0  0  0  0  0  0  0  0  0  0
   -1.5600   -2.7438    1.7572 O   0  0  0  0  0  0  0  0  0  0  0  0
   -2.2870   -0.8898    0.7102 N   0  0  0  0  0  0  0  0  0  0  0  0
   -3.0820   -0.4218    0.2992 H   0  0  0  0  0  0  0  0  0  0  0  0
   -1.0240   -0.1468    0.7262 C   0  0  1  0  0  0  0  0  0  0  0  0
   -0.3583   -0.6100    1.4558 H   0  0  0  0  0  0  0  0  0  0  0  0
   -0.3739   -0.2459   -0.6675 C   0  0  0  0  0  0  0  0  0  0  0  0
   -1.1250   -0.6004   -1.3764 H   0  0  0  0  0  0  0  0  0  0  0  0
   -0.0484    0.7460   -0.9839 H   0  0  0  0  0  0  0  0  0  0  0  0
    0.8218   -1.2101   -0.7136 C   0  0  0  0  0  0  0  0  0  0  0  0
    1.7387   -0.6673   -0.4824 H   0  0  0  0  0  0  0  0  0  0  0  0
    0.6763   -1.9981    0.0276 H   0  0  0  0  0  0  0  0  0  0  0  0
    0.9606   -1.8438   -2.1024 C   0  0  0  0  0  0  0  0  0  0  0  0
    0.0470   -2.3844   -2.3516 H   0  0  0  0  0  0  0  0  0  0  0  0
    1.1301   -1.0621   -2.8435 H   0  0  0  0  0  0  0  0  0  0  0  0
    2.1396   -2.8149   -2.1136 C   0  0  0  0  0  0  0  0  0  0  0  0
    3.0559   -2.2737   -1.8833 H   0  0  0  0  0  0  0  0  0  0  0  0
    1.9805   -3.5862   -1.3619 H   0  0  0  0  0  0  0  0  0  0  0  0
    2.2868   -3.4583   -3.4242 N   0  0  0  0  0  0  0  0  0  0  0  0
    3.0812   -4.0807   -3.3996 H   0  0  0  0  0  0  0  0  0  0  0  0
    1.4516   -3.9883   -3.6288 H   0  0  0  0  0  0  0  0  0  0  0  0
   -1.2712    1.3099    1.1517 C   0  0  0  0  0  0  0  0  0  0  0  0
   -2.2039    1.9448    0.6639 O   0  0  0  0  0  0  0  0  0  0  0  0
   -0.4306    1.8354    2.0503 N   0  0  0  0  0  0  0  0  0  0  0  0
    0.3001    1.2459    2.4139 H   0  0  0  0  0  0  0  0  0  0  0  0
   -0.5192    3.2082    2.5456 C   0  0  0  0  0  0  0  0  0  0  0  0
   -1.5166    3.3903    2.9518 H   0  0  0  0  0  0  0  0  0  0  0  0
    0.2240    3.3791    3.3257 H   0  0  0  0  0  0  0  0  0  0  0  0
   -0.3477    3.9067    1.7239 H   0  0  0  0  0  0  0  0  0  0  0  0
  5  6  2  0  0  0  0
  5  7  1  0  0  0  0
  2  3  1  0  0  0  0
  2  4  1  0  0  0  0
  2  5  1  0  0  0  0
  1  2  1  0  0  0  0
 26 27  2  0  0  0  0
 26 28  1  0  0  0  0
 23 24  1  0  0  0  0
 23 25  1  0  0  0  0
 20 21  1  0  0  0  0
 20 22  1  0  0  0  0
 20 23  1  0  0  0  0
 17 18  1  0  0  0  0
 17 19  1  0  0  0  0
 17 20  1  0  0  0  0
 14 15  1  0  0  0  0
 14 16  1  0  0  0  0
 14 17  1  0  0  0  0
 11 12  1  0  0  0  0
 11 13  1  0  0  0  0
 11 14  1  0  0  0  0
  9 10  1  0  0  0  0
  9 11  1  0  0  0  0
  9 26  1  0  0  0  0
  7  8  1  0  0  0  0
  7  9  1  0  0  0  0
 30 31  1  0  0  0  0
 30 32  1  0  0  0  0
 30 33  1  0  0  0  0
 28 29  1  0  0  0  0
 28 30  1  0  0  0  0
M  END
$$$$
default_name
  -OEChem-02102213163D

 33 32  0     1  0  0  0  0  0999 V2000
   -3.8420   -3.6918    1.5562 H   0  0  0  0  0  0  0  0  0  0  0  0
   -3.8430   -2.7008    1.1032 C   0  0  0  0  0  0  0  0  0  0  0  0
   -4.5510   -2.0608    1.6242 H   0  0  0  0  0  0  0  0  0  0  0  0
   -4.1140   -2.7798    0.0522 H   0  0  0  0  0  0  0  0  0  0  0  0
   -2.4570   -2.1098    1.2172 C   0  0  0  0  0  0  0  0  0  0  0  0
   -1.5600   -2.7438    1.7572 O   0  0  0  0  0  0  0  0  0  0  0  0
   -2.2870   -0.8898    0.7102 N   0  0  0  0  0  0  0  0  0  0  0  0
   -3.0820   -0.4218    0.2992 H   0  0  0  0  0  0  0  0  0  0  0  0
   -1.0240   -0.1468    0.7262 C   0  0  1  0  0  0  0  0  0  0  0  0
   -0.3583   -0.6100    1.4558 H   0  0  0  0  0  0  0  0  0  0  0  0
   -0.3739   -0.2459   -0.6675 C   0  0  0  0  0  0  0  0  0  0  0  0
   -1.1250   -0.6004   -1.3764 H   0  0  0  0  0  0  0  0  0  0  0  0
   -0.0484    0.7460   -0.9839 H   0  0  0  0  0  0  0  0  0  0  0  0
    0.8218   -1.2101   -0.7136 C   0  0  0  0  0  0  0  0  0  0  0  0
    1.6839   -0.7473   -0.2324 H   0  0  0  0  0  0  0  0  0  0  0  0
    0.5643   -2.1270   -0.1804 H   0  0  0  0  0  0  0  0  0  0  0  0
    1.1910   -1.5553   -2.1607 C   0  0  0  0  0  0  0  0  0  0  0  0
    0.3351   -2.0124   -2.6583 H   0  0  0  0  0  0  0  0  0  0  0  0
    1.4722   -0.6451   -2.6912 H   0  0  0  0  0  0  0  0  0  0  0  0
    2.3646   -2.5328   -2.1772 C   0  0  0  0  0  0  0  0  0  0  0  0
    3.2261   -2.0714   -1.6973 H   0  0  0  0  0  0  0  0  0  0  0  0
    2.0917   -3.4353   -1.6326 H   0  0  0  0  0  0  0  0  0  0  0  0
    2.7294   -2.9035   -3.5494 N   0  0  0  0  0  0  0  0  0  0  0  0
    3.5146   -3.5373   -3.5230 H   0  0  0  0  0  0  0  0  0  0  0  0
    1.9435   -3.3610   -3.9891 H   0  0  0  0  0  0  0  0  0  0  0  0
   -1.2712    1.3099    1.1517 C   0  0  0  0  0  0  0  0  0  0  0  0
   -2.2039    1.9448    0.6639 O   0  0  0  0  0  0  0  0  0  0  0  0
   -0.4306    1.8354    2.0503 N   0  0  0  0  0  0  0  0  0  0  0  0
    0.3001    1.2459    2.4139 H   0  0  0  0  0  0  0  0  0  0  0  0
   -0.5192    3.2082    2.5456 C   0  0  0  0  0  0  0  0  0  0  0  0
   -1.5166    3.3903    2.9518 H   0  0  0  0  0  0  0  0  0  0  0  0
    0.2240    3.3791    3.3257 H   0  0  0  0  0  0  0  0  0  0  0  0
   -0.3477    3.9067    1.7239 H   0  0  0  0  0  0  0  0  0  0  0  0
  5  6  2  0  0  0  0
  5  7  1  0  0  0  0
  2  3  1  0  0  0  0
  2  4  1  0  0  0  0
  2  5  1  0  0  0  0
  1  2  1  0  0  0  0
 26 27  2  0  0  0  0
 26 28  1  0  0  0  0
 23 24  1  0  0  0  0
 23 25  1  0  0  0  0
 20 21  1  0  0  0  0
 20 22  1  0  0  0  0
 20 23  1  0  0  0  0
 17 18  1  0  0  0  0
 17 19  1  0  0  0  0
 17 20  1  0  0  0  0
 14 15  1  0  0  0  0
 14 16  1  0  0  0  0
 14 17  1  0  0  0  0
 11 12  1  0  0  0  0
 11 13  1  0  0  0  0
 11 14  1  0  0  0  0
  9 10  1  0  0  0  0
  9 11  1  0  0  0  0
  9 26  1  0  0  0  0
  7  8  1  0  0  0  0
  7  9  1  0  0  0  0
 30 31  1  0  0  0  0
 30 32  1  0  0  0  0
 30 33  1  0  0  0  0
 28 29  1  0  0  0  0
 28 30  1  0  0  0  0
M  END
$$$$
default_name
  -OEChem-02102213163D

 33 32  0     1  0  0  0  0  0999 V2000
   -3.8420   -3.6918    1.5562 H   0  0  0  0  0  0  0  0  0  0  0  0
   -3.8430   -2.7008    1.1032 C   0  0  0  0  0  0  0  0  0  0  0  0
   -4.5510   -2.0608    1.6242 H   0  0  0  0  0  0  0  0  0  0  0  0
   -4.1140   -2.7798    0.0522 H   0  0  0  0  0  0  0  0  0  0  0  0
   -2.4570   -2.1098    1.2172 C   0  0  0  0  0  0  0  0  0  0  0  0
   -1.5600   -2.7438    1.7572 O   0  0  0  0  0  0  0  0  0  0  0  0
   -2.2870   -0.8898    0.7102 N   0  0  0  0  0  0  0  0  0  0  0  0
   -3.0820   -0.4218    0.2992 H   0  0  0  0  0  0  0  0  0  0  0  0
   -1.0240   -0.1468    0.7262 C   0  0  1  0  0  0  0  0  0  0  0  0
   -0.3583   -0.6100    1.4558 H   0  0  0  0  0  0  0  0  0  0  0  0
   -0.3739   -0.2459   -0.6675 C   0  0  0  0  0  0  0  0  0  0  0  0
   -1.1656   -0.3359   -1.4141 H   0  0  0  0  0  0  0  0  0  0  0  0
    0.1831    0.6698   -0.8705 H   0  0  0  0  0  0  0  0  0  0  0  0
    0.5649   -1.4534   -0.8161 C   0  0  0  0  0  0  0  0  0  0  0  0
    1.3688   -1.3845   -0.0828 H   0  0  0  0  0  0  0  0  0  0  0  0
   -0.0002   -2.3709   -0.6420 H   0  0  0  0  0  0  0  0  0  0  0  0
    1.1800   -1.4989   -2.2194 C   0  0  0  0  0  0  0  0  0  0  0  0
    0.3870   -1.5601   -2.9654 H   0  0  0  0  0  0  0  0  0  0  0  0
    1.7654   -0.5948   -2.3893 H   0  0  0  0  0  0  0  0  0  0  0  0
    2.0880   -2.7205   -2.3480 C   0  0  0  0  0  0  0  0  0  0  0  0
    2.8914   -2.6523   -1.6163 H   0  0  0  0  0  0  0  0  0  0  0  0
    1.5089   -3.6233   -2.1611 H   0  0  0  0  0  0  0  0  0  0  0  0
    2.6759   -2.8078   -3.6896 N   0  0  0  0  0  0  0  0  0  0  0  0
    3.2790   -3.6161   -3.7344 H   0  0  0  0  0  0  0  0  0  0  0  0
    1.9357   -2.9035   -4.3702 H   0  0  0  0  0  0  0  0  0  0  0  0
   -1.2712    1.3099    1.1517 C   0  0  0  0  0  0  0  0  0  0  0  0
   -2.2039    1.9448    0.6639 O   0  0  0  0  0  0  0  0  0  0  0  0
   -0.4306    1.8354    2.0503 N   0  0  0  0  0  0  0  0  0  0  0  0
    0.3001    1.2459    2.4139 H   0  0  0  0  0  0  0  0  0  0  0  0
   -0.5192    3.2082    2.5456 C   0  0  0  0  0  0  0  0  0  0  0  0
   -1.5166    3.3903    2.9518 H   0  0  0  0  0  0  0  0  0  0  0  0
    0.2240    3.3791    3.3257 H   0  0  0  0  0  0  0  0  0  0  0  0
   -0.3477    3.9067    1.7239 H   0  0  0  0  0  0  0  0  0  0  0  0
  5  6  2  0  0  0  0
  5  7  1  0  0  0  0
  2  3  1  0  0  0  0
  2  4  1  0  0  0  0
  2  5  1  0  0  0  0
  1  2  1  0  0  0  0
 26 27  2  0  0  0  0
 26 28  1  0  0  0  0
 23 24  1  0  0  0  0
 23 25  1  0  0  0  0
 20 21  1  0  0  0  0
 20 22  1  0  0  0  0
 20 23  1  0  0  0  0
 17 18  1  0  0  0  0
 17 19  1  0  0  0  0
 17 20  1  0  0  0  0
 14 15  1  0  0  0  0
 14 16  1  0  0  0  0
 14 17  1  0  0  0  0
 11 12  1  0  0  0  0
 11 13  1  0  0  0  0
 11 14  1  0  0  0  0
  9 10  1  0  0  0  0
  9 11  1  0  0  0  0
  9 26  1  0  0  0  0
  7  8  1  0  0  0  0
  7  9  1  0  0  0  0
 30 31  1  0  0  0  0
 30 32  1  0  0  0  0
 30 33  1  0  0  0  0
 28 29  1  0  0  0  0
 28 30  1  0  0  0  0
M  END
$$$$
default_name
  -OEChem-02102213163D

 33 32  0     1  0  0  0  0  0999 V2000
   -3.8420   -3.6918    1.5562 H   0  0  0  0  0  0  0  0  0  0  0  0
   -3.8430   -2.7008    1.1032 C   0  0  0  0  0  0  0  0  0  0  0  0
   -4.5510   -2.0608    1.6242 H   0  0  0  0  0  0  0  0  0  0  0  0
   -4.1140   -2.7798    0.0522 H   0  0  0  0  0  0  0  0  0  0  0  0
   -2.4570   -2.1098    1.2172 C   0  0  0  0  0  0  0  0  0  0  0  0
   -1.5600   -2.7438    1.7572 O   0  0  0  0  0  0  0  0  0  0  0  0
   -2.2870   -0.8898    0.7102 N   0  0  0  0  0  0  0  0  0  0  0  0
   -3.0820   -0.4218    0.2992 H   0  0  0  0  0  0  0  0  0  0  0  0
   -1.0240   -0.1468    0.7262 C   0  0  1  0  0  0  0  0  0  0  0  0
   -0.3583   -0.6100    1.4558 H   0  0  0  0  0  0  0  0  0  0  0  0
   -0.3739   -0.2459   -0.6675 C   0  0  0  0  0  0  0  0  0  0  0  0
   -1.1656   -0.3359   -1.4141 H   0  0  0  0  0  0  0  0  0  0  0  0
    0.1831    0.6698   -0.8705 H   0  0  0  0  0  0  0  0  0  0  0  0
    0.5649   -1.4534   -0.8161 C   0  0  0  0  0  0  0  0  0  0  0  0
    1.2016   -1.5327    0.0654 H   0  0  0  0  0  0  0  0  0  0  0  0
   -0.0318   -2.3627   -0.9091 H   0  0  0  0  0  0  0  0  0  0  0  0
    1.4547   -1.3056   -2.0555 C   0  0  0  0  0  0  0  0  0  0  0  0
    0.8313   -1.2171   -2.9458 H   0  0  0  0  0  0  0  0  0  0  0  0
    2.0703   -0.4110   -1.9565 H   0  0  0  0  0  0  0  0  0  0  0  0
    2.3591   -2.5288   -2.1932 C   0  0  0  0  0  0  0  0  0  0  0  0
    2.9957   -2.6085   -1.3135 H   0  0  0  0  0  0  0  0  0  0  0  0
    1.7461   -3.4249   -2.2744 H   0  0  0  0  0  0  0  0  0  0  0  0
    3.2093   -2.4306   -3.3852 N   0  0  0  0  0  0  0  0  0  0  0  0
    3.8016   -3.2464   -3.4369 H   0  0  0  0  0  0  0  0  0  0  0  0
    2.6238   -2.3885   -4.2073 H   0  0  0  0  0  0  0  0  0  0  0  0
   -1.2712    1.3099    1.1517 C   0  0  0  0  0  0  0  0  0  0  0  0
   -2.2039    1.9448    0.6639 O   0  0  0  0  0  0  0  0  0  0  0  0
   -0.4306    1.8354    2.0503 N   0  0  0  0  0  0  0  0  0  0  0  0
    0.3001    1.2459    2.4139 H   0  0  0  0  0  0  0  0  0  0  0  0
   -0.5192    3.2082    2.5456 C   0  0  0  0  0  0  0  0  0  0  0  0
   -1.5166    3.3903    2.9518 H   0  0  0  0  0  0  0  0  0  0  0  0
    0.2240    3.3791    3.3257 H   0  0  0  0  0  0  0  0  0  0  0  0
   -0.3477    3.9067    1.7239 H   0  0  0  0  0  0  0  0  0  0  0  0
  5  6  2  0  0  0  0
  5  7  1  0  0  0  0
  2  3  1  0  0  0  0
  2  4  1  0  0  0  0
  2  5  1  0  0  0  0
  1  2  1  0  0  0  0
 26 27  2  0  0  0  0
 26 28  1  0  0  0  0
 23 24  1  0  0  0  0
 23 25  1  0  0  0  0
 20 21  1  0  0  0  0
 20 22  1  0  0  0  0
 20 23  1  0  0  0  0
 17 18  1  0  0  0  0
 17 19  1  0  0  0  0
 17 20  1  0  0  0  0
 14 15  1  0  0  0  0
 14 16  1  0  0  0  0
 14 17  1  0  0  0  0
 11 12  1  0  0  0  0
 11 13  1  0  0  0  0
 11 14  1  0  0  0  0
  9 10  1  0  0  0  0
  9 11  1  0  0  0  0
  9 26  1  0  0  0  0
  7  8  1  0  0  0  0
  7  9  1  0  0  0  0
 30 31  1  0  0  0  0
 30 32  1  0  0  0  0
 30 33  1  0  0  0  0
 28 29  1  0  0  0  0
 28 30  1  0  0  0  0
M  END
$$$$
default_name
  -OEChem-02102213163D

 33 32  0     1  0  0  0  0  0999 V2000
   -3.8420   -3.6918    1.5562 H   0  0  0  0  0  0  0  0  0  0  0  0
   -3.8430   -2.7008    1.1032 C   0  0  0  0  0  0  0  0  0  0  0  0
   -4.5510   -2.0608    1.6242 H   0  0  0  0  0  0  0  0  0  0  0  0
   -4.1140   -2.7798    0.0522 H   0  0  0  0  0  0  0  0  0  0  0  0
   -2.4570   -2.1098    1.2172 C   0  0  0  0  0  0  0  0  0  0  0  0
   -1.5600   -2.7438    1.7572 O   0  0  0  0  0  0  0  0  0  0  0  0
   -2.2870   -0.8898    0.7102 N   0  0  0  0  0  0  0  0  0  0  0  0
   -3.0820   -0.4218    0.2992 H   0  0  0  0  0  0  0  0  0  0  0  0
   -1.0240   -0.1468    0.7262 C   0  0  1  0  0  0  0  0  0  0  0  0
   -0.3583   -0.6100    1.4558 H   0  0  0  0  0  0  0  0  0  0  0  0
   -0.3739   -0.2459   -0.6675 C   0  0  0  0  0  0  0  0  0  0  0  0
   -1.1656   -0.3359   -1.4141 H   0  0  0  0  0  0  0  0  0  0  0  0
    0.1831    0.6698   -0.8705 H   0  0  0  0  0  0  0  0  0  0  0  0
    0.5649   -1.4534   -0.8161 C   0  0  0  0  0  0  0  0  0  0  0  0
    1.0062   -1.6951    0.1511 H   0  0  0  0  0  0  0  0  0  0  0  0
   -0.0079   -2.3117   -1.1722 H   0  0  0  0  0  0  0  0  0  0  0  0
    1.6915   -1.1516   -1.8108 C   0  0  0  0  0  0  0  0  0  0  0  0
    1.2651   -0.9000   -2.7823 H   0  0  0  0  0  0  0  0  0  0  0  0
    2.2814   -0.3096   -1.4474 H   0  0  0  0  0  0  0  0  0  0  0  0
    2.5943   -2.3748   -1.9583 C   0  0  0  0  0  0  0  0  0  0  0  0
    3.0359   -2.6167   -0.9929 H   0  0  0  0  0  0  0  0  0  0  0  0
    2.0033   -3.2213   -2.3041 H   0  0  0  0  0  0  0  0  0  0  0  0
    3.6720   -2.1278   -2.9231 N   0  0  0  0  0  0  0  0  0  0  0  0
    4.2552   -2.9494   -2.9849 H   0  0  0  0  0  0  0  0  0  0  0  0
    3.2682   -1.9342   -3.8285 H   0  0  0  0  0  0  0  0  0  0  0  0
   -1.2712    1.3099    1.1517 C   0  0  0  0  0  0  0  0  0  0  0  0
   -2.2039    1.9448    0.6639 O   0  0  0  0  0  0  0  0  0  0  0  0
   -0.4306    1.8354    2.0503 N   0  0  0  0  0  0  0  0  0  0  0  0
    0.3001    1.2459    2.4139 H   0  0  0  0  0  0  0  0  0  0  0  0
   -0.5192    3.2082    2.5456 C   0  0  0  0  0  0  0  0  0  0  0  0
   -1.5166    3.3903    2.9518 H   0  0  0  0  0  0  0  0  0  0  0  0
    0.2240    3.3791    3.3257 H   0  0  0  0  0  0  0  0  0  0  0  0
   -0.3477    3.9067    1.7239 H   0  0  0  0  0  0  0  0  0  0  0  0
  5  6  2  0  0  0  0
  5  7  1  0  0  0  0
  2  3  1  0  0  0  0
  2  4  1  0  0  0  0
  2  5  1  0  0  0  0
  1  2  1  0  0  0  0
 26 27  2  0  0  0  0
 26 28  1  0  0  0  0
 23 24  1  0  0  0  0
 23 25  1  0  0  0  0
 20 21  1  0  0  0  0
 20 22  1  0  0  0  0
 20 23  1  0  0  0  0
 17 18  1  0  0  0  0
 17 19  1  0  0  0  0
 17 20  1  0  0  0  0
 14 15  1  0  0  0  0
 14 16  1  0  0  0  0
 14 17  1  0  0  0  0
 11 12  1  0  0  0  0
 11 13  1  0  0  0  0
 11 14  1  0  0  0  0
  9 10  1  0  0  0  0
  9 11  1  0  0  0  0
  9 26  1  0  0  0  0
  7  8  1  0  0  0  0
  7  9  1  0  0  0  0
 30 31  1  0  0  0  0
 30 32  1  0  0  0  0
 30 33  1  0  0  0  0
 28 29  1  0  0  0  0
 28 30  1  0  0  0  0
M  END
$$$$
default_name
  -OEChem-02102213163D

 33 32  0     1  0  0  0  0  0999 V2000
   -3.8420   -3.6918    1.5562 H   0  0  0  0  0  0  0  0  0  0  0  0
   -3.8430   -2.7008    1.1032 C   0  0  0  0  0  0  0  0  0  0  0  0
   -4.5510   -2.0608    1.6242 H   0  0  0  0  0  0  0  0  0  0  0  0
   -4.1140   -2.7798    0.0522 H   0  0  0  0  0  0  0  0  0  0  0  0
   -2.4570   -2.1098    1.2172 C   0  0  0  0  0  0  0  0  0  0  0  0
   -1.5600   -2.7438    1.7572 O   0  0  0  0  0  0  0  0  0  0  0  0
   -2.2870   -0.8898    0.7102 N   0  0  0  0  0  0  0  0  0  0  0  0
   -3.0820   -0.4218    0.2992 H   0  0  0  0  0  0  0  0  0  0  0  0
   -1.0240   -0.1468    0.7262 C   0  0  1  0  0  0  0  0  0  0  0  0
   -0.3583   -0.6100    1.4558 H   0  0  0  0  0  0  0  0  0  0  0  0
   -0.3739   -0.2459   -0.6675 C   0  0  0  0  0  0  0  0  0  0  0  0
   -1.1656   -0.3359   -1.4141 H   0  0  0  0  0  0  0  0  0  0  0  0
    0.1831    0.6698   -0.8705 H   0  0  0  0  0  0  0  0  0  0  0  0
    0.5649   -1.4534   -0.8161 C   0  0  0  0  0  0  0  0  0  0  0  0
    0.7960   -1.8607    0.1685 H   0  0  0  0  0  0  0  0  0  0  0  0
    0.0700   -2.2214   -1.4134 H   0  0  0  0  0  0  0  0  0  0  0  0
    1.8744   -1.0474   -1.5018 C   0  0  0  0  0  0  0  0  0  0  0  0
    1.6587   -0.6304   -2.4860 H   0  0  0  0  0  0  0  0  0  0  0  0
    2.3843   -0.2974   -0.8966 H   0  0  0  0  0  0  0  0  0  0  0  0
    2.7775   -2.2692   -1.6592 C   0  0  0  0  0  0  0  0  0  0  0  0
    3.0093   -2.6764   -0.6763 H   0  0  0  0  0  0  0  0  0  0  0  0
    2.2628   -3.0264   -2.2484 H   0  0  0  0  0  0  0  0  0  0  0  0
    4.0325   -1.9199   -2.3347 N   0  0  0  0  0  0  0  0  0  0  0  0
    4.6088   -2.7453   -2.4090 H   0  0  0  0  0  0  0  0  0  0  0  0
    3.8250   -1.5713   -3.2598 H   0  0  0  0  0  0  0  0  0  0  0  0
   -1.2712    1.3099    1.1517 C   0  0  0  0  0  0  0  0  0  0  0  0
   -2.2039    1.9448    0.6639 O   0  0  0  0  0  0  0  0  0  0  0  0
   -0.4306    1.8354    2.0503 N   0  0  0  0  0  0  0  0  0  0  0  0
    0.3001    1.2459    2.4139 H   0  0  0  0  0  0  0  0  0  0  0  0
   -0.5192    3.2082    2.5456 C   0  0  0  0  0  0  0  0  0  0  0  0
   -1.5166    3.3903    2.9518 H   0  0  0  0  0  0  0  0  0  0  0  0
    0.2240    3.3791    3.3257 H   0  0  0  0  0  0  0  0  0  0  0  0
   -0.3477    3.9067    1.7239 H   0  0  0  0  0  0  0  0  0  0  0  0
  5  6  2  0  0  0  0
  5  7  1  0  0  0  0
  2  3  1  0  0  0  0
  2  4  1  0  0  0  0
  2  5  1  0  0  0  0
  1  2  1  0  0  0  0
 26 27  2  0  0  0  0
 26 28  1  0  0  0  0
 23 24  1  0  0  0  0
 23 25  1  0  0  0  0
 20 21  1  0  0  0  0
 20 22  1  0  0  0  0
 20 23  1  0  0  0  0
 17 18  1  0  0  0  0
 17 19  1  0  0  0  0
 17 20  1  0  0  0  0
 14 15  1  0  0  0  0
 14 16  1  0  0  0  0
 14 17  1  0  0  0  0
 11 12  1  0  0  0  0
 11 13  1  0  0  0  0
 11 14  1  0  0  0  0
  9 10  1  0  0  0  0
  9 11  1  0  0  0  0
  9 26  1  0  0  0  0
  7  8  1  0  0  0  0
  7  9  1  0  0  0  0
 30 31  1  0  0  0  0
 30 32  1  0  0  0  0
 30 33  1  0  0  0  0
 28 29  1  0  0  0  0
 28 30  1  0  0  0  0
M  END
$$$$
default_name
  -OEChem-02102213163D

 33 32  0     1  0  0  0  0  0999 V2000
   -3.8420   -3.6918    1.5562 H   0  0  0  0  0  0  0  0  0  0  0  0
   -3.8430   -2.7008    1.1032 C   0  0  0  0  0  0  0  0  0  0  0  0
   -4.5510   -2.0608    1.6242 H   0  0  0  0  0  0  0  0  0  0  0  0
   -4.1140   -2.7798    0.0522 H   0  0  0  0  0  0  0  0  0  0  0  0
   -2.4570   -2.1098    1.2172 C   0  0  0  0  0  0  0  0  0  0  0  0
   -1.5600   -2.7438    1.7572 O   0  0  0  0  0  0  0  0  0  0  0  0
   -2.2870   -0.8898    0.7102 N   0  0  0  0  0  0  0  0  0  0  0  0
   -3.0820   -0.4218    0.2992 H   0  0  0  0  0  0  0  0  0  0  0  0
   -1.0240   -0.1468    0.7262 C   0  0  1  0  0  0  0  0  0  0  0  0
   -0.3583   -0.6100    1.4558 H   0  0  0  0  0  0  0  0  0  0  0  0
   -0.3739   -0.2459   -0.6675 C   0  0  0  0  0  0  0  0  0  0  0  0
   -1.1656   -0.3359   -1.4141 H   0  0  0  0  0  0  0  0  0  0  0  0
    0.1831    0.6698   -0.8705 H   0  0  0  0  0  0  0  0  0  0  0  0
    0.5649   -1.4534   -0.8161 C   0  0  0  0  0  0  0  0  0  0  0  0
    0.5853   -2.0181    0.1164 H   0  0  0  0  0  0  0  0  0  0  0  0
    0.1966   -2.0980   -1.6163 H   0  0  0  0  0  0  0  0  0  0  0  0
    1.9907   -1.0003   -1.1498 C   0  0  0  0  0  0  0  0  0  0  0  0
    1.9855   -0.4267   -2.0771 H   0  0  0  0  0  0  0  0  0  0  0  0
    2.3720   -0.3752   -0.3418 H   0  0  0  0  0  0  0  0  0  0  0  0
    2.8963   -2.2190   -1.3163 C   0  0  0  0  0  0  0  0  0  0  0  0
    2.9178   -2.7833   -0.3854 H   0  0  0  0  0  0  0  0  0  0  0  0
    2.5071   -2.8534   -2.1109 H   0  0  0  0  0  0  0  0  0  0  0  0
    4.2663   -1.8212   -1.6602 N   0  0  0  0  0  0  0  0  0  0  0  0
    4.8384   -2.6482   -1.7486 H   0  0  0  0  0  0  0  0  0  0  0  0
    4.2562   -1.3247   -2.5398 H   0  0  0  0  0  0  0  0  0  0  0  0
   -1.2712    1.3099    1.1517 C   0  0  0  0  0  0  0  0  0  0  0  0
   -2.2039    1.9448    0.6639 O   0  0  0  0  0  0  0  0  0  0  0  0
   -0.4306    1.8354    2.0503 N   0  0  0  0  0  0  0  0  0  0  0  0
    0.3001    1.2459    2.4139 H   0  0  0  0  0  0  0  0  0  0  0  0
   -0.5192    3.2082    2.5456 C   0  0  0  0  0  0  0  0  0  0  0  0
   -1.5166    3.3903    2.9518 H   0  0  0  0  0  0  0  0  0  0  0  0
    0.2240    3.3791    3.3257 H   0  0  0  0  0  0  0  0  0  0  0  0
   -0.3477    3.9067    1.7239 H   0  0  0  0  0  0  0  0  0  0  0  0
  5  6  2  0  0  0  0
  5  7  1  0  0  0  0
  2  3  1  0  0  0  0
  2  4  1  0  0  0  0
  2  5  1  0  0  0  0
  1  2  1  0  0  0  0
 26 27  2  0  0  0  0
 26 28  1  0  0  0  0
 23 24  1  0  0  0  0
 23 25  1  0  0  0  0
 20 21  1  0  0  0  0
 20 22  1  0  0  0  0
 20 23  1  0  0  0  0
 17 18  1  0  0  0  0
 17 19  1  0  0  0  0
 17 20  1  0  0  0  0
 14 15  1  0  0  0  0
 14 16  1  0  0  0  0
 14 17  1  0  0  0  0
 11 12  1  0  0  0  0
 11 13  1  0  0  0  0
 11 14  1  0  0  0  0
  9 10  1  0  0  0  0
  9 11  1  0  0  0  0
  9 26  1  0  0  0  0
  7  8  1  0  0  0  0
  7  9  1  0  0  0  0
 30 31  1  0  0  0  0
 30 32  1  0  0  0  0
 30 33  1  0  0  0  0
 28 29  1  0  0  0  0
 28 30  1  0  0  0  0
M  END
$$$$
default_name
  -OEChem-02102213163D

 33 32  0     1  0  0  0  0  0999 V2000
   -3.8420   -3.6918    1.5562 H   0  0  0  0  0  0  0  0  0  0  0  0
   -3.8430   -2.7008    1.1032 C   0  0  0  0  0  0  0  0  0  0  0  0
   -4.5510   -2.0608    1.6242 H   0  0  0  0  0  0  0  0  0  0  0  0
   -4.1140   -2.7798    0.0522 H   0  0  0  0  0  0  0  0  0  0  0  0
   -2.4570   -2.1098    1.2172 C   0  0  0  0  0  0  0  0  0  0  0  0
   -1.5600   -2.7438    1.7572 O   0  0  0  0  0  0  0  0  0  0  0  0
   -2.2870   -0.8898    0.7102 N   0  0  0  0  0  0  0  0  0  0  0  0
   -3.0820   -0.4218    0.2992 H   0  0  0  0  0  0  0  0  0  0  0  0
   -1.0240   -0.1468    0.7262 C   0  0  1  0  0  0  0  0  0  0  0  0
   -0.3583   -0.6100    1.4558 H   0  0  0  0  0  0  0  0  0  0  0  0
   -0.3739   -0.2459   -0.6675 C   0  0  0  0  0  0  0  0  0  0  0  0
   -1.1656   -0.3359   -1.4141 H   0  0  0  0  0  0  0  0  0  0  0  0
    0.1831    0.6698   -0.8705 H   0  0  0  0  0  0  0  0  0  0  0  0
    0.5649   -1.4534   -0.8161 C   0  0  0  0  0  0  0  0  0  0  0  0
    0.3885   -2.1566   -0.0017 H   0  0  0  0  0  0  0  0  0  0  0  0
    0.3632   -1.9499   -1.7671 H   0  0  0  0  0  0  0  0  0  0  0  0
    2.0327   -1.0133   -0.7786 C   0  0  0  0  0  0  0  0  0  0  0  0
    2.2230   -0.3028   -1.5835 H   0  0  0  0  0  0  0  0  0  0  0  0
    2.2453   -0.5379    0.1794 H   0  0  0  0  0  0  0  0  0  0  0  0
    2.9426   -2.2278   -0.9530 C   0  0  0  0  0  0  0  0  0  0  0  0
    2.7675   -2.9304   -0.1399 H   0  0  0  0  0  0  0  0  0  0  0  0
    2.7194   -2.7142   -1.9011 H   0  0  0  0  0  0  0  0  0  0  0  0
    4.3574   -1.8383   -0.9455 N   0  0  0  0  0  0  0  0  0  0  0  0
    4.9283   -2.6645   -1.0486 H   0  0  0  0  0  0  0  0  0  0  0  0
    4.5325   -1.2111   -1.7176 H   0  0  0  0  0  0  0  0  0  0  0  0
   -1.2712    1.3099    1.1517 C   0  0  0  0  0  0  0  0  0  0  0  0
   -2.2039    1.9448    0.6639 O   0  0  0  0  0  0  0  0  0  0  0  0
   -0.4306    1.8354    2.0503 N   0  0  0  0  0  0  0  0  0  0  0  0
    0.3001    1.2459    2.4139 H   0  0  0  0  0  0  0  0  0  0  0  0
   -0.5192    3.2082    2.5456 C   0  0  0  0  0  0  0  0  0  0  0  0
   -1.5166    3.3903    2.9518 H   0  0  0  0  0  0  0  0  0  0  0  0
    0.2240    3.3791    3.3257 H   0  0  0  0  0  0  0  0  0  0  0  0
   -0.3477    3.9067    1.7239 H   0  0  0  0  0  0  0  0  0  0  0  0
  5  6  2  0  0  0  0
  5  7  1  0  0  0  0
  2  3  1  0  0  0  0
  2  4  1  0  0  0  0
  2  5  1  0  0  0  0
  1  2  1  0  0  0  0
 26 27  2  0  0  0  0
 26 28  1  0  0  0  0
 23 24  1  0  0  0  0
 23 25  1  0  0  0  0
 20 21  1  0  0  0  0
 20 22  1  0  0  0  0
 20 23  1  0  0  0  0
 17 18  1  0  0  0  0
 17 19  1  0  0  0  0
 17 20  1  0  0  0  0
 14 15  1  0  0  0  0
 14 16  1  0  0  0  0
 14 17  1  0  0  0  0
 11 12  1  0  0  0  0
 11 13  1  0  0  0  0
 11 14  1  0  0  0  0
  9 10  1  0  0  0  0
  9 11  1  0  0  0  0
  9 26  1  0  0  0  0
  7  8  1  0  0  0  0
  7  9  1  0  0  0  0
 30 31  1  0  0  0  0
 30 32  1  0  0  0  0
 30 33  1  0  0  0  0
 28 29  1  0  0  0  0
 28 30  1  0  0  0  0
M  END
$$$$
default_name
  -OEChem-02102213163D

 33 32  0     1  0  0  0  0  0999 V2000
   -3.8420   -3.6918    1.5562 H   0  0  0  0  0  0  0  0  0  0  0  0
   -3.8430   -2.7008    1.1032 C   0  0  0  0  0  0  0  0  0  0  0  0
   -4.5510   -2.0608    1.6242 H   0  0  0  0  0  0  0  0  0  0  0  0
   -4.1140   -2.7798    0.0522 H   0  0  0  0  0  0  0  0  0  0  0  0
   -2.4570   -2.1098    1.2172 C   0  0  0  0  0  0  0  0  0  0  0  0
   -1.5600   -2.7438    1.7572 O   0  0  0  0  0  0  0  0  0  0  0  0
   -2.2870   -0.8898    0.7102 N   0  0  0  0  0  0  0  0  0  0  0  0
   -3.0820   -0.4218    0.2992 H   0  0  0  0  0  0  0  0  0  0  0  0
   -1.0240   -0.1468    0.7262 C   0  0  1  0  0  0  0  0  0  0  0  0
   -0.3583   -0.6100    1.4558 H   0  0  0  0  0  0  0  0  0  0  0  0
   -0.3739   -0.2459   -0.6675 C   0  0  0  0  0  0  0  0  0  0  0  0
   -1.1656   -0.3359   -1.4141 H   0  0  0  0  0  0  0  0  0  0  0  0
    0.1831    0.6698   -0.8705 H   0  0  0  0  0  0  0  0  0  0  0  0
    0.5649   -1.4534   -0.8161 C   0  0  0  0  0  0  0  0  0  0  0  0
    0.2189   -2.2668   -0.1777 H   0  0  0  0  0  0  0  0  0  0  0  0
    0.5585   -1.7872   -1.8554 H   0  0  0  0  0  0  0  0  0  0  0  0
    1.9975   -1.0857   -0.4136 C   0  0  0  0  0  0  0  0  0  0  0  0
    2.3552   -0.2671   -1.0388 H   0  0  0  0  0  0  0  0  0  0  0  0
    2.0129   -0.7742    0.6313 H   0  0  0  0  0  0  0  0  0  0  0  0
    2.9132   -2.2948   -0.5941 C   0  0  0  0  0  0  0  0  0  0  0  0
    2.5688   -3.1075    0.0434 H   0  0  0  0  0  0  0  0  0  0  0  0
    2.8853   -2.6182   -1.6333 H   0  0  0  0  0  0  0  0  0  0  0  0
    4.2996   -1.9702   -0.2393 N   0  0  0  0  0  0  0  0  0  0  0  0
    4.8723   -2.7931   -0.3568 H   0  0  0  0  0  0  0  0  0  0  0  0
    4.6350   -1.2383   -0.8493 H   0  0  0  0  0  0  0  0  0  0  0  0
   -1.2712    1.3099    1.1517 C   0  0  0  0  0  0  0  0  0  0  0  0
   -2.2039    1.9448    0.6639 O   0  0  0  0  0  0  0  0  0  0  0  0
   -0.4306    1.8354    2.0503 N   0  0  0  0  0  0  0  0  0  0  0  0
    0.3001    1.2459    2.4139 H   0  0  0  0  0  0  0  0  0  0  0  0
   -0.5192    3.2082    2.5456 C   0  0  0  0  0  0  0  0  0  0  0  0
   -1.5166    3.3903    2.9518 H   0  0  0  0  0  0  0  0  0  0  0  0
    0.2240    3.3791    3.3257 H   0  0  0  0  0  0  0  0  0  0  0  0
   -0.3477    3.9067    1.7239 H   0  0  0  0  0  0  0  0  0  0  0  0
  5  6  2  0  0  0  0
  5  7  1  0  0  0  0
  2  3  1  0  0  0  0
  2  4  1  0  0  0  0
  2  5  1  0  0  0  0
  1  2  1  0  0  0  0
 26 27  2  0  0  0  0
 26 28  1  0  0  0  0
 23 24  1  0  0  0  0
 23 25  1  0  0  0  0
 20 21  1  0  0  0  0
 20 22  1  0  0  0  0
 20 23  1  0  0  0  0
 17 18  1  0  0  0  0
 17 19  1  0  0  0  0
 17 20  1  0  0  0  0
 14 15  1  0  0  0  0
 14 16  1  0  0  0  0
 14 17  1  0  0  0  0
 11 12  1  0  0  0  0
 11 13  1  0  0  0  0
 11 14  1  0  0  0  0
  9 10  1  0  0  0  0
  9 11  1  0  0  0  0
  9 26  1  0  0  0  0
  7  8  1  0  0  0  0
  7  9  1  0  0  0  0
 30 31  1  0  0  0  0
 30 32  1  0  0  0  0
 30 33  1  0  0  0  0
 28 29  1  0  0  0  0
 28 30  1  0  0  0  0
M  END
$$$$
default_name
  -OEChem-02102213163D

 33 32  0     1  0  0  0  0  0999 V2000
   -3.8420   -3.6918    1.5562 H   0  0  0  0  0  0  0  0  0  0  0  0
   -3.8430   -2.7008    1.1032 C   0  0  0  0  0  0  0  0  0  0  0  0
   -4.5510   -2.0608    1.6242 H   0  0  0  0  0  0  0  0  0  0  0  0
   -4.1140   -2.7798    0.0522 H   0  0  0  0  0  0  0  0  0  0  0  0
   -2.4570   -2.1098    1.2172 C   0  0  0  0  0  0  0  0  0  0  0  0
   -1.5600   -2.7438    1.7572 O   0  0  0  0  0  0  0  0  0  0  0  0
   -2.2870   -0.8898    0.7102 N   0  0  0  0  0  0  0  0  0  0  0  0
   -3.0820   -0.4218    0.2992 H   0  0  0  0  0  0  0  0  0  0  0  0
   -1.0240   -0.1468    0.7262 C   0  0  1  0  0  0  0  0  0  0  0  0
   -0.3583   -0.6100    1.4558 H   0  0  0  0  0  0  0  0  0  0  0  0
   -0.3739   -0.2459   -0.6675 C   0  0  0  0  0  0  0  0  0  0  0  0
   -1.1656   -0.3359   -1.4141 H   0  0  0  0  0  0  0  0  0  0  0  0
    0.1831    0.6698   -0.8705 H   0  0  0  0  0  0  0  0  0  0  0  0
    0.5649   -1.4534   -0.8161 C   0  0  0  0  0  0  0  0  0  0  0  0
    0.0881   -2.3411   -0.3997 H   0  0  0  0  0  0  0  0  0  0  0  0
    0.7692   -1.6209   -1.8752 H   0  0  0  0  0  0  0  0  0  0  0  0
    1.8874   -1.2124   -0.0796 C   0  0  0  0  0  0  0  0  0  0  0  0
    2.3730   -0.3220   -0.4802 H   0  0  0  0  0  0  0  0  0  0  0  0
    1.6906   -1.0681    0.9832 H   0  0  0  0  0  0  0  0  0  0  0  0
    2.8101   -2.4156   -0.2639 C   0  0  0  0  0  0  0  0  0  0  0  0
    2.3351   -3.3026    0.1521 H   0  0  0  0  0  0  0  0  0  0  0  0
    2.9934   -2.5720   -1.3257 H   0  0  0  0  0  0  0  0  0  0  0  0
    4.0969   -2.2078    0.4102 N   0  0  0  0  0  0  0  0  0  0  0  0
    4.6743   -3.0254    0.2798 H   0  0  0  0  0  0  0  0  0  0  0  0
    4.5568   -1.4044    0.0059 H   0  0  0  0  0  0  0  0  0  0  0  0
   -1.2712    1.3099    1.1517 C   0  0  0  0  0  0  0  0  0  0  0  0
   -2.2039    1.9448    0.6639 O   0  0  0  0  0  0  0  0  0  0  0  0
   -0.4306    1.8354    2.0503 N   0  0  0  0  0  0  0  0  0  0  0  0
    0.3001    1.2459    2.4139 H   0  0  0  0  0  0  0  0  0  0  0  0
   -0.5192    3.2082    2.5456 C   0  0  0  0  0  0  0  0  0  0  0  0
   -1.5166    3.3903    2.9518 H   0  0  0  0  0  0  0  0  0  0  0  0
    0.2240    3.3791    3.3257 H   0  0  0  0  0  0  0  0  0  0  0  0
   -0.3477    3.9067    1.7239 H   0  0  0  0  0  0  0  0  0  0  0  0
  5  6  2  0  0  0  0
  5  7  1  0  0  0  0
  2  3  1  0  0  0  0
  2  4  1  0  0  0  0
  2  5  1  0  0  0  0
  1  2  1  0  0  0  0
 26 27  2  0  0  0  0
 26 28  1  0  0  0  0
 23 24  1  0  0  0  0
 23 25  1  0  0  0  0
 20 21  1  0  0  0  0
 20 22  1  0  0  0  0
 20 23  1  0  0  0  0
 17 18  1  0  0  0  0
 17 19  1  0  0  0  0
 17 20  1  0  0  0  0
 14 15  1  0  0  0  0
 14 16  1  0  0  0  0
 14 17  1  0  0  0  0
 11 12  1  0  0  0  0
 11 13  1  0  0  0  0
 11 14  1  0  0  0  0
  9 10  1  0  0  0  0
  9 11  1  0  0  0  0
  9 26  1  0  0  0  0
  7  8  1  0  0  0  0
  7  9  1  0  0  0  0
 30 31  1  0  0  0  0
 30 32  1  0  0  0  0
 30 33  1  0  0  0  0
 28 29  1  0  0  0  0
 28 30  1  0  0  0  0
M  END
$$$$
default_name
  -OEChem-02102213163D

 33 32  0     1  0  0  0  0  0999 V2000
   -3.8420   -3.6918    1.5562 H   0  0  0  0  0  0  0  0  0  0  0  0
   -3.8430   -2.7008    1.1032 C   0  0  0  0  0  0  0  0  0  0  0  0
   -4.5510   -2.0608    1.6242 H   0  0  0  0  0  0  0  0  0  0  0  0
   -4.1140   -2.7798    0.0522 H   0  0  0  0  0  0  0  0  0  0  0  0
   -2.4570   -2.1098    1.2172 C   0  0  0  0  0  0  0  0  0  0  0  0
   -1.5600   -2.7438    1.7572 O   0  0  0  0  0  0  0  0  0  0  0  0
   -2.2870   -0.8898    0.7102 N   0  0  0  0  0  0  0  0  0  0  0  0
   -3.0820   -0.4218    0.2992 H   0  0  0  0  0  0  0  0  0  0  0  0
   -1.0240   -0.1468    0.7262 C   0  0  1  0  0  0  0  0  0  0  0  0
   -0.3583   -0.6100    1.4558 H   0  0  0  0  0  0  0  0  0  0  0  0
   -0.3739   -0.2459   -0.6675 C   0  0  0  0  0  0  0  0  0  0  0  0
   -1.1656   -0.3359   -1.4141 H   0  0  0  0  0  0  0  0  0  0  0  0
    0.1831    0.6698   -0.8705 H   0  0  0  0  0  0  0  0  0  0  0  0
    0.5649   -1.4534   -0.8161 C   0  0  0  0  0  0  0  0  0  0  0  0
    0.0050   -2.3746   -0.6524 H   0  0  0  0  0  0  0  0  0  0  0  0
    0.9809   -1.4625   -1.8252 H   0  0  0  0  0  0  0  0  0  0  0  0
    1.7100   -1.3848    0.2006 C   0  0  0  0  0  0  0  0  0  0  0  0
    2.2752   -0.4639    0.0544 H   0  0  0  0  0  0  0  0  0  0  0  0
    1.3004   -1.3995    1.2110 H   0  0  0  0  0  0  0  0  0  0  0  0
    2.6404   -2.5819    0.0149 C   0  0  0  0  0  0  0  0  0  0  0  0
    2.0823   -3.5023    0.1787 H   0  0  0  0  0  0  0  0  0  0  0  0
    3.0365   -2.5787   -0.9992 H   0  0  0  0  0  0  0  0  0  0  0  0
    3.7631   -2.5348    0.9587 N   0  0  0  0  0  0  0  0  0  0  0  0
    4.3479   -3.3455    0.8176 H   0  0  0  0  0  0  0  0  0  0  0  0
    4.3031   -1.6981    0.7898 H   0  0  0  0  0  0  0  0  0  0  0  0
   -1.2712    1.3099    1.1517 C   0  0  0  0  0  0  0  0  0  0  0  0
   -2.2039    1.9448    0.6639 O   0  0  0  0  0  0  0  0  0  0  0  0
   -0.4306    1.8354    2.0503 N   0  0  0  0  0  0  0  0  0  0  0  0
    0.3001    1.2459    2.4139 H   0  0  0  0  0  0  0  0  0  0  0  0
   -0.5192    3.2082    2.5456 C   0  0  0  0  0  0  0  0  0  0  0  0
   -1.5166    3.3903    2.9518 H   0  0  0  0  0  0  0  0  0  0  0  0
    0.2240    3.3791    3.3257 H   0  0  0  0  0  0  0  0  0  0  0  0
   -0.3477    3.9067    1.7239 H   0  0  0  0  0  0  0  0  0  0  0  0
  5  6  2  0  0  0  0
  5  7  1  0  0  0  0
  2  3  1  0  0  0  0
  2  4  1  0  0  0  0
  2  5  1  0  0  0  0
  1  2  1  0  0  0  0
 26 27  2  0  0  0  0
 26 28  1  0  0  0  0
 23 24  1  0  0  0  0
 23 25  1  0  0  0  0
 20 21  1  0  0  0  0
 20 22  1  0  0  0  0
 20 23  1  0  0  0  0
 17 18  1  0  0  0  0
 17 19  1  0  0  0  0
 17 20  1  0  0  0  0
 14 15  1  0  0  0  0
 14 16  1  0  0  0  0
 14 17  1  0  0  0  0
 11 12  1  0  0  0  0
 11 13  1  0  0  0  0
 11 14  1  0  0  0  0
  9 10  1  0  0  0  0
  9 11  1  0  0  0  0
  9 26  1  0  0  0  0
  7  8  1  0  0  0  0
  7  9  1  0  0  0  0
 30 31  1  0  0  0  0
 30 32  1  0  0  0  0
 30 33  1  0  0  0  0
 28 29  1  0  0  0  0
 28 30  1  0  0  0  0
M  END
$$$$
default_name
  -OEChem-02102213163D

 33 32  0     1  0  0  0  0  0999 V2000
   -3.8420   -3.6918    1.5562 H   0  0  0  0  0  0  0  0  0  0  0  0
   -3.8430   -2.7008    1.1032 C   0  0  0  0  0  0  0  0  0  0  0  0
   -4.5510   -2.0608    1.6242 H   0  0  0  0  0  0  0  0  0  0  0  0
   -4.1140   -2.7798    0.0522 H   0  0  0  0  0  0  0  0  0  0  0  0
   -2.4570   -2.1098    1.2172 C   0  0  0  0  0  0  0  0  0  0  0  0
   -1.5600   -2.7438    1.7572 O   0  0  0  0  0  0  0  0  0  0  0  0
   -2.2870   -0.8898    0.7102 N   0  0  0  0  0  0  0  0  0  0  0  0
   -3.0820   -0.4218    0.2992 H   0  0  0  0  0  0  0  0  0  0  0  0
   -1.0240   -0.1468    0.7262 C   0  0  1  0  0  0  0  0  0  0  0  0
   -0.3583   -0.6100    1.4558 H   0  0  0  0  0  0  0  0  0  0  0  0
   -0.3739   -0.2459   -0.6675 C   0  0  0  0  0  0  0  0  0  0  0  0
   -1.1656   -0.3359   -1.4141 H   0  0  0  0  0  0  0  0  0  0  0  0
    0.1831    0.6698   -0.8705 H   0  0  0  0  0  0  0  0  0  0  0  0
    0.5649   -1.4534   -0.8161 C   0  0  0  0  0  0  0  0  0  0  0  0
   -0.0246   -2.3649   -0.9187 H   0  0  0  0  0  0  0  0  0  0  0  0
    1.1792   -1.3227   -1.7089 H   0  0  0  0  0  0  0  0  0  0  0  0
    1.4773   -1.5912    0.4079 C   0  0  0  0  0  0  0  0  0  0  0  0
    2.0685   -0.6830    0.5284 H   0  0  0  0  0  0  0  0  0  0  0  0
    0.8688   -1.7460    1.2994 H   0  0  0  0  0  0  0  0  0  0  0  0
    2.4156   -2.7823    0.2235 C   0  0  0  0  0  0  0  0  0  0  0  0
    1.8278   -3.6931    0.1214 H   0  0  0  0  0  0  0  0  0  0  0  0
    3.0116   -2.6378   -0.6762 H   0  0  0  0  0  0  0  0  0  0  0  0
    3.3208   -2.9292    1.3690 N   0  0  0  0  0  0  0  0  0  0  0  0
    3.9151   -3.7315    1.2201 H   0  0  0  0  0  0  0  0  0  0  0  0
    3.8913   -2.0994    1.4490 H   0  0  0  0  0  0  0  0  0  0  0  0
   -1.2712    1.3099    1.1517 C   0  0  0  0  0  0  0  0  0  0  0  0
   -2.2039    1.9448    0.6639 O   0  0  0  0  0  0  0  0  0  0  0  0
   -0.4306    1.8354    2.0503 N   0  0  0  0  0  0  0  0  0  0  0  0
    0.3001    1.2459    2.4139 H   0  0  0  0  0  0  0  0  0  0  0  0
   -0.5192    3.2082    2.5456 C   0  0  0  0  0  0  0  0  0  0  0  0
   -1.5166    3.3903    2.9518 H   0  0  0  0  0  0  0  0  0  0  0  0
    0.2240    3.3791    3.3257 H   0  0  0  0  0  0  0  0  0  0  0  0
   -0.3477    3.9067    1.7239 H   0  0  0  0  0  0  0  0  0  0  0  0
  5  6  2  0  0  0  0
  5  7  1  0  0  0  0
  2  3  1  0  0  0  0
  2  4  1  0  0  0  0
  2  5  1  0  0  0  0
  1  2  1  0  0  0  0
 26 27  2  0  0  0  0
 26 28  1  0  0  0  0
 23 24  1  0  0  0  0
 23 25  1  0  0  0  0
 20 21  1  0  0  0  0
 20 22  1  0  0  0  0
 20 23  1  0  0  0  0
 17 18  1  0  0  0  0
 17 19  1  0  0  0  0
 17 20  1  0  0  0  0
 14 15  1  0  0  0  0
 14 16  1  0  0  0  0
 14 17  1  0  0  0  0
 11 12  1  0  0  0  0
 11 13  1  0  0  0  0
 11 14  1  0  0  0  0
  9 10  1  0  0  0  0
  9 11  1  0  0  0  0
  9 26  1  0  0  0  0
  7  8  1  0  0  0  0
  7  9  1  0  0  0  0
 30 31  1  0  0  0  0
 30 32  1  0  0  0  0
 30 33  1  0  0  0  0
 28 29  1  0  0  0  0
 28 30  1  0  0  0  0
M  END
$$$$
default_name
  -OEChem-02102213163D

 33 32  0     1  0  0  0  0  0999 V2000
   -3.8420   -3.6918    1.5562 H   0  0  0  0  0  0  0  0  0  0  0  0
   -3.8430   -2.7008    1.1032 C   0  0  0  0  0  0  0  0  0  0  0  0
   -4.5510   -2.0608    1.6242 H   0  0  0  0  0  0  0  0  0  0  0  0
   -4.1140   -2.7798    0.0522 H   0  0  0  0  0  0  0  0  0  0  0  0
   -2.4570   -2.1098    1.2172 C   0  0  0  0  0  0  0  0  0  0  0  0
   -1.5600   -2.7438    1.7572 O   0  0  0  0  0  0  0  0  0  0  0  0
   -2.2870   -0.8898    0.7102 N   0  0  0  0  0  0  0  0  0  0  0  0
   -3.0820   -0.4218    0.2992 H   0  0  0  0  0  0  0  0  0  0  0  0
   -1.0240   -0.1468    0.7262 C   0  0  1  0  0  0  0  0  0  0  0  0
   -0.3583   -0.6100    1.4558 H   0  0  0  0  0  0  0  0  0  0  0  0
   -0.3739   -0.2459   -0.6675 C   0  0  0  0  0  0  0  0  0  0  0  0
   -1.1656   -0.3359   -1.4141 H   0  0  0  0  0  0  0  0  0  0  0  0
    0.1831    0.6698   -0.8705 H   0  0  0  0  0  0  0  0  0  0  0  0
    0.5649   -1.4534   -0.8161 C   0  0  0  0  0  0  0  0  0  0  0  0
    0.0011   -2.3126   -1.1804 H   0  0  0  0  0  0  0  0  0  0  0  0
    1.3506   -1.2110   -1.5340 H   0  0  0  0  0  0  0  0  0  0  0  0
    1.2052   -1.8176    0.5281 C   0  0  0  0  0  0  0  0  0  0  0  0
    1.7669   -0.9644    0.9096 H   0  0  0  0  0  0  0  0  0  0  0  0
    0.4253   -2.0837    1.2421 H   0  0  0  0  0  0  0  0  0  0  0  0
    2.1510   -3.0033    0.3475 C   0  0  0  0  0  0  0  0  0  0  0  0
    1.5889   -3.8620   -0.0159 H   0  0  0  0  0  0  0  0  0  0  0  0
    2.9203   -2.7454   -0.3786 H   0  0  0  0  0  0  0  0  0  0  0  0
    2.8004   -3.3639    1.6130 N   0  0  0  0  0  0  0  0  0  0  0  0
    3.4055   -4.1572    1.4599 H   0  0  0  0  0  0  0  0  0  0  0  0
    3.3494   -2.5810    1.9386 H   0  0  0  0  0  0  0  0  0  0  0  0
   -1.2712    1.3099    1.1517 C   0  0  0  0  0  0  0  0  0  0  0  0
   -2.2039    1.9448    0.6639 O   0  0  0  0  0  0  0  0  0  0  0  0
   -0.4306    1.8354    2.0503 N   0  0  0  0  0  0  0  0  0  0  0  0
    0.3001    1.2459    2.4139 H   0  0  0  0  0  0  0  0  0  0  0  0
   -0.5192    3.2082    2.5456 C   0  0  0  0  0  0  0  0  0  0  0  0
   -1.5166    3.3903    2.9518 H   0  0  0  0  0  0  0  0  0  0  0  0
    0.2240    3.3791    3.3257 H   0  0  0  0  0  0  0  0  0  0  0  0
   -0.3477    3.9067    1.7239 H   0  0  0  0  0  0  0  0  0  0  0  0
  5  6  2  0  0  0  0
  5  7  1  0  0  0  0
  2  3  1  0  0  0  0
  2  4  1  0  0  0  0
  2  5  1  0  0  0  0
  1  2  1  0  0  0  0
 26 27  2  0  0  0  0
 26 28  1  0  0  0  0
 23 24  1  0  0  0  0
 23 25  1  0  0  0  0
 20 21  1  0  0  0  0
 20 22  1  0  0  0  0
 20 23  1  0  0  0  0
 17 18  1  0  0  0  0
 17 19  1  0  0  0  0
 17 20  1  0  0  0  0
 14 15  1  0  0  0  0
 14 16  1  0  0  0  0
 14 17  1  0  0  0  0
 11 12  1  0  0  0  0
 11 13  1  0  0  0  0
 11 14  1  0  0  0  0
  9 10  1  0  0  0  0
  9 11  1  0  0  0  0
  9 26  1  0  0  0  0
  7  8  1  0  0  0  0
  7  9  1  0  0  0  0
 30 31  1  0  0  0  0
 30 32  1  0  0  0  0
 30 33  1  0  0  0  0
 28 29  1  0  0  0  0
 28 30  1  0  0  0  0
M  END
$$$$
default_name
  -OEChem-02102213163D

 33 32  0     1  0  0  0  0  0999 V2000
   -3.8420   -3.6918    1.5562 H   0  0  0  0  0  0  0  0  0  0  0  0
   -3.8430   -2.7008    1.1032 C   0  0  0  0  0  0  0  0  0  0  0  0
   -4.5510   -2.0608    1.6242 H   0  0  0  0  0  0  0  0  0  0  0  0
   -4.1140   -2.7798    0.0522 H   0  0  0  0  0  0  0  0  0  0  0  0
   -2.4570   -2.1098    1.2172 C   0  0  0  0  0  0  0  0  0  0  0  0
   -1.5600   -2.7438    1.7572 O   0  0  0  0  0  0  0  0  0  0  0  0
   -2.2870   -0.8898    0.7102 N   0  0  0  0  0  0  0  0  0  0  0  0
   -3.0820   -0.4218    0.2992 H   0  0  0  0  0  0  0  0  0  0  0  0
   -1.0240   -0.1468    0.7262 C   0  0  1  0  0  0  0  0  0  0  0  0
   -0.3583   -0.6100    1.4558 H   0  0  0  0  0  0  0  0  0  0  0  0
   -0.3739   -0.2459   -0.6675 C   0  0  0  0  0  0  0  0  0  0  0  0
   -1.1656   -0.3359   -1.4141 H   0  0  0  0  0  0  0  0  0  0  0  0
    0.1831    0.6698   -0.8705 H   0  0  0  0  0  0  0  0  0  0  0  0
    0.5649   -1.4534   -0.8161 C   0  0  0  0  0  0  0  0  0  0  0  0
    0.0805   -2.2215   -1.4197 H   0  0  0  0  0  0  0  0  0  0  0  0
    1.4833   -1.1350   -1.3126 H   0  0  0  0  0  0  0  0  0  0  0  0
    0.9123   -2.0484    0.5532 C   0  0  0  0  0  0  0  0  0  0  0  0
    1.3910   -1.2889    1.1720 H   0  0  0  0  0  0  0  0  0  0  0  0
    0.0000   -2.3899    1.0432 H   0  0  0  0  0  0  0  0  0  0  0  0
    1.8647   -3.2297    0.3785 C   0  0  0  0  0  0  0  0  0  0  0  0
    1.3817   -3.9975   -0.2238 H   0  0  0  0  0  0  0  0  0  0  0  0
    2.7689   -2.8941   -0.1267 H   0  0  0  0  0  0  0  0  0  0  0  0
    2.2371   -3.8093    1.6741 N   0  0  0  0  0  0  0  0  0  0  0  0
    2.8539   -4.5935    1.5206 H   0  0  0  0  0  0  0  0  0  0  0  0
    2.7144   -3.1100    2.2251 H   0  0  0  0  0  0  0  0  0  0  0  0
   -1.2712    1.3099    1.1517 C   0  0  0  0  0  0  0  0  0  0  0  0
   -2.2039    1.9448    0.6639 O   0  0  0  0  0  0  0  0  0  0  0  0
   -0.4306    1.8354    2.0503 N   0  0  0  0  0  0  0  0  0  0  0  0
    0.3001    1.2459    2.4139 H   0  0  0  0  0  0  0  0  0  0  0  0
   -0.5192    3.2082    2.5456 C   0  0  0  0  0  0  0  0  0  0  0  0
   -1.5166    3.3903    2.9518 H   0  0  0  0  0  0  0  0  0  0  0  0
    0.2240    3.3791    3.3257 H   0  0  0  0  0  0  0  0  0  0  0  0
   -0.3477    3.9067    1.7239 H   0  0  0  0  0  0  0  0  0  0  0  0
  5  6  2  0  0  0  0
  5  7  1  0  0  0  0
  2  3  1  0  0  0  0
  2  4  1  0  0  0  0
  2  5  1  0  0  0  0
  1  2  1  0  0  0  0
 26 27  2  0  0  0  0
 26 28  1  0  0  0  0
 23 24  1  0  0  0  0
 23 25  1  0  0  0  0
 20 21  1  0  0  0  0
 20 22  1  0  0  0  0
 20 23  1  0  0  0  0
 17 18  1  0  0  0  0
 17 19  1  0  0  0  0
 17 20  1  0  0  0  0
 14 15  1  0  0  0  0
 14 16  1  0  0  0  0
 14 17  1  0  0  0  0
 11 12  1  0  0  0  0
 11 13  1  0  0  0  0
 11 14  1  0  0  0  0
  9 10  1  0  0  0  0
  9 11  1  0  0  0  0
  9 26  1  0  0  0  0
  7  8  1  0  0  0  0
  7  9  1  0  0  0  0
 30 31  1  0  0  0  0
 30 32  1  0  0  0  0
 30 33  1  0  0  0  0
 28 29  1  0  0  0  0
 28 30  1  0  0  0  0
M  END
$$$$
default_name
  -OEChem-02102213163D

 33 32  0     1  0  0  0  0  0999 V2000
   -3.8420   -3.6918    1.5562 H   0  0  0  0  0  0  0  0  0  0  0  0
   -3.8430   -2.7008    1.1032 C   0  0  0  0  0  0  0  0  0  0  0  0
   -4.5510   -2.0608    1.6242 H   0  0  0  0  0  0  0  0  0  0  0  0
   -4.1140   -2.7798    0.0522 H   0  0  0  0  0  0  0  0  0  0  0  0
   -2.4570   -2.1098    1.2172 C   0  0  0  0  0  0  0  0  0  0  0  0
   -1.5600   -2.7438    1.7572 O   0  0  0  0  0  0  0  0  0  0  0  0
   -2.2870   -0.8898    0.7102 N   0  0  0  0  0  0  0  0  0  0  0  0
   -3.0820   -0.4218    0.2992 H   0  0  0  0  0  0  0  0  0  0  0  0
   -1.0240   -0.1468    0.7262 C   0  0  1  0  0  0  0  0  0  0  0  0
   -0.3583   -0.6100    1.4558 H   0  0  0  0  0  0  0  0  0  0  0  0
   -0.3739   -0.2459   -0.6675 C   0  0  0  0  0  0  0  0  0  0  0  0
   -1.1656   -0.3359   -1.4141 H   0  0  0  0  0  0  0  0  0  0  0  0
    0.1831    0.6698   -0.8705 H   0  0  0  0  0  0  0  0  0  0  0  0
    0.5649   -1.4534   -0.8161 C   0  0  0  0  0  0  0  0  0  0  0  0
    0.2082   -2.0975   -1.6203 H   0  0  0  0  0  0  0  0  0  0  0  0
    1.5685   -1.1000   -1.0597 H   0  0  0  0  0  0  0  0  0  0  0  0
    0.6185   -2.2680    0.4813 C   0  0  0  0  0  0  0  0  0  0  0  0
    0.9665   -1.6344    1.2977 H   0  0  0  0  0  0  0  0  0  0  0  0
   -0.3779   -2.6435    0.7162 H   0  0  0  0  0  0  0  0  0  0  0  0
    1.5762   -3.4461    0.3144 C   0  0  0  0  0  0  0  0  0  0  0  0
    1.2205   -4.0903   -0.4881 H   0  0  0  0  0  0  0  0  0  0  0  0
    2.5677   -3.0738    0.0623 H   0  0  0  0  0  0  0  0  0  0  0  0
    1.6695   -4.2351    1.5482 N   0  0  0  0  0  0  0  0  0  0  0  0
    2.2979   -5.0107    1.3980 H   0  0  0  0  0  0  0  0  0  0  0  0
    2.0295   -3.6503    2.2890 H   0  0  0  0  0  0  0  0  0  0  0  0
   -1.2712    1.3099    1.1517 C   0  0  0  0  0  0  0  0  0  0  0  0
   -2.2039    1.9448    0.6639 O   0  0  0  0  0  0  0  0  0  0  0  0
   -0.4306    1.8354    2.0503 N   0  0  0  0  0  0  0  0  0  0  0  0
    0.3001    1.2459    2.4139 H   0  0  0  0  0  0  0  0  0  0  0  0
   -0.5192    3.2082    2.5456 C   0  0  0  0  0  0  0  0  0  0  0  0
   -1.5166    3.3903    2.9518 H   0  0  0  0  0  0  0  0  0  0  0  0
    0.2240    3.3791    3.3257 H   0  0  0  0  0  0  0  0  0  0  0  0
   -0.3477    3.9067    1.7239 H   0  0  0  0  0  0  0  0  0  0  0  0
  5  6  2  0  0  0  0
  5  7  1  0  0  0  0
  2  3  1  0  0  0  0
  2  4  1  0  0  0  0
  2  5  1  0  0  0  0
  1  2  1  0  0  0  0
 26 27  2  0  0  0  0
 26 28  1  0  0  0  0
 23 24  1  0  0  0  0
 23 25  1  0  0  0  0
 20 21  1  0  0  0  0
 20 22  1  0  0  0  0
 20 23  1  0  0  0  0
 17 18  1  0  0  0  0
 17 19  1  0  0  0  0
 17 20  1  0  0  0  0
 14 15  1  0  0  0  0
 14 16  1  0  0  0  0
 14 17  1  0  0  0  0
 11 12  1  0  0  0  0
 11 13  1  0  0  0  0
 11 14  1  0  0  0  0
  9 10  1  0  0  0  0
  9 11  1  0  0  0  0
  9 26  1  0  0  0  0
  7  8  1  0  0  0  0
  7  9  1  0  0  0  0
 30 31  1  0  0  0  0
 30 32  1  0  0  0  0
 30 33  1  0  0  0  0
 28 29  1  0  0  0  0
 28 30  1  0  0  0  0
M  END
$$$$
default_name
  -OEChem-02102213163D

 33 32  0     1  0  0  0  0  0999 V2000
   -3.8420   -3.6918    1.5562 H   0  0  0  0  0  0  0  0  0  0  0  0
   -3.8430   -2.7008    1.1032 C   0  0  0  0  0  0  0  0  0  0  0  0
   -4.5510   -2.0608    1.6242 H   0  0  0  0  0  0  0  0  0  0  0  0
   -4.1140   -2.7798    0.0522 H   0  0  0  0  0  0  0  0  0  0  0  0
   -2.4570   -2.1098    1.2172 C   0  0  0  0  0  0  0  0  0  0  0  0
   -1.5600   -2.7438    1.7572 O   0  0  0  0  0  0  0  0  0  0  0  0
   -2.2870   -0.8898    0.7102 N   0  0  0  0  0  0  0  0  0  0  0  0
   -3.0820   -0.4218    0.2992 H   0  0  0  0  0  0  0  0  0  0  0  0
   -1.0240   -0.1468    0.7262 C   0  0  1  0  0  0  0  0  0  0  0  0
   -0.3583   -0.6100    1.4558 H   0  0  0  0  0  0  0  0  0  0  0  0
   -0.3739   -0.2459   -0.6675 C   0  0  0  0  0  0  0  0  0  0  0  0
   -1.1656   -0.3359   -1.4141 H   0  0  0  0  0  0  0  0  0  0  0  0
    0.1831    0.6698   -0.8705 H   0  0  0  0  0  0  0  0  0  0  0  0
    0.5649   -1.4534   -0.8161 C   0  0  0  0  0  0  0  0  0  0  0  0
    0.3754   -1.9493   -1.7685 H   0  0  0  0  0  0  0  0  0  0  0  0
    1.6001   -1.1082   -0.7926 H   0  0  0  0  0  0  0  0  0  0  0  0
    0.3438   -2.4614    0.3174 C   0  0  0  0  0  0  0  0  0  0  0  0
    0.5222   -1.9775    1.2781 H   0  0  0  0  0  0  0  0  0  0  0  0
   -0.6828   -2.8272    0.2834 H   0  0  0  0  0  0  0  0  0  0  0  0
    1.3051   -3.6379    0.1597 C   0  0  0  0  0  0  0  0  0  0  0  0
    1.1163   -4.1340   -0.7910 H   0  0  0  0  0  0  0  0  0  0  0  0
    2.3305   -3.2722    0.1755 H   0  0  0  0  0  0  0  0  0  0  0  0
    1.1362   -4.6123    1.2438 N   0  0  0  0  0  0  0  0  0  0  0  0
    1.7752   -5.3804    1.1005 H   0  0  0  0  0  0  0  0  0  0  0  0
    1.3414   -4.1652    2.1260 H   0  0  0  0  0  0  0  0  0  0  0  0
   -1.2712    1.3099    1.1517 C   0  0  0  0  0  0  0  0  0  0  0  0
   -2.2039    1.9448    0.6639 O   0  0  0  0  0  0  0  0  0  0  0  0
   -0.4306    1.8354    2.0503 N   0  0  0  0  0  0  0  0  0  0  0  0
    0.3001    1.2459    2.4139 H   0  0  0  0  0  0  0  0  0  0  0  0
   -0.5192    3.2082    2.5456 C   0  0  0  0  0  0  0  0  0  0  0  0
   -1.5166    3.3903    2.9518 H   0  0  0  0  0  0  0  0  0  0  0  0
    0.2240    3.3791    3.3257 H   0  0  0  0  0  0  0  0  0  0  0  0
   -0.3477    3.9067    1.7239 H   0  0  0  0  0  0  0  0  0  0  0  0
  5  6  2  0  0  0  0
  5  7  1  0  0  0  0
  2  3  1  0  0  0  0
  2  4  1  0  0  0  0
  2  5  1  0  0  0  0
  1  2  1  0  0  0  0
 26 27  2  0  0  0  0
 26 28  1  0  0  0  0
 23 24  1  0  0  0  0
 23 25  1  0  0  0  0
 20 21  1  0  0  0  0
 20 22  1  0  0  0  0
 20 23  1  0  0  0  0
 17 18  1  0  0  0  0
 17 19  1  0  0  0  0
 17 20  1  0  0  0  0
 14 15  1  0  0  0  0
 14 16  1  0  0  0  0
 14 17  1  0  0  0  0
 11 12  1  0  0  0  0
 11 13  1  0  0  0  0
 11 14  1  0  0  0  0
  9 10  1  0  0  0  0
  9 11  1  0  0  0  0
  9 26  1  0  0  0  0
  7  8  1  0  0  0  0
  7  9  1  0  0  0  0
 30 31  1  0  0  0  0
 30 32  1  0  0  0  0
 30 33  1  0  0  0  0
 28 29  1  0  0  0  0
 28 30  1  0  0  0  0
M  END
$$$$
default_name
  -OEChem-02102213163D

 33 32  0     1  0  0  0  0  0999 V2000
   -3.8420   -3.6918    1.5562 H   0  0  0  0  0  0  0  0  0  0  0  0
   -3.8430   -2.7008    1.1032 C   0  0  0  0  0  0  0  0  0  0  0  0
   -4.5510   -2.0608    1.6242 H   0  0  0  0  0  0  0  0  0  0  0  0
   -4.1140   -2.7798    0.0522 H   0  0  0  0  0  0  0  0  0  0  0  0
   -2.4570   -2.1098    1.2172 C   0  0  0  0  0  0  0  0  0  0  0  0
   -1.5600   -2.7438    1.7572 O   0  0  0  0  0  0  0  0  0  0  0  0
   -2.2870   -0.8898    0.7102 N   0  0  0  0  0  0  0  0  0  0  0  0
   -3.0820   -0.4218    0.2992 H   0  0  0  0  0  0  0  0  0  0  0  0
   -1.0240   -0.1468    0.7262 C   0  0  1  0  0  0  0  0  0  0  0  0
   -0.3583   -0.6100    1.4558 H   0  0  0  0  0  0  0  0  0  0  0  0
   -0.3739   -0.2459   -0.6675 C   0  0  0  0  0  0  0  0  0  0  0  0
   -1.1656   -0.3359   -1.4141 H   0  0  0  0  0  0  0  0  0  0  0  0
    0.1831    0.6698   -0.8705 H   0  0  0  0  0  0  0  0  0  0  0  0
    0.5649   -1.4534   -0.8161 C   0  0  0  0  0  0  0  0  0  0  0  0
    0.5707   -1.7869   -1.8542 H   0  0  0  0  0  0  0  0  0  0  0  0
    1.5762   -1.1592   -0.5295 H   0  0  0  0  0  0  0  0  0  0  0  0
    0.1070   -2.6154    0.0726 C   0  0  0  0  0  0  0  0  0  0  0  0
    0.0884   -2.2946    1.1146 H   0  0  0  0  0  0  0  0  0  0  0  0
   -0.8939   -2.9287   -0.2257 H   0  0  0  0  0  0  0  0  0  0  0  0
    1.0699   -3.7918   -0.0753 C   0  0  0  0  0  0  0  0  0  0  0  0
    1.0761   -4.1258   -1.1116 H   0  0  0  0  0  0  0  0  0  0  0  0
    2.0733   -3.4758    0.2053 H   0  0  0  0  0  0  0  0  0  0  0  0
    0.6735   -4.9151    0.7816 N   0  0  0  0  0  0  0  0  0  0  0  0
    1.3217   -5.6774    0.6484 H   0  0  0  0  0  0  0  0  0  0  0  0
    0.6970   -4.6196    1.7473 H   0  0  0  0  0  0  0  0  0  0  0  0
   -1.2712    1.3099    1.1517 C   0  0  0  0  0  0  0  0  0  0  0  0
   -2.2039    1.9448    0.6639 O   0  0  0  0  0  0  0  0  0  0  0  0
   -0.4306    1.8354    2.0503 N   0  0  0  0  0  0  0  0  0  0  0  0
    0.3001    1.2459    2.4139 H   0  0  0  0  0  0  0  0  0  0  0  0
   -0.5192    3.2082    2.5456 C   0  0  0  0  0  0  0  0  0  0  0  0
   -1.5166    3.3903    2.9518 H   0  0  0  0  0  0  0  0  0  0  0  0
    0.2240    3.3791    3.3257 H   0  0  0  0  0  0  0  0  0  0  0  0
   -0.3477    3.9067    1.7239 H   0  0  0  0  0  0  0  0  0  0  0  0
  5  6  2  0  0  0  0
  5  7  1  0  0  0  0
  2  3  1  0  0  0  0
  2  4  1  0  0  0  0
  2  5  1  0  0  0  0
  1  2  1  0  0  0  0
 26 27  2  0  0  0  0
 26 28  1  0  0  0  0
 23 24  1  0  0  0  0
 23 25  1  0  0  0  0
 20 21  1  0  0  0  0
 20 22  1  0  0  0  0
 20 23  1  0  0  0  0
 17 18  1  0  0  0  0
 17 19  1  0  0  0  0
 17 20  1  0  0  0  0
 14 15  1  0  0  0  0
 14 16  1  0  0  0  0
 14 17  1  0  0  0  0
 11 12  1  0  0  0  0
 11 13  1  0  0  0  0
 11 14  1  0  0  0  0
  9 10  1  0  0  0  0
  9 11  1  0  0  0  0
  9 26  1  0  0  0  0
  7  8  1  0  0  0  0
  7  9  1  0  0  0  0
 30 31  1  0  0  0  0
 30 32  1  0  0  0  0
 30 33  1  0  0  0  0
 28 29  1  0  0  0  0
 28 30  1  0  0  0  0
M  END
$$$$
default_name
  -OEChem-02102213163D

 33 32  0     1  0  0  0  0  0999 V2000
   -3.8420   -3.6918    1.5562 H   0  0  0  0  0  0  0  0  0  0  0  0
   -3.8430   -2.7008    1.1032 C   0  0  0  0  0  0  0  0  0  0  0  0
   -4.5510   -2.0608    1.6242 H   0  0  0  0  0  0  0  0  0  0  0  0
   -4.1140   -2.7798    0.0522 H   0  0  0  0  0  0  0  0  0  0  0  0
   -2.4570   -2.1098    1.2172 C   0  0  0  0  0  0  0  0  0  0  0  0
   -1.5600   -2.7438    1.7572 O   0  0  0  0  0  0  0  0  0  0  0  0
   -2.2870   -0.8898    0.7102 N   0  0  0  0  0  0  0  0  0  0  0  0
   -3.0820   -0.4218    0.2992 H   0  0  0  0  0  0  0  0  0  0  0  0
   -1.0240   -0.1468    0.7262 C   0  0  1  0  0  0  0  0  0  0  0  0
   -0.3583   -0.6100    1.4558 H   0  0  0  0  0  0  0  0  0  0  0  0
   -0.3739   -0.2459   -0.6675 C   0  0  0  0  0  0  0  0  0  0  0  0
   -1.1656   -0.3359   -1.4141 H   0  0  0  0  0  0  0  0  0  0  0  0
    0.1831    0.6698   -0.8705 H   0  0  0  0  0  0  0  0  0  0  0  0
    0.5649   -1.4534   -0.8161 C   0  0  0  0  0  0  0  0  0  0  0  0
    0.7809   -1.6213   -1.8716 H   0  0  0  0  0  0  0  0  0  0  0  0
    1.4983   -1.2495   -0.2883 H   0  0  0  0  0  0  0  0  0  0  0  0
   -0.0759   -2.7195   -0.2363 C   0  0  0  0  0  0  0  0  0  0  0  0
   -0.3053   -2.5642    0.8183 H   0  0  0  0  0  0  0  0  0  0  0  0
   -0.9969   -2.9409   -0.7765 H   0  0  0  0  0  0  0  0  0  0  0  0
    0.8867   -3.8974   -0.3744 C   0  0  0  0  0  0  0  0  0  0  0  0
    1.1026   -4.0662   -1.4281 H   0  0  0  0  0  0  0  0  0  0  0  0
    1.8138   -3.6707    0.1495 H   0  0  0  0  0  0  0  0  0  0  0  0
    0.3129   -5.1230    0.1933 N   0  0  0  0  0  0  0  0  0  0  0  0
    0.9680   -5.8815    0.0726 H   0  0  0  0  0  0  0  0  0  0  0  0
    0.1402   -4.9825    1.1785 H   0  0  0  0  0  0  0  0  0  0  0  0
   -1.2712    1.3099    1.1517 C   0  0  0  0  0  0  0  0  0  0  0  0
   -2.2039    1.9448    0.6639 O   0  0  0  0  0  0  0  0  0  0  0  0
   -0.4306    1.8354    2.0503 N   0  0  0  0  0  0  0  0  0  0  0  0
    0.3001    1.2459    2.4139 H   0  0  0  0  0  0  0  0  0  0  0  0
   -0.5192    3.2082    2.5456 C   0  0  0  0  0  0  0  0  0  0  0  0
   -1.5166    3.3903    2.9518 H   0  0  0  0  0  0  0  0  0  0  0  0
    0.2240    3.3791    3.3257 H   0  0  0  0  0  0  0  0  0  0  0  0
   -0.3477    3.9067    1.7239 H   0  0  0  0  0  0  0  0  0  0  0  0
  5  6  2  0  0  0  0
  5  7  1  0  0  0  0
  2  3  1  0  0  0  0
  2  4  1  0  0  0  0
  2  5  1  0  0  0  0
  1  2  1  0  0  0  0
 26 27  2  0  0  0  0
 26 28  1  0  0  0  0
 23 24  1  0  0  0  0
 23 25  1  0  0  0  0
 20 21  1  0  0  0  0
 20 22  1  0  0  0  0
 20 23  1  0  0  0  0
 17 18  1  0  0  0  0
 17 19  1  0  0  0  0
 17 20  1  0  0  0  0
 14 15  1  0  0  0  0
 14 16  1  0  0  0  0
 14 17  1  0  0  0  0
 11 12  1  0  0  0  0
 11 13  1  0  0  0  0
 11 14  1  0  0  0  0
  9 10  1  0  0  0  0
  9 11  1  0  0  0  0
  9 26  1  0  0  0  0
  7  8  1  0  0  0  0
  7  9  1  0  0  0  0
 30 31  1  0  0  0  0
 30 32  1  0  0  0  0
 30 33  1  0  0  0  0
 28 29  1  0  0  0  0
 28 30  1  0  0  0  0
M  END
$$$$
default_name
  -OEChem-02102213163D

 33 32  0     1  0  0  0  0  0999 V2000
   -3.8420   -3.6918    1.5562 H   0  0  0  0  0  0  0  0  0  0  0  0
   -3.8430   -2.7008    1.1032 C   0  0  0  0  0  0  0  0  0  0  0  0
   -4.5510   -2.0608    1.6242 H   0  0  0  0  0  0  0  0  0  0  0  0
   -4.1140   -2.7798    0.0522 H   0  0  0  0  0  0  0  0  0  0  0  0
   -2.4570   -2.1098    1.2172 C   0  0  0  0  0  0  0  0  0  0  0  0
   -1.5600   -2.7438    1.7572 O   0  0  0  0  0  0  0  0  0  0  0  0
   -2.2870   -0.8898    0.7102 N   0  0  0  0  0  0  0  0  0  0  0  0
   -3.0820   -0.4218    0.2992 H   0  0  0  0  0  0  0  0  0  0  0  0
   -1.0240   -0.1468    0.7262 C   0  0  1  0  0  0  0  0  0  0  0  0
   -0.3583   -0.6100    1.4558 H   0  0  0  0  0  0  0  0  0  0  0  0
   -0.3739   -0.2459   -0.6675 C   0  0  0  0  0  0  0  0  0  0  0  0
   -1.1656   -0.3359   -1.4141 H   0  0  0  0  0  0  0  0  0  0  0  0
    0.1831    0.6698   -0.8705 H   0  0  0  0  0  0  0  0  0  0  0  0
    0.5649   -1.4534   -0.8161 C   0  0  0  0  0  0  0  0  0  0  0  0
    0.9916   -1.4639   -1.8194 H   0  0  0  0  0  0  0  0  0  0  0  0
    1.3717   -1.3729   -0.0854 H   0  0  0  0  0  0  0  0  0  0  0  0
   -0.1923   -2.7666   -0.5884 C   0  0  0  0  0  0  0  0  0  0  0  0
   -0.6320   -2.7679    0.4094 H   0  0  0  0  0  0  0  0  0  0  0  0
   -0.9846   -2.8630   -1.3313 H   0  0  0  0  0  0  0  0  0  0  0  0
    0.7678   -3.9476   -0.7173 C   0  0  0  0  0  0  0  0  0  0  0  0
    1.1942   -3.9592   -1.7191 H   0  0  0  0  0  0  0  0  0  0  0  0
    1.5695   -3.8437    0.0120 H   0  0  0  0  0  0  0  0  0  0  0  0
    0.0792   -5.2217   -0.4813 N   0  0  0  0  0  0  0  0  0  0  0  0
    0.7385   -5.9786   -0.5879 H   0  0  0  0  0  0  0  0  0  0  0  0
   -0.2910   -5.2291    0.4585 H   0  0  0  0  0  0  0  0  0  0  0  0
   -1.2712    1.3099    1.1517 C   0  0  0  0  0  0  0  0  0  0  0  0
   -2.2039    1.9448    0.6639 O   0  0  0  0  0  0  0  0  0  0  0  0
   -0.4306    1.8354    2.0503 N   0  0  0  0  0  0  0  0  0  0  0  0
    0.3001    1.2459    2.4139 H   0  0  0  0  0  0  0  0  0  0  0  0
   -0.5192    3.2082    2.5456 C   0  0  0  0  0  0  0  0  0  0  0  0
   -1.5166    3.3903    2.9518 H   0  0  0  0  0  0  0  0  0  0  0  0
    0.2240    3.3791    3.3257 H   0  0  0  0  0  0  0  0  0  0  0  0
   -0.3477    3.9067    1.7239 H   0  0  0  0  0  0  0  0  0  0  0  0
  5  6  2  0  0  0  0
  5  7  1  0  0  0  0
  2  3  1  0  0  0  0
  2  4  1  0  0  0  0
  2  5  1  0  0  0  0
  1  2  1  0  0  0  0
 26 27  2  0  0  0  0
 26 28  1  0  0  0  0
 23 24  1  0  0  0  0
 23 25  1  0  0  0  0
 20 21  1  0  0  0  0
 20 22  1  0  0  0  0
 20 23  1  0  0  0  0
 17 18  1  0  0  0  0
 17 19  1  0  0  0  0
 17 20  1  0  0  0  0
 14 15  1  0  0  0  0
 14 16  1  0  0  0  0
 14 17  1  0  0  0  0
 11 12  1  0  0  0  0
 11 13  1  0  0  0  0
 11 14  1  0  0  0  0
  9 10  1  0  0  0  0
  9 11  1  0  0  0  0
  9 26  1  0  0  0  0
  7  8  1  0  0  0  0
  7  9  1  0  0  0  0
 30 31  1  0  0  0  0
 30 32  1  0  0  0  0
 30 33  1  0  0  0  0
 28 29  1  0  0  0  0
 28 30  1  0  0  0  0
M  END
$$$$
default_name
  -OEChem-02102213163D

 33 32  0     1  0  0  0  0  0999 V2000
   -3.8420   -3.6918    1.5562 H   0  0  0  0  0  0  0  0  0  0  0  0
   -3.8430   -2.7008    1.1032 C   0  0  0  0  0  0  0  0  0  0  0  0
   -4.5510   -2.0608    1.6242 H   0  0  0  0  0  0  0  0  0  0  0  0
   -4.1140   -2.7798    0.0522 H   0  0  0  0  0  0  0  0  0  0  0  0
   -2.4570   -2.1098    1.2172 C   0  0  0  0  0  0  0  0  0  0  0  0
   -1.5600   -2.7438    1.7572 O   0  0  0  0  0  0  0  0  0  0  0  0
   -2.2870   -0.8898    0.7102 N   0  0  0  0  0  0  0  0  0  0  0  0
   -3.0820   -0.4218    0.2992 H   0  0  0  0  0  0  0  0  0  0  0  0
   -1.0240   -0.1468    0.7262 C   0  0  1  0  0  0  0  0  0  0  0  0
   -0.3583   -0.6100    1.4558 H   0  0  0  0  0  0  0  0  0  0  0  0
   -0.3739   -0.2459   -0.6675 C   0  0  0  0  0  0  0  0  0  0  0  0
   -1.1656   -0.3359   -1.4141 H   0  0  0  0  0  0  0  0  0  0  0  0
    0.1831    0.6698   -0.8705 H   0  0  0  0  0  0  0  0  0  0  0  0
    0.5649   -1.4534   -0.8161 C   0  0  0  0  0  0  0  0  0  0  0  0
    1.1885   -1.3254   -1.7013 H   0  0  0  0  0  0  0  0  0  0  0  0
    1.2051   -1.5210    0.0654 H   0  0  0  0  0  0  0  0  0  0  0  0
   -0.2343   -2.7536   -0.9596 C   0  0  0  0  0  0  0  0  0  0  0  0
   -0.8696   -2.8918   -0.0842 H   0  0  0  0  0  0  0  0  0  0  0  0
   -0.8579   -2.7004   -1.8525 H   0  0  0  0  0  0  0  0  0  0  0  0
    0.7216   -3.9389   -1.0806 C   0  0  0  0  0  0  0  0  0  0  0  0
    1.3444   -3.8122   -1.9646 H   0  0  0  0  0  0  0  0  0  0  0  0
    1.3572   -3.9829   -0.1977 H   0  0  0  0  0  0  0  0  0  0  0  0
   -0.0120   -5.2045   -1.1960 N   0  0  0  0  0  0  0  0  0  0  0  0
    0.6486   -5.9623   -1.2878 H   0  0  0  0  0  0  0  0  0  0  0  0
   -0.5673   -5.3427   -0.3636 H   0  0  0  0  0  0  0  0  0  0  0  0
   -1.2712    1.3099    1.1517 C   0  0  0  0  0  0  0  0  0  0  0  0
   -2.2039    1.9448    0.6639 O   0  0  0  0  0  0  0  0  0  0  0  0
   -0.4306    1.8354    2.0503 N   0  0  0  0  0  0  0  0  0  0  0  0
    0.3001    1.2459    2.4139 H   0  0  0  0  0  0  0  0  0  0  0  0
   -0.5192    3.2082    2.5456 C   0  0  0  0  0  0  0  0  0  0  0  0
   -1.5166    3.3903    2.9518 H   0  0  0  0  0  0  0  0  0  0  0  0
    0.2240    3.3791    3.3257 H   0  0  0  0  0  0  0  0  0  0  0  0
   -0.3477    3.9067    1.7239 H   0  0  0  0  0  0  0  0  0  0  0  0
  5  6  2  0  0  0  0
  5  7  1  0  0  0  0
  2  3  1  0  0  0  0
  2  4  1  0  0  0  0
  2  5  1  0  0  0  0
  1  2  1  0  0  0  0
 26 27  2  0  0  0  0
 26 28  1  0  0  0  0
 23 24  1  0  0  0  0
 23 25  1  0  0  0  0
 20 21  1  0  0  0  0
 20 22  1  0  0  0  0
 20 23  1  0  0  0  0
 17 18  1  0  0  0  0
 17 19  1  0  0  0  0
 17 20  1  0  0  0  0
 14 15  1  0  0  0  0
 14 16  1  0  0  0  0
 14 17  1  0  0  0  0
 11 12  1  0  0  0  0
 11 13  1  0  0  0  0
 11 14  1  0  0  0  0
  9 10  1  0  0  0  0
  9 11  1  0  0  0  0
  9 26  1  0  0  0  0
  7  8  1  0  0  0  0
  7  9  1  0  0  0  0
 30 31  1  0  0  0  0
 30 32  1  0  0  0  0
 30 33  1  0  0  0  0
 28 29  1  0  0  0  0
 28 30  1  0  0  0  0
M  END
$$$$
default_name
  -OEChem-02102213163D

 33 32  0     1  0  0  0  0  0999 V2000
   -3.8420   -3.6918    1.5562 H   0  0  0  0  0  0  0  0  0  0  0  0
   -3.8430   -2.7008    1.1032 C   0  0  0  0  0  0  0  0  0  0  0  0
   -4.5510   -2.0608    1.6242 H   0  0  0  0  0  0  0  0  0  0  0  0
   -4.1140   -2.7798    0.0522 H   0  0  0  0  0  0  0  0  0  0  0  0
   -2.4570   -2.1098    1.2172 C   0  0  0  0  0  0  0  0  0  0  0  0
   -1.5600   -2.7438    1.7572 O   0  0  0  0  0  0  0  0  0  0  0  0
   -2.2870   -0.8898    0.7102 N   0  0  0  0  0  0  0  0  0  0  0  0
   -3.0820   -0.4218    0.2992 H   0  0  0  0  0  0  0  0  0  0  0  0
   -1.0240   -0.1468    0.7262 C   0  0  1  0  0  0  0  0  0  0  0  0
   -0.3583   -0.6100    1.4558 H   0  0  0  0  0  0  0  0  0  0  0  0
   -0.3739   -0.2459   -0.6675 C   0  0  0  0  0  0  0  0  0  0  0  0
   -1.1656   -0.3359   -1.4141 H   0  0  0  0  0  0  0  0  0  0  0  0
    0.1831    0.6698   -0.8705 H   0  0  0  0  0  0  0  0  0  0  0  0
    0.5649   -1.4534   -0.8161 C   0  0  0  0  0  0  0  0  0  0  0  0
    1.3581   -1.2152   -1.5253 H   0  0  0  0  0  0  0  0  0  0  0  0
    1.0098   -1.6837    0.1536 H   0  0  0  0  0  0  0  0  0  0  0  0
   -0.1990   -2.6812   -1.3246 C   0  0  0  0  0  0  0  0  0  0  0  0
   -1.0017   -2.9275   -0.6289 H   0  0  0  0  0  0  0  0  0  0  0  0
   -0.6255   -2.4641   -2.3044 H   0  0  0  0  0  0  0  0  0  0  0  0
    0.7509   -3.8718   -1.4395 C   0  0  0  0  0  0  0  0  0  0  0  0
    1.5432   -3.6351   -2.1479 H   0  0  0  0  0  0  0  0  0  0  0  0
    1.1913   -4.0789   -0.4656 H   0  0  0  0  0  0  0  0  0  0  0  0
    0.0458   -5.0727   -1.9021 N   0  0  0  0  0  0  0  0  0  0  0  0
    0.7045   -5.8337   -1.9797 H   0  0  0  0  0  0  0  0  0  0  0  0
   -0.6698   -5.3155   -1.2319 H   0  0  0  0  0  0  0  0  0  0  0  0
   -1.2712    1.3099    1.1517 C   0  0  0  0  0  0  0  0  0  0  0  0
   -2.2039    1.9448    0.6639 O   0  0  0  0  0  0  0  0  0  0  0  0
   -0.4306    1.8354    2.0503 N   0  0  0  0  0  0  0  0  0  0  0  0
    0.3001    1.2459    2.4139 H   0  0  0  0  0  0  0  0  0  0  0  0
   -0.5192    3.2082    2.5456 C   0  0  0  0  0  0  0  0  0  0  0  0
   -1.5166    3.3903    2.9518 H   0  0  0  0  0  0  0  0  0  0  0  0
    0.2240    3.3791    3.3257 H   0  0  0  0  0  0  0  0  0  0  0  0
   -0.3477    3.9067    1.7239 H   0  0  0  0  0  0  0  0  0  0  0  0
  5  6  2  0  0  0  0
  5  7  1  0  0  0  0
  2  3  1  0  0  0  0
  2  4  1  0  0  0  0
  2  5  1  0  0  0  0
  1  2  1  0  0  0  0
 26 27  2  0  0  0  0
 26 28  1  0  0  0  0
 23 24  1  0  0  0  0
 23 25  1  0  0  0  0
 20 21  1  0  0  0  0
 20 22  1  0  0  0  0
 20 23  1  0  0  0  0
 17 18  1  0  0  0  0
 17 19  1  0  0  0  0
 17 20  1  0  0  0  0
 14 15  1  0  0  0  0
 14 16  1  0  0  0  0
 14 17  1  0  0  0  0
 11 12  1  0  0  0  0
 11 13  1  0  0  0  0
 11 14  1  0  0  0  0
  9 10  1  0  0  0  0
  9 11  1  0  0  0  0
  9 26  1  0  0  0  0
  7  8  1  0  0  0  0
  7  9  1  0  0  0  0
 30 31  1  0  0  0  0
 30 32  1  0  0  0  0
 30 33  1  0  0  0  0
 28 29  1  0  0  0  0
 28 30  1  0  0  0  0
M  END
$$$$
default_name
  -OEChem-02102213163D

 33 32  0     1  0  0  0  0  0999 V2000
   -3.8420   -3.6918    1.5562 H   0  0  0  0  0  0  0  0  0  0  0  0
   -3.8430   -2.7008    1.1032 C   0  0  0  0  0  0  0  0  0  0  0  0
   -4.5510   -2.0608    1.6242 H   0  0  0  0  0  0  0  0  0  0  0  0
   -4.1140   -2.7798    0.0522 H   0  0  0  0  0  0  0  0  0  0  0  0
   -2.4570   -2.1098    1.2172 C   0  0  0  0  0  0  0  0  0  0  0  0
   -1.5600   -2.7438    1.7572 O   0  0  0  0  0  0  0  0  0  0  0  0
   -2.2870   -0.8898    0.7102 N   0  0  0  0  0  0  0  0  0  0  0  0
   -3.0820   -0.4218    0.2992 H   0  0  0  0  0  0  0  0  0  0  0  0
   -1.0240   -0.1468    0.7262 C   0  0  1  0  0  0  0  0  0  0  0  0
   -0.3583   -0.6100    1.4558 H   0  0  0  0  0  0  0  0  0  0  0  0
   -0.3739   -0.2459   -0.6675 C   0  0  0  0  0  0  0  0  0  0  0  0
   -1.1656   -0.3359   -1.4141 H   0  0  0  0  0  0  0  0  0  0  0  0
    0.1831    0.6698   -0.8705 H   0  0  0  0  0  0  0  0  0  0  0  0
    0.5649   -1.4534   -0.8161 C   0  0  0  0  0  0  0  0  0  0  0  0
    1.4888   -1.1408   -1.3034 H   0  0  0  0  0  0  0  0  0  0  0  0
    0.7991   -1.8499    0.1735 H   0  0  0  0  0  0  0  0  0  0  0  0
   -0.0889   -2.5545   -1.6586 C   0  0  0  0  0  0  0  0  0  0  0  0
   -1.0195   -2.8726   -1.1875 H   0  0  0  0  0  0  0  0  0  0  0  0
   -0.3032   -2.1702   -2.6562 H   0  0  0  0  0  0  0  0  0  0  0  0
    0.8540   -3.7510   -1.7697 C   0  0  0  0  0  0  0  0  0  0  0  0
    1.7769   -3.4400   -2.2566 H   0  0  0  0  0  0  0  0  0  0  0  0
    1.0832   -4.1252   -0.7732 H   0  0  0  0  0  0  0  0  0  0  0  0
    0.2485   -4.8351   -2.5516 N   0  0  0  0  0  0  0  0  0  0  0  0
    0.9025   -5.6014   -2.6162 H   0  0  0  0  0  0  0  0  0  0  0  0
   -0.5916   -5.1494   -2.0872 H   0  0  0  0  0  0  0  0  0  0  0  0
   -1.2712    1.3099    1.1517 C   0  0  0  0  0  0  0  0  0  0  0  0
   -2.2039    1.9448    0.6639 O   0  0  0  0  0  0  0  0  0  0  0  0
   -0.4306    1.8354    2.0503 N   0  0  0  0  0  0  0  0  0  0  0  0
    0.3001    1.2459    2.4139 H   0  0  0  0  0  0  0  0  0  0  0  0
   -0.5192    3.2082    2.5456 C   0  0  0  0  0  0  0  0  0  0  0  0
   -1.5166    3.3903    2.9518 H   0  0  0  0  0  0  0  0  0  0  0  0
    0.2240    3.3791    3.3257 H   0  0  0  0  0  0  0  0  0  0  0  0
   -0.3477    3.9067    1.7239 H   0  0  0  0  0  0  0  0  0  0  0  0
  5  6  2  0  0  0  0
  5  7  1  0  0  0  0
  2  3  1  0  0  0  0
  2  4  1  0  0  0  0
  2  5  1  0  0  0  0
  1  2  1  0  0  0  0
 26 27  2  0  0  0  0
 26 28  1  0  0  0  0
 23 24  1  0  0  0  0
 23 25  1  0  0  0  0
 20 21  1  0  0  0  0
 20 22  1  0  0  0  0
 20 23  1  0  0  0  0
 17 18  1  0  0  0  0
 17 19  1  0  0  0  0
 17 20  1  0  0  0  0
 14 15  1  0  0  0  0
 14 16  1  0  0  0  0
 14 17  1  0  0  0  0
 11 12  1  0  0  0  0
 11 13  1  0  0  0  0
 11 14  1  0  0  0  0
  9 10  1  0  0  0  0
  9 11  1  0  0  0  0
  9 26  1  0  0  0  0
  7  8  1  0  0  0  0
  7  9  1  0  0  0  0
 30 31  1  0  0  0  0
 30 32  1  0  0  0  0
 30 33  1  0  0  0  0
 28 29  1  0  0  0  0
 28 30  1  0  0  0  0
M  END
$$$$
default_name
  -OEChem-02102213163D

 33 32  0     1  0  0  0  0  0999 V2000
   -3.8420   -3.6918    1.5562 H   0  0  0  0  0  0  0  0  0  0  0  0
   -3.8430   -2.7008    1.1032 C   0  0  0  0  0  0  0  0  0  0  0  0
   -4.5510   -2.0608    1.6242 H   0  0  0  0  0  0  0  0  0  0  0  0
   -4.1140   -2.7798    0.0522 H   0  0  0  0  0  0  0  0  0  0  0  0
   -2.4570   -2.1098    1.2172 C   0  0  0  0  0  0  0  0  0  0  0  0
   -1.5600   -2.7438    1.7572 O   0  0  0  0  0  0  0  0  0  0  0  0
   -2.2870   -0.8898    0.7102 N   0  0  0  0  0  0  0  0  0  0  0  0
   -3.0820   -0.4218    0.2992 H   0  0  0  0  0  0  0  0  0  0  0  0
   -1.0240   -0.1468    0.7262 C   0  0  1  0  0  0  0  0  0  0  0  0
   -0.3583   -0.6100    1.4558 H   0  0  0  0  0  0  0  0  0  0  0  0
   -0.3739   -0.2459   -0.6675 C   0  0  0  0  0  0  0  0  0  0  0  0
   -1.1656   -0.3359   -1.4141 H   0  0  0  0  0  0  0  0  0  0  0  0
    0.1831    0.6698   -0.8705 H   0  0  0  0  0  0  0  0  0  0  0  0
    0.5649   -1.4534   -0.8161 C   0  0  0  0  0  0  0  0  0  0  0  0
    1.5719   -1.1074   -1.0507 H   0  0  0  0  0  0  0  0  0  0  0  0
    0.5874   -2.0084    0.1235 H   0  0  0  0  0  0  0  0  0  0  0  0
    0.0885   -2.3821   -1.9388 C   0  0  0  0  0  0  0  0  0  0  0  0
   -0.9217   -2.7307   -1.7221 H   0  0  0  0  0  0  0  0  0  0  0  0
    0.0871   -1.8387   -2.8841 H   0  0  0  0  0  0  0  0  0  0  0  0
    1.0237   -3.5848   -2.0485 C   0  0  0  0  0  0  0  0  0  0  0  0
    2.0296   -3.2403   -2.2832 H   0  0  0  0  0  0  0  0  0  0  0  0
    1.0401   -4.1185   -1.0997 H   0  0  0  0  0  0  0  0  0  0  0  0
    0.5824   -4.5080   -3.1002 N   0  0  0  0  0  0  0  0  0  0  0  0
    1.2290   -5.2813   -3.1541 H   0  0  0  0  0  0  0  0  0  0  0  0
   -0.3379   -4.8557   -2.8711 H   0  0  0  0  0  0  0  0  0  0  0  0
   -1.2712    1.3099    1.1517 C   0  0  0  0  0  0  0  0  0  0  0  0
   -2.2039    1.9448    0.6639 O   0  0  0  0  0  0  0  0  0  0  0  0
   -0.4306    1.8354    2.0503 N   0  0  0  0  0  0  0  0  0  0  0  0
    0.3001    1.2459    2.4139 H   0  0  0  0  0  0  0  0  0  0  0  0
   -0.5192    3.2082    2.5456 C   0  0  0  0  0  0  0  0  0  0  0  0
   -1.5166    3.3903    2.9518 H   0  0  0  0  0  0  0  0  0  0  0  0
    0.2240    3.3791    3.3257 H   0  0  0  0  0  0  0  0  0  0  0  0
   -0.3477    3.9067    1.7239 H   0  0  0  0  0  0  0  0  0  0  0  0
  5  6  2  0  0  0  0
  5  7  1  0  0  0  0
  2  3  1  0  0  0  0
  2  4  1  0  0  0  0
  2  5  1  0  0  0  0
  1  2  1  0  0  0  0
 26 27  2  0  0  0  0
 26 28  1  0  0  0  0
 23 24  1  0  0  0  0
 23 25  1  0  0  0  0
 20 21  1  0  0  0  0
 20 22  1  0  0  0  0
 20 23  1  0  0  0  0
 17 18  1  0  0  0  0
 17 19  1  0  0  0  0
 17 20  1  0  0  0  0
 14 15  1  0  0  0  0
 14 16  1  0  0  0  0
 14 17  1  0  0  0  0
 11 12  1  0  0  0  0
 11 13  1  0  0  0  0
 11 14  1  0  0  0  0
  9 10  1  0  0  0  0
  9 11  1  0  0  0  0
  9 26  1  0  0  0  0
  7  8  1  0  0  0  0
  7  9  1  0  0  0  0
 30 31  1  0  0  0  0
 30 32  1  0  0  0  0
 30 33  1  0  0  0  0
 28 29  1  0  0  0  0
 28 30  1  0  0  0  0
M  END
$$$$
default_name
  -OEChem-02102213163D

 33 32  0     1  0  0  0  0  0999 V2000
   -3.8420   -3.6918    1.5562 H   0  0  0  0  0  0  0  0  0  0  0  0
   -3.8430   -2.7008    1.1032 C   0  0  0  0  0  0  0  0  0  0  0  0
   -4.5510   -2.0608    1.6242 H   0  0  0  0  0  0  0  0  0  0  0  0
   -4.1140   -2.7798    0.0522 H   0  0  0  0  0  0  0  0  0  0  0  0
   -2.4570   -2.1098    1.2172 C   0  0  0  0  0  0  0  0  0  0  0  0
   -1.5600   -2.7438    1.7572 O   0  0  0  0  0  0  0  0  0  0  0  0
   -2.2870   -0.8898    0.7102 N   0  0  0  0  0  0  0  0  0  0  0  0
   -3.0820   -0.4218    0.2992 H   0  0  0  0  0  0  0  0  0  0  0  0
   -1.0240   -0.1468    0.7262 C   0  0  1  0  0  0  0  0  0  0  0  0
   -0.3583   -0.6100    1.4558 H   0  0  0  0  0  0  0  0  0  0  0  0
   -0.3739   -0.2459   -0.6675 C   0  0  0  0  0  0  0  0  0  0  0  0
   -1.1656   -0.3359   -1.4141 H   0  0  0  0  0  0  0  0  0  0  0  0
    0.1831    0.6698   -0.8705 H   0  0  0  0  0  0  0  0  0  0  0  0
    0.5649   -1.4534   -0.8161 C   0  0  0  0  0  0  0  0  0  0  0  0
    1.6016   -1.1171   -0.7844 H   0  0  0  0  0  0  0  0  0  0  0  0
    0.3891   -2.1482    0.0071 H   0  0  0  0  0  0  0  0  0  0  0  0
    0.3212   -2.1757   -2.1460 C   0  0  0  0  0  0  0  0  0  0  0  0
   -0.7150   -2.5116   -2.1961 H   0  0  0  0  0  0  0  0  0  0  0  0
    0.5187   -1.4923   -2.9724 H   0  0  0  0  0  0  0  0  0  0  0  0
    1.2485   -3.3843   -2.2570 C   0  0  0  0  0  0  0  0  0  0  0  0
    2.2841   -3.0494   -2.2259 H   0  0  0  0  0  0  0  0  0  0  0  0
    1.0651   -4.0593   -1.4227 H   0  0  0  0  0  0  0  0  0  0  0  0
    1.0246   -4.1137   -3.5105 N   0  0  0  0  0  0  0  0  0  0  0  0
    1.6618   -4.8953   -3.5566 H   0  0  0  0  0  0  0  0  0  0  0  0
    0.0739   -4.4544   -3.5303 H   0  0  0  0  0  0  0  0  0  0  0  0
   -1.2712    1.3099    1.1517 C   0  0  0  0  0  0  0  0  0  0  0  0
   -2.2039    1.9448    0.6639 O   0  0  0  0  0  0  0  0  0  0  0  0
   -0.4306    1.8354    2.0503 N   0  0  0  0  0  0  0  0  0  0  0  0
    0.3001    1.2459    2.4139 H   0  0  0  0  0  0  0  0  0  0  0  0
   -0.5192    3.2082    2.5456 C   0  0  0  0  0  0  0  0  0  0  0  0
   -1.5166    3.3903    2.9518 H   0  0  0  0  0  0  0  0  0  0  0  0
    0.2240    3.3791    3.3257 H   0  0  0  0  0  0  0  0  0  0  0  0
   -0.3477    3.9067    1.7239 H   0  0  0  0  0  0  0  0  0  0  0  0
  5  6  2  0  0  0  0
  5  7  1  0  0  0  0
  2  3  1  0  0  0  0
  2  4  1  0  0  0  0
  2  5  1  0  0  0  0
  1  2  1  0  0  0  0
 26 27  2  0  0  0  0
 26 28  1  0  0  0  0
 23 24  1  0  0  0  0
 23 25  1  0  0  0  0
 20 21  1  0  0  0  0
 20 22  1  0  0  0  0
 20 23  1  0  0  0  0
 17 18  1  0  0  0  0
 17 19  1  0  0  0  0
 17 20  1  0  0  0  0
 14 15  1  0  0  0  0
 14 16  1  0  0  0  0
 14 17  1  0  0  0  0
 11 12  1  0  0  0  0
 11 13  1  0  0  0  0
 11 14  1  0  0  0  0
  9 10  1  0  0  0  0
  9 11  1  0  0  0  0
  9 26  1  0  0  0  0
  7  8  1  0  0  0  0
  7  9  1  0  0  0  0
 30 31  1  0  0  0  0
 30 32  1  0  0  0  0
 30 33  1  0  0  0  0
 28 29  1  0  0  0  0
 28 30  1  0  0  0  0
M  END
$$$$
default_name
  -OEChem-02102213163D

 33 32  0     1  0  0  0  0  0999 V2000
   -3.8420   -3.6918    1.5562 H   0  0  0  0  0  0  0  0  0  0  0  0
   -3.8430   -2.7008    1.1032 C   0  0  0  0  0  0  0  0  0  0  0  0
   -4.5510   -2.0608    1.6242 H   0  0  0  0  0  0  0  0  0  0  0  0
   -4.1140   -2.7798    0.0522 H   0  0  0  0  0  0  0  0  0  0  0  0
   -2.4570   -2.1098    1.2172 C   0  0  0  0  0  0  0  0  0  0  0  0
   -1.5600   -2.7438    1.7572 O   0  0  0  0  0  0  0  0  0  0  0  0
   -2.2870   -0.8898    0.7102 N   0  0  0  0  0  0  0  0  0  0  0  0
   -3.0820   -0.4218    0.2992 H   0  0  0  0  0  0  0  0  0  0  0  0
   -1.0240   -0.1468    0.7262 C   0  0  1  0  0  0  0  0  0  0  0  0
   -0.3583   -0.6100    1.4558 H   0  0  0  0  0  0  0  0  0  0  0  0
   -0.3739   -0.2459   -0.6675 C   0  0  0  0  0  0  0  0  0  0  0  0
   -1.1656   -0.3359   -1.4141 H   0  0  0  0  0  0  0  0  0  0  0  0
    0.1831    0.6698   -0.8705 H   0  0  0  0  0  0  0  0  0  0  0  0
    0.5649   -1.4534   -0.8161 C   0  0  0  0  0  0  0  0  0  0  0  0
    1.5758   -1.1693   -0.5227 H   0  0  0  0  0  0  0  0  0  0  0  0
    0.2177   -2.2599   -0.1677 H   0  0  0  0  0  0  0  0  0  0  0  0
    0.5933   -1.9493   -2.2663 C   0  0  0  0  0  0  0  0  0  0  0  0
   -0.4134   -2.2302   -2.5773 H   0  0  0  0  0  0  0  0  0  0  0  0
    0.9622   -1.1545   -2.9152 H   0  0  0  0  0  0  0  0  0  0  0  0
    1.5131   -3.1633   -2.3810 C   0  0  0  0  0  0  0  0  0  0  0  0
    2.5231   -2.8805   -2.0886 H   0  0  0  0  0  0  0  0  0  0  0  0
    1.1563   -3.9517   -1.7203 H   0  0  0  0  0  0  0  0  0  0  0  0
    1.5451   -3.6790   -3.7545 N   0  0  0  0  0  0  0  0  0  0  0  0
    2.1713   -4.4696   -3.7963 H   0  0  0  0  0  0  0  0  0  0  0  0
    0.6158   -3.9728   -4.0198 H   0  0  0  0  0  0  0  0  0  0  0  0
   -1.2712    1.3099    1.1517 C   0  0  0  0  0  0  0  0  0  0  0  0
   -2.2039    1.9448    0.6639 O   0  0  0  0  0  0  0  0  0  0  0  0
   -0.4306    1.8354    2.0503 N   0  0  0  0  0  0  0  0  0  0  0  0
    0.3001    1.2459    2.4139 H   0  0  0  0  0  0  0  0  0  0  0  0
   -0.5192    3.2082    2.5456 C   0  0  0  0  0  0  0  0  0  0  0  0
   -1.5166    3.3903    2.9518 H   0  0  0  0  0  0  0  0  0  0  0  0
    0.2240    3.3791    3.3257 H   0  0  0  0  0  0  0  0  0  0  0  0
   -0.3477    3.9067    1.7239 H   0  0  0  0  0  0  0  0  0  0  0  0
  5  6  2  0  0  0  0
  5  7  1  0  0  0  0
  2  3  1  0  0  0  0
  2  4  1  0  0  0  0
  2  5  1  0  0  0  0
  1  2  1  0  0  0  0
 26 27  2  0  0  0  0
 26 28  1  0  0  0  0
 23 24  1  0  0  0  0
 23 25  1  0  0  0  0
 20 21  1  0  0  0  0
 20 22  1  0  0  0  0
 20 23  1  0  0  0  0
 17 18  1  0  0  0  0
 17 19  1  0  0  0  0
 17 20  1  0  0  0  0
 14 15  1  0  0  0  0
 14 16  1  0  0  0  0
 14 17  1  0  0  0  0
 11 12  1  0  0  0  0
 11 13  1  0  0  0  0
 11 14  1  0  0  0  0
  9 10  1  0  0  0  0
  9 11  1  0  0  0  0
  9 26  1  0  0  0  0
  7  8  1  0  0  0  0
  7  9  1  0  0  0  0
 30 31  1  0  0  0  0
 30 32  1  0  0  0  0
 30 33  1  0  0  0  0
 28 29  1  0  0  0  0
 28 30  1  0  0  0  0
M  END
$$$$
default_name
  -OEChem-02102213163D

 33 32  0     1  0  0  0  0  0999 V2000
   -3.8420   -3.6918    1.5562 H   0  0  0  0  0  0  0  0  0  0  0  0
   -3.8430   -2.7008    1.1032 C   0  0  0  0  0  0  0  0  0  0  0  0
   -4.5510   -2.0608    1.6242 H   0  0  0  0  0  0  0  0  0  0  0  0
   -4.1140   -2.7798    0.0522 H   0  0  0  0  0  0  0  0  0  0  0  0
   -2.4570   -2.1098    1.2172 C   0  0  0  0  0  0  0  0  0  0  0  0
   -1.5600   -2.7438    1.7572 O   0  0  0  0  0  0  0  0  0  0  0  0
   -2.2870   -0.8898    0.7102 N   0  0  0  0  0  0  0  0  0  0  0  0
   -3.0820   -0.4218    0.2992 H   0  0  0  0  0  0  0  0  0  0  0  0
   -1.0240   -0.1468    0.7262 C   0  0  1  0  0  0  0  0  0  0  0  0
   -0.3583   -0.6100    1.4558 H   0  0  0  0  0  0  0  0  0  0  0  0
   -0.3739   -0.2459   -0.6675 C   0  0  0  0  0  0  0  0  0  0  0  0
   -1.1656   -0.3359   -1.4141 H   0  0  0  0  0  0  0  0  0  0  0  0
    0.1831    0.6698   -0.8705 H   0  0  0  0  0  0  0  0  0  0  0  0
    0.5649   -1.4534   -0.8161 C   0  0  0  0  0  0  0  0  0  0  0  0
    1.4964   -1.2605   -0.2834 H   0  0  0  0  0  0  0  0  0  0  0  0
    0.0850   -2.3359   -0.3891 H   0  0  0  0  0  0  0  0  0  0  0  0
    0.8862   -1.7185   -2.2913 C   0  0  0  0  0  0  0  0  0  0  0  0
   -0.0375   -1.9057   -2.8397 H   0  0  0  0  0  0  0  0  0  0  0  0
    1.3874   -0.8484   -2.7163 H   0  0  0  0  0  0  0  0  0  0  0  0
    1.7994   -2.9369   -2.4121 C   0  0  0  0  0  0  0  0  0  0  0  0
    2.7302   -2.7451   -1.8807 H   0  0  0  0  0  0  0  0  0  0  0  0
    1.3077   -3.8030   -1.9721 H   0  0  0  0  0  0  0  0  0  0  0  0
    2.1083   -3.2336   -3.8156 N   0  0  0  0  0  0  0  0  0  0  0  0
    2.7229   -4.0333   -3.8570 H   0  0  0  0  0  0  0  0  0  0  0  0
    1.2508   -3.4438   -4.3063 H   0  0  0  0  0  0  0  0  0  0  0  0
   -1.2712    1.3099    1.1517 C   0  0  0  0  0  0  0  0  0  0  0  0
   -2.2039    1.9448    0.6639 O   0  0  0  0  0  0  0  0  0  0  0  0
   -0.4306    1.8354    2.0503 N   0  0  0  0  0  0  0  0  0  0  0  0
    0.3001    1.2459    2.4139 H   0  0  0  0  0  0  0  0  0  0  0  0
   -0.5192    3.2082    2.5456 C   0  0  0  0  0  0  0  0  0  0  0  0
   -1.5166    3.3903    2.9518 H   0  0  0  0  0  0  0  0  0  0  0  0
    0.2240    3.3791    3.3257 H   0  0  0  0  0  0  0  0  0  0  0  0
   -0.3477    3.9067    1.7239 H   0  0  0  0  0  0  0  0  0  0  0  0
  5  6  2  0  0  0  0
  5  7  1  0  0  0  0
  2  3  1  0  0  0  0
  2  4  1  0  0  0  0
  2  5  1  0  0  0  0
  1  2  1  0  0  0  0
 26 27  2  0  0  0  0
 26 28  1  0  0  0  0
 23 24  1  0  0  0  0
 23 25  1  0  0  0  0
 20 21  1  0  0  0  0
 20 22  1  0  0  0  0
 20 23  1  0  0  0  0
 17 18  1  0  0  0  0
 17 19  1  0  0  0  0
 17 20  1  0  0  0  0
 14 15  1  0  0  0  0
 14 16  1  0  0  0  0
 14 17  1  0  0  0  0
 11 12  1  0  0  0  0
 11 13  1  0  0  0  0
 11 14  1  0  0  0  0
  9 10  1  0  0  0  0
  9 11  1  0  0  0  0
  9 26  1  0  0  0  0
  7  8  1  0  0  0  0
  7  9  1  0  0  0  0
 30 31  1  0  0  0  0
 30 32  1  0  0  0  0
 30 33  1  0  0  0  0
 28 29  1  0  0  0  0
 28 30  1  0  0  0  0
M  END
$$$$
default_name
  -OEChem-02102213163D

 33 32  0     1  0  0  0  0  0999 V2000
   -3.8420   -3.6918    1.5562 H   0  0  0  0  0  0  0  0  0  0  0  0
   -3.8430   -2.7008    1.1032 C   0  0  0  0  0  0  0  0  0  0  0  0
   -4.5510   -2.0608    1.6242 H   0  0  0  0  0  0  0  0  0  0  0  0
   -4.1140   -2.7798    0.0522 H   0  0  0  0  0  0  0  0  0  0  0  0
   -2.4570   -2.1098    1.2172 C   0  0  0  0  0  0  0  0  0  0  0  0
   -1.5600   -2.7438    1.7572 O   0  0  0  0  0  0  0  0  0  0  0  0
   -2.2870   -0.8898    0.7102 N   0  0  0  0  0  0  0  0  0  0  0  0
   -3.0820   -0.4218    0.2992 H   0  0  0  0  0  0  0  0  0  0  0  0
   -1.0240   -0.1468    0.7262 C   0  0  1  0  0  0  0  0  0  0  0  0
   -0.3583   -0.6100    1.4558 H   0  0  0  0  0  0  0  0  0  0  0  0
   -0.3739   -0.2459   -0.6675 C   0  0  0  0  0  0  0  0  0  0  0  0
   -1.1423   -0.0667   -1.4224 H   0  0  0  0  0  0  0  0  0  0  0  0
    0.3870    0.5296   -0.7654 H   0  0  0  0  0  0  0  0  0  0  0  0
    0.2614   -1.6171   -0.9460 C   0  0  0  0  0  0  0  0  0  0  0  0
    1.0372   -1.8180   -0.2066 H   0  0  0  0  0  0  0  0  0  0  0  0
   -0.5068   -2.3894   -0.8770 H   0  0  0  0  0  0  0  0  0  0  0  0
    0.8904   -1.6552   -2.3434 C   0  0  0  0  0  0  0  0  0  0  0  0
    0.1274   -1.4480   -3.0944 H   0  0  0  0  0  0  0  0  0  0  0  0
    1.6751   -0.9011   -2.4096 H   0  0  0  0  0  0  0  0  0  0  0  0
    1.4919   -3.0349   -2.6037 C   0  0  0  0  0  0  0  0  0  0  0  0
    2.2670   -3.2363   -1.8660 H   0  0  0  0  0  0  0  0  0  0  0  0
    0.7130   -3.7911   -2.5204 H   0  0  0  0  0  0  0  0  0  0  0  0
    2.0828   -3.1136   -3.9446 N   0  0  0  0  0  0  0  0  0  0  0  0
    2.4819   -4.0314   -4.0767 H   0  0  0  0  0  0  0  0  0  0  0  0
    1.3612   -2.9591   -4.6342 H   0  0  0  0  0  0  0  0  0  0  0  0
   -1.2712    1.3099    1.1517 C   0  0  0  0  0  0  0  0  0  0  0  0
   -2.2039    1.9448    0.6639 O   0  0  0  0  0  0  0  0  0  0  0  0
   -0.4306    1.8354    2.0503 N   0  0  0  0  0  0  0  0  0  0  0  0
    0.3001    1.2459    2.4139 H   0  0  0  0  0  0  0  0  0  0  0  0
   -0.5192    3.2082    2.5456 C   0  0  0  0  0  0  0  0  0  0  0  0
   -1.5166    3.3903    2.9518 H   0  0  0  0  0  0  0  0  0  0  0  0
    0.2240    3.3791    3.3257 H   0  0  0  0  0  0  0  0  0  0  0  0
   -0.3477    3.9067    1.7239 H   0  0  0  0  0  0  0  0  0  0  0  0
  5  6  2  0  0  0  0
  5  7  1  0  0  0  0
  2  3  1  0  0  0  0
  2  4  1  0  0  0  0
  2  5  1  0  0  0  0
  1  2  1  0  0  0  0
 26 27  2  0  0  0  0
 26 28  1  0  0  0  0
 23 24  1  0  0  0  0
 23 25  1  0  0  0  0
 20 21  1  0  0  0  0
 20 22  1  0  0  0  0
 20 23  1  0  0  0  0
 17 18  1  0  0  0  0
 17 19  1  0  0  0  0
 17 20  1  0  0  0  0
 14 15  1  0  0  0  0
 14 16  1  0  0  0  0
 14 17  1  0  0  0  0
 11 12  1  0  0  0  0
 11 13  1  0  0  0  0
 11 14  1  0  0  0  0
  9 10  1  0  0  0  0
  9 11  1  0  0  0  0
  9 26  1  0  0  0  0
  7  8  1  0  0  0  0
  7  9  1  0  0  0  0
 30 31  1  0  0  0  0
 30 32  1  0  0  0  0
 30 33  1  0  0  0  0
 28 29  1  0  0  0  0
 28 30  1  0  0  0  0
M  END
$$$$
default_name
  -OEChem-02102213163D

 33 32  0     1  0  0  0  0  0999 V2000
   -3.8420   -3.6918    1.5562 H   0  0  0  0  0  0  0  0  0  0  0  0
   -3.8430   -2.7008    1.1032 C   0  0  0  0  0  0  0  0  0  0  0  0
   -4.5510   -2.0608    1.6242 H   0  0  0  0  0  0  0  0  0  0  0  0
   -4.1140   -2.7798    0.0522 H   0  0  0  0  0  0  0  0  0  0  0  0
   -2.4570   -2.1098    1.2172 C   0  0  0  0  0  0  0  0  0  0  0  0
   -1.5600   -2.7438    1.7572 O   0  0  0  0  0  0  0  0  0  0  0  0
   -2.2870   -0.8898    0.7102 N   0  0  0  0  0  0  0  0  0  0  0  0
   -3.0820   -0.4218    0.2992 H   0  0  0  0  0  0  0  0  0  0  0  0
   -1.0240   -0.1468    0.7262 C   0  0  1  0  0  0  0  0  0  0  0  0
   -0.3583   -0.6100    1.4558 H   0  0  0  0  0  0  0  0  0  0  0  0
   -0.3739   -0.2459   -0.6675 C   0  0  0  0  0  0  0  0  0  0  0  0
   -1.1423   -0.0667   -1.4224 H   0  0  0  0  0  0  0  0  0  0  0  0
    0.3870    0.5296   -0.7654 H   0  0  0  0  0  0  0  0  0  0  0  0
    0.2614   -1.6171   -0.9460 C   0  0  0  0  0  0  0  0  0  0  0  0
    0.8357   -1.9378   -0.0764 H   0  0  0  0  0  0  0  0  0  0  0  0
   -0.5278   -2.3453   -1.1416 H   0  0  0  0  0  0  0  0  0  0  0  0
    1.1976   -1.5505   -2.1580 C   0  0  0  0  0  0  0  0  0  0  0  0
    0.6387   -1.2232   -3.0352 H   0  0  0  0  0  0  0  0  0  0  0  0
    2.0015   -0.8416   -1.9579 H   0  0  0  0  0  0  0  0  0  0  0  0
    1.7955   -2.9300   -2.4276 C   0  0  0  0  0  0  0  0  0  0  0  0
    2.3696   -3.2510   -1.5599 H   0  0  0  0  0  0  0  0  0  0  0  0
    0.9932   -3.6430   -2.6101 H   0  0  0  0  0  0  0  0  0  0  0  0
    2.6801   -2.9072   -3.5981 N   0  0  0  0  0  0  0  0  0  0  0  0
    3.0672   -3.8289   -3.7381 H   0  0  0  0  0  0  0  0  0  0  0  0
    2.1452   -2.6408   -4.4125 H   0  0  0  0  0  0  0  0  0  0  0  0
   -1.2712    1.3099    1.1517 C   0  0  0  0  0  0  0  0  0  0  0  0
   -2.2039    1.9448    0.6639 O   0  0  0  0  0  0  0  0  0  0  0  0
   -0.4306    1.8354    2.0503 N   0  0  0  0  0  0  0  0  0  0  0  0
    0.3001    1.2459    2.4139 H   0  0  0  0  0  0  0  0  0  0  0  0
   -0.5192    3.2082    2.5456 C   0  0  0  0  0  0  0  0  0  0  0  0
   -1.5166    3.3903    2.9518 H   0  0  0  0  0  0  0  0  0  0  0  0
    0.2240    3.3791    3.3257 H   0  0  0  0  0  0  0  0  0  0  0  0
   -0.3477    3.9067    1.7239 H   0  0  0  0  0  0  0  0  0  0  0  0
  5  6  2  0  0  0  0
  5  7  1  0  0  0  0
  2  3  1  0  0  0  0
  2  4  1  0  0  0  0
  2  5  1  0  0  0  0
  1  2  1  0  0  0  0
 26 27  2  0  0  0  0
 26 28  1  0  0  0  0
 23 24  1  0  0  0  0
 23 25  1  0  0  0  0
 20 21  1  0  0  0  0
 20 22  1  0  0  0  0
 20 23  1  0  0  0  0
 17 18  1  0  0  0  0
 17 19  1  0  0  0  0
 17 20  1  0  0  0  0
 14 15  1  0  0  0  0
 14 16  1  0  0  0  0
 14 17  1  0  0  0  0
 11 12  1  0  0  0  0
 11 13  1  0  0  0  0
 11 14  1  0  0  0  0
  9 10  1  0  0  0  0
  9 11  1  0  0  0  0
  9 26  1  0  0  0  0
  7  8  1  0  0  0  0
  7  9  1  0  0  0  0
 30 31  1  0  0  0  0
 30 32  1  0  0  0  0
 30 33  1  0  0  0  0
 28 29  1  0  0  0  0
 28 30  1  0  0  0  0
M  END
$$$$
default_name
  -OEChem-02102213163D

 33 32  0     1  0  0  0  0  0999 V2000
   -3.8420   -3.6918    1.5562 H   0  0  0  0  0  0  0  0  0  0  0  0
   -3.8430   -2.7008    1.1032 C   0  0  0  0  0  0  0  0  0  0  0  0
   -4.5510   -2.0608    1.6242 H   0  0  0  0  0  0  0  0  0  0  0  0
   -4.1140   -2.7798    0.0522 H   0  0  0  0  0  0  0  0  0  0  0  0
   -2.4570   -2.1098    1.2172 C   0  0  0  0  0  0  0  0  0  0  0  0
   -1.5600   -2.7438    1.7572 O   0  0  0  0  0  0  0  0  0  0  0  0
   -2.2870   -0.8898    0.7102 N   0  0  0  0  0  0  0  0  0  0  0  0
   -3.0820   -0.4218    0.2992 H   0  0  0  0  0  0  0  0  0  0  0  0
   -1.0240   -0.1468    0.7262 C   0  0  1  0  0  0  0  0  0  0  0  0
   -0.3583   -0.6100    1.4558 H   0  0  0  0  0  0  0  0  0  0  0  0
   -0.3739   -0.2459   -0.6675 C   0  0  0  0  0  0  0  0  0  0  0  0
   -1.1423   -0.0667   -1.4224 H   0  0  0  0  0  0  0  0  0  0  0  0
    0.3870    0.5296   -0.7654 H   0  0  0  0  0  0  0  0  0  0  0  0
    0.2614   -1.6171   -0.9460 C   0  0  0  0  0  0  0  0  0  0  0  0
    0.6054   -2.0580   -0.0100 H   0  0  0  0  0  0  0  0  0  0  0  0
   -0.4848   -2.2735   -1.3974 H   0  0  0  0  0  0  0  0  0  0  0  0
    1.4564   -1.4836   -1.8968 C   0  0  0  0  0  0  0  0  0  0  0  0
    1.1294   -1.0363   -2.8359 H   0  0  0  0  0  0  0  0  0  0  0  0
    2.2153   -0.8478   -1.4399 H   0  0  0  0  0  0  0  0  0  0  0  0
    2.0530   -2.8617   -2.1761 C   0  0  0  0  0  0  0  0  0  0  0  0
    2.3973   -3.3027   -1.2420 H   0  0  0  0  0  0  0  0  0  0  0  0
    1.2915   -3.5036   -2.6161 H   0  0  0  0  0  0  0  0  0  0  0  0
    3.1868   -2.7729   -3.1035 N   0  0  0  0  0  0  0  0  0  0  0  0
    3.5640   -3.6970   -3.2541 H   0  0  0  0  0  0  0  0  0  0  0  0
    2.8663   -2.3939   -3.9833 H   0  0  0  0  0  0  0  0  0  0  0  0
   -1.2712    1.3099    1.1517 C   0  0  0  0  0  0  0  0  0  0  0  0
   -2.2039    1.9448    0.6639 O   0  0  0  0  0  0  0  0  0  0  0  0
   -0.4306    1.8354    2.0503 N   0  0  0  0  0  0  0  0  0  0  0  0
    0.3001    1.2459    2.4139 H   0  0  0  0  0  0  0  0  0  0  0  0
   -0.5192    3.2082    2.5456 C   0  0  0  0  0  0  0  0  0  0  0  0
   -1.5166    3.3903    2.9518 H   0  0  0  0  0  0  0  0  0  0  0  0
    0.2240    3.3791    3.3257 H   0  0  0  0  0  0  0  0  0  0  0  0
   -0.3477    3.9067    1.7239 H   0  0  0  0  0  0  0  0  0  0  0  0
  5  6  2  0  0  0  0
  5  7  1  0  0  0  0
  2  3  1  0  0  0  0
  2  4  1  0  0  0  0
  2  5  1  0  0  0  0
  1  2  1  0  0  0  0
 26 27  2  0  0  0  0
 26 28  1  0  0  0  0
 23 24  1  0  0  0  0
 23 25  1  0  0  0  0
 20 21  1  0  0  0  0
 20 22  1  0  0  0  0
 20 23  1  0  0  0  0
 17 18  1  0  0  0  0
 17 19  1  0  0  0  0
 17 20  1  0  0  0  0
 14 15  1  0  0  0  0
 14 16  1  0  0  0  0
 14 17  1  0  0  0  0
 11 12  1  0  0  0  0
 11 13  1  0  0  0  0
 11 14  1  0  0  0  0
  9 10  1  0  0  0  0
  9 11  1  0  0  0  0
  9 26  1  0  0  0  0
  7  8  1  0  0  0  0
  7  9  1  0  0  0  0
 30 31  1  0  0  0  0
 30 32  1  0  0  0  0
 30 33  1  0  0  0  0
 28 29  1  0  0  0  0
 28 30  1  0  0  0  0
M  END
$$$$
default_name
  -OEChem-02102213163D

 33 32  0     1  0  0  0  0  0999 V2000
   -3.8420   -3.6918    1.5562 H   0  0  0  0  0  0  0  0  0  0  0  0
   -3.8430   -2.7008    1.1032 C   0  0  0  0  0  0  0  0  0  0  0  0
   -4.5510   -2.0608    1.6242 H   0  0  0  0  0  0  0  0  0  0  0  0
   -4.1140   -2.7798    0.0522 H   0  0  0  0  0  0  0  0  0  0  0  0
   -2.4570   -2.1098    1.2172 C   0  0  0  0  0  0  0  0  0  0  0  0
   -1.5600   -2.7438    1.7572 O   0  0  0  0  0  0  0  0  0  0  0  0
   -2.2870   -0.8898    0.7102 N   0  0  0  0  0  0  0  0  0  0  0  0
   -3.0820   -0.4218    0.2992 H   0  0  0  0  0  0  0  0  0  0  0  0
   -1.0240   -0.1468    0.7262 C   0  0  1  0  0  0  0  0  0  0  0  0
   -0.3583   -0.6100    1.4558 H   0  0  0  0  0  0  0  0  0  0  0  0
   -0.3739   -0.2459   -0.6675 C   0  0  0  0  0  0  0  0  0  0  0  0
   -1.1423   -0.0667   -1.4224 H   0  0  0  0  0  0  0  0  0  0  0  0
    0.3870    0.5296   -0.7654 H   0  0  0  0  0  0  0  0  0  0  0  0
    0.2614   -1.6171   -0.9460 C   0  0  0  0  0  0  0  0  0  0  0  0
    0.3620   -2.1704   -0.0119 H   0  0  0  0  0  0  0  0  0  0  0  0
   -0.3809   -2.1787   -1.6268 H   0  0  0  0  0  0  0  0  0  0  0  0
    1.6492   -1.4591   -1.5775 C   0  0  0  0  0  0  0  0  0  0  0  0
    1.5661   -0.9001   -2.5100 H   0  0  0  0  0  0  0  0  0  0  0  0
    2.3019   -0.9192   -0.8908 H   0  0  0  0  0  0  0  0  0  0  0  0
    2.2469   -2.8348   -1.8664 C   0  0  0  0  0  0  0  0  0  0  0  0
    2.3482   -3.3880   -0.9341 H   0  0  0  0  0  0  0  0  0  0  0  0
    1.5876   -3.3822   -2.5380 H   0  0  0  0  0  0  0  0  0  0  0  0
    3.5682   -2.7199   -2.4944 N   0  0  0  0  0  0  0  0  0  0  0  0
    3.9382   -3.6448   -2.6578 H   0  0  0  0  0  0  0  0  0  0  0  0
    3.4752   -2.2352   -3.3757 H   0  0  0  0  0  0  0  0  0  0  0  0
   -1.2712    1.3099    1.1517 C   0  0  0  0  0  0  0  0  0  0  0  0
   -2.2039    1.9448    0.6639 O   0  0  0  0  0  0  0  0  0  0  0  0
   -0.4306    1.8354    2.0503 N   0  0  0  0  0  0  0  0  0  0  0  0
    0.3001    1.2459    2.4139 H   0  0  0  0  0  0  0  0  0  0  0  0
   -0.5192    3.2082    2.5456 C   0  0  0  0  0  0  0  0  0  0  0  0
   -1.5166    3.3903    2.9518 H   0  0  0  0  0  0  0  0  0  0  0  0
    0.2240    3.3791    3.3257 H   0  0  0  0  0  0  0  0  0  0  0  0
   -0.3477    3.9067    1.7239 H   0  0  0  0  0  0  0  0  0  0  0  0
  5  6  2  0  0  0  0
  5  7  1  0  0  0  0
  2  3  1  0  0  0  0
  2  4  1  0  0  0  0
  2  5  1  0  0  0  0
  1  2  1  0  0  0  0
 26 27  2  0  0  0  0
 26 28  1  0  0  0  0
 23 24  1  0  0  0  0
 23 25  1  0  0  0  0
 20 21  1  0  0  0  0
 20 22  1  0  0  0  0
 20 23  1  0  0  0  0
 17 18  1  0  0  0  0
 17 19  1  0  0  0  0
 17 20  1  0  0  0  0
 14 15  1  0  0  0  0
 14 16  1  0  0  0  0
 14 17  1  0  0  0  0
 11 12  1  0  0  0  0
 11 13  1  0  0  0  0
 11 14  1  0  0  0  0
  9 10  1  0  0  0  0
  9 11  1  0  0  0  0
  9 26  1  0  0  0  0
  7  8  1  0  0  0  0
  7  9  1  0  0  0  0
 30 31  1  0  0  0  0
 30 32  1  0  0  0  0
 30 33  1  0  0  0  0
 28 29  1  0  0  0  0
 28 30  1  0  0  0  0
M  END
$$$$
default_name
  -OEChem-02102213163D

 33 32  0     1  0  0  0  0  0999 V2000
   -3.8420   -3.6918    1.5562 H   0  0  0  0  0  0  0  0  0  0  0  0
   -3.8430   -2.7008    1.1032 C   0  0  0  0  0  0  0  0  0  0  0  0
   -4.5510   -2.0608    1.6242 H   0  0  0  0  0  0  0  0  0  0  0  0
   -4.1140   -2.7798    0.0522 H   0  0  0  0  0  0  0  0  0  0  0  0
   -2.4570   -2.1098    1.2172 C   0  0  0  0  0  0  0  0  0  0  0  0
   -1.5600   -2.7438    1.7572 O   0  0  0  0  0  0  0  0  0  0  0  0
   -2.2870   -0.8898    0.7102 N   0  0  0  0  0  0  0  0  0  0  0  0
   -3.0820   -0.4218    0.2992 H   0  0  0  0  0  0  0  0  0  0  0  0
   -1.0240   -0.1468    0.7262 C   0  0  1  0  0  0  0  0  0  0  0  0
   -0.3583   -0.6100    1.4558 H   0  0  0  0  0  0  0  0  0  0  0  0
   -0.3739   -0.2459   -0.6675 C   0  0  0  0  0  0  0  0  0  0  0  0
   -1.1423   -0.0667   -1.4224 H   0  0  0  0  0  0  0  0  0  0  0  0
    0.3870    0.5296   -0.7654 H   0  0  0  0  0  0  0  0  0  0  0  0
    0.2614   -1.6171   -0.9460 C   0  0  0  0  0  0  0  0  0  0  0  0
    0.1221   -2.2674   -0.0820 H   0  0  0  0  0  0  0  0  0  0  0  0
   -0.2230   -2.0675   -1.8143 H   0  0  0  0  0  0  0  0  0  0  0  0
    1.7629   -1.4787   -1.2220 C   0  0  0  0  0  0  0  0  0  0  0  0
    1.9190   -0.8239   -2.0799 H   0  0  0  0  0  0  0  0  0  0  0  0
    2.2553   -1.0510   -0.3481 H   0  0  0  0  0  0  0  0  0  0  0  0
    2.3639   -2.8510   -1.5197 C   0  0  0  0  0  0  0  0  0  0  0  0
    2.2256   -3.5010   -0.6572 H   0  0  0  0  0  0  0  0  0  0  0  0
    1.8613   -3.2872   -2.3813 H   0  0  0  0  0  0  0  0  0  0  0  0
    3.7985   -2.7518   -1.8122 N   0  0  0  0  0  0  0  0  0  0  0  0
    4.1644   -3.6756   -1.9899 H   0  0  0  0  0  0  0  0  0  0  0  0
    3.9305   -2.1754   -2.6312 H   0  0  0  0  0  0  0  0  0  0  0  0
   -1.2712    1.3099    1.1517 C   0  0  0  0  0  0  0  0  0  0  0  0
   -2.2039    1.9448    0.6639 O   0  0  0  0  0  0  0  0  0  0  0  0
   -0.4306    1.8354    2.0503 N   0  0  0  0  0  0  0  0  0  0  0  0
    0.3001    1.2459    2.4139 H   0  0  0  0  0  0  0  0  0  0  0  0
   -0.5192    3.2082    2.5456 C   0  0  0  0  0  0  0  0  0  0  0  0
   -1.5166    3.3903    2.9518 H   0  0  0  0  0  0  0  0  0  0  0  0
    0.2240    3.3791    3.3257 H   0  0  0  0  0  0  0  0  0  0  0  0
   -0.3477    3.9067    1.7239 H   0  0  0  0  0  0  0  0  0  0  0  0
  5  6  2  0  0  0  0
  5  7  1  0  0  0  0
  2  3  1  0  0  0  0
  2  4  1  0  0  0  0
  2  5  1  0  0  0  0
  1  2  1  0  0  0  0
 26 27  2  0  0  0  0
 26 28  1  0  0  0  0
 23 24  1  0  0  0  0
 23 25  1  0  0  0  0
 20 21  1  0  0  0  0
 20 22  1  0  0  0  0
 20 23  1  0  0  0  0
 17 18  1  0  0  0  0
 17 19  1  0  0  0  0
 17 20  1  0  0  0  0
 14 15  1  0  0  0  0
 14 16  1  0  0  0  0
 14 17  1  0  0  0  0
 11 12  1  0  0  0  0
 11 13  1  0  0  0  0
 11 14  1  0  0  0  0
  9 10  1  0  0  0  0
  9 11  1  0  0  0  0
  9 26  1  0  0  0  0
  7  8  1  0  0  0  0
  7  9  1  0  0  0  0
 30 31  1  0  0  0  0
 30 32  1  0  0  0  0
 30 33  1  0  0  0  0
 28 29  1  0  0  0  0
 28 30  1  0  0  0  0
M  END
$$$$
default_name
  -OEChem-02102213163D

 33 32  0     1  0  0  0  0  0999 V2000
   -3.8420   -3.6918    1.5562 H   0  0  0  0  0  0  0  0  0  0  0  0
   -3.8430   -2.7008    1.1032 C   0  0  0  0  0  0  0  0  0  0  0  0
   -4.5510   -2.0608    1.6242 H   0  0  0  0  0  0  0  0  0  0  0  0
   -4.1140   -2.7798    0.0522 H   0  0  0  0  0  0  0  0  0  0  0  0
   -2.4570   -2.1098    1.2172 C   0  0  0  0  0  0  0  0  0  0  0  0
   -1.5600   -2.7438    1.7572 O   0  0  0  0  0  0  0  0  0  0  0  0
   -2.2870   -0.8898    0.7102 N   0  0  0  0  0  0  0  0  0  0  0  0
   -3.0820   -0.4218    0.2992 H   0  0  0  0  0  0  0  0  0  0  0  0
   -1.0240   -0.1468    0.7262 C   0  0  1  0  0  0  0  0  0  0  0  0
   -0.3583   -0.6100    1.4558 H   0  0  0  0  0  0  0  0  0  0  0  0
   -0.3739   -0.2459   -0.6675 C   0  0  0  0  0  0  0  0  0  0  0  0
   -1.1423   -0.0667   -1.4224 H   0  0  0  0  0  0  0  0  0  0  0  0
    0.3870    0.5296   -0.7654 H   0  0  0  0  0  0  0  0  0  0  0  0
    0.2614   -1.6171   -0.9460 C   0  0  0  0  0  0  0  0  0  0  0  0
   -0.0981   -2.3423   -0.2155 H   0  0  0  0  0  0  0  0  0  0  0  0
   -0.0221   -1.9474   -1.9470 H   0  0  0  0  0  0  0  0  0  0  0  0
    1.7897   -1.5409   -0.8544 C   0  0  0  0  0  0  0  0  0  0  0  0
    2.1642   -0.8129   -1.5747 H   0  0  0  0  0  0  0  0  0  0  0  0
    2.0788   -1.2343    0.1512 H   0  0  0  0  0  0  0  0  0  0  0  0
    2.3961   -2.9093   -1.1594 C   0  0  0  0  0  0  0  0  0  0  0  0
    2.0380   -3.6341   -0.4301 H   0  0  0  0  0  0  0  0  0  0  0  0
    2.0938   -3.2251   -2.1566 H   0  0  0  0  0  0  0  0  0  0  0  0
    3.8618   -2.8663   -1.1035 N   0  0  0  0  0  0  0  0  0  0  0  0
    4.2272   -3.7875   -1.2957 H   0  0  0  0  0  0  0  0  0  0  0  0
    4.2012   -2.2187   -1.8005 H   0  0  0  0  0  0  0  0  0  0  0  0
   -1.2712    1.3099    1.1517 C   0  0  0  0  0  0  0  0  0  0  0  0
   -2.2039    1.9448    0.6639 O   0  0  0  0  0  0  0  0  0  0  0  0
   -0.4306    1.8354    2.0503 N   0  0  0  0  0  0  0  0  0  0  0  0
    0.3001    1.2459    2.4139 H   0  0  0  0  0  0  0  0  0  0  0  0
   -0.5192    3.2082    2.5456 C   0  0  0  0  0  0  0  0  0  0  0  0
   -1.5166    3.3903    2.9518 H   0  0  0  0  0  0  0  0  0  0  0  0
    0.2240    3.3791    3.3257 H   0  0  0  0  0  0  0  0  0  0  0  0
   -0.3477    3.9067    1.7239 H   0  0  0  0  0  0  0  0  0  0  0  0
  5  6  2  0  0  0  0
  5  7  1  0  0  0  0
  2  3  1  0  0  0  0
  2  4  1  0  0  0  0
  2  5  1  0  0  0  0
  1  2  1  0  0  0  0
 26 27  2  0  0  0  0
 26 28  1  0  0  0  0
 23 24  1  0  0  0  0
 23 25  1  0  0  0  0
 20 21  1  0  0  0  0
 20 22  1  0  0  0  0
 20 23  1  0  0  0  0
 17 18  1  0  0  0  0
 17 19  1  0  0  0  0
 17 20  1  0  0  0  0
 14 15  1  0  0  0  0
 14 16  1  0  0  0  0
 14 17  1  0  0  0  0
 11 12  1  0  0  0  0
 11 13  1  0  0  0  0
 11 14  1  0  0  0  0
  9 10  1  0  0  0  0
  9 11  1  0  0  0  0
  9 26  1  0  0  0  0
  7  8  1  0  0  0  0
  7  9  1  0  0  0  0
 30 31  1  0  0  0  0
 30 32  1  0  0  0  0
 30 33  1  0  0  0  0
 28 29  1  0  0  0  0
 28 30  1  0  0  0  0
M  END
$$$$
default_name
  -OEChem-02102213163D

 33 32  0     1  0  0  0  0  0999 V2000
   -3.8420   -3.6918    1.5562 H   0  0  0  0  0  0  0  0  0  0  0  0
   -3.8430   -2.7008    1.1032 C   0  0  0  0  0  0  0  0  0  0  0  0
   -4.5510   -2.0608    1.6242 H   0  0  0  0  0  0  0  0  0  0  0  0
   -4.1140   -2.7798    0.0522 H   0  0  0  0  0  0  0  0  0  0  0  0
   -2.4570   -2.1098    1.2172 C   0  0  0  0  0  0  0  0  0  0  0  0
   -1.5600   -2.7438    1.7572 O   0  0  0  0  0  0  0  0  0  0  0  0
   -2.2870   -0.8898    0.7102 N   0  0  0  0  0  0  0  0  0  0  0  0
   -3.0820   -0.4218    0.2992 H   0  0  0  0  0  0  0  0  0  0  0  0
   -1.0240   -0.1468    0.7262 C   0  0  1  0  0  0  0  0  0  0  0  0
   -0.3583   -0.6100    1.4558 H   0  0  0  0  0  0  0  0  0  0  0  0
   -0.3739   -0.2459   -0.6675 C   0  0  0  0  0  0  0  0  0  0  0  0
   -1.1423   -0.0667   -1.4224 H   0  0  0  0  0  0  0  0  0  0  0  0
    0.3870    0.5296   -0.7654 H   0  0  0  0  0  0  0  0  0  0  0  0
    0.2614   -1.6171   -0.9460 C   0  0  0  0  0  0  0  0  0  0  0  0
   -0.2834   -2.3900   -0.4033 H   0  0  0  0  0  0  0  0  0  0  0  0
    0.2083   -1.8267   -2.0159 H   0  0  0  0  0  0  0  0  0  0  0  0
    1.7278   -1.6417   -0.4998 C   0  0  0  0  0  0  0  0  0  0  0  0
    2.2849   -0.8679   -1.0289 H   0  0  0  0  0  0  0  0  0  0  0  0
    1.7844   -1.4564    0.5732 H   0  0  0  0  0  0  0  0  0  0  0  0
    2.3413   -3.0056   -0.8103 C   0  0  0  0  0  0  0  0  0  0  0  0
    1.7981   -3.7781   -0.2683 H   0  0  0  0  0  0  0  0  0  0  0  0
    2.2695   -3.2001   -1.8791 H   0  0  0  0  0  0  0  0  0  0  0  0
    3.7540   -3.0558   -0.4166 N   0  0  0  0  0  0  0  0  0  0  0  0
    4.1223   -3.9729   -0.6227 H   0  0  0  0  0  0  0  0  0  0  0  0
    4.2687   -2.3622   -0.9402 H   0  0  0  0  0  0  0  0  0  0  0  0
   -1.2712    1.3099    1.1517 C   0  0  0  0  0  0  0  0  0  0  0  0
   -2.2039    1.9448    0.6639 O   0  0  0  0  0  0  0  0  0  0  0  0
   -0.4306    1.8354    2.0503 N   0  0  0  0  0  0  0  0  0  0  0  0
    0.3001    1.2459    2.4139 H   0  0  0  0  0  0  0  0  0  0  0  0
   -0.5192    3.2082    2.5456 C   0  0  0  0  0  0  0  0  0  0  0  0
   -1.5166    3.3903    2.9518 H   0  0  0  0  0  0  0  0  0  0  0  0
    0.2240    3.3791    3.3257 H   0  0  0  0  0  0  0  0  0  0  0  0
   -0.3477    3.9067    1.7239 H   0  0  0  0  0  0  0  0  0  0  0  0
  5  6  2  0  0  0  0
  5  7  1  0  0  0  0
  2  3  1  0  0  0  0
  2  4  1  0  0  0  0
  2  5  1  0  0  0  0
  1  2  1  0  0  0  0
 26 27  2  0  0  0  0
 26 28  1  0  0  0  0
 23 24  1  0  0  0  0
 23 25  1  0  0  0  0
 20 21  1  0  0  0  0
 20 22  1  0  0  0  0
 20 23  1  0  0  0  0
 17 18  1  0  0  0  0
 17 19  1  0  0  0  0
 17 20  1  0  0  0  0
 14 15  1  0  0  0  0
 14 16  1  0  0  0  0
 14 17  1  0  0  0  0
 11 12  1  0  0  0  0
 11 13  1  0  0  0  0
 11 14  1  0  0  0  0
  9 10  1  0  0  0  0
  9 11  1  0  0  0  0
  9 26  1  0  0  0  0
  7  8  1  0  0  0  0
  7  9  1  0  0  0  0
 30 31  1  0  0  0  0
 30 32  1  0  0  0  0
 30 33  1  0  0  0  0
 28 29  1  0  0  0  0
 28 30  1  0  0  0  0
M  END
$$$$
default_name
  -OEChem-02102213163D

 33 32  0     1  0  0  0  0  0999 V2000
   -3.8420   -3.6918    1.5562 H   0  0  0  0  0  0  0  0  0  0  0  0
   -3.8430   -2.7008    1.1032 C   0  0  0  0  0  0  0  0  0  0  0  0
   -4.5510   -2.0608    1.6242 H   0  0  0  0  0  0  0  0  0  0  0  0
   -4.1140   -2.7798    0.0522 H   0  0  0  0  0  0  0  0  0  0  0  0
   -2.4570   -2.1098    1.2172 C   0  0  0  0  0  0  0  0  0  0  0  0
   -1.5600   -2.7438    1.7572 O   0  0  0  0  0  0  0  0  0  0  0  0
   -2.2870   -0.8898    0.7102 N   0  0  0  0  0  0  0  0  0  0  0  0
   -3.0820   -0.4218    0.2992 H   0  0  0  0  0  0  0  0  0  0  0  0
   -1.0240   -0.1468    0.7262 C   0  0  1  0  0  0  0  0  0  0  0  0
   -0.3583   -0.6100    1.4558 H   0  0  0  0  0  0  0  0  0  0  0  0
   -0.3739   -0.2459   -0.6675 C   0  0  0  0  0  0  0  0  0  0  0  0
   -1.1423   -0.0667   -1.4224 H   0  0  0  0  0  0  0  0  0  0  0  0
    0.3870    0.5296   -0.7654 H   0  0  0  0  0  0  0  0  0  0  0  0
    0.2614   -1.6171   -0.9460 C   0  0  0  0  0  0  0  0  0  0  0  0
   -0.4213   -2.4073   -0.6326 H   0  0  0  0  0  0  0  0  0  0  0  0
    0.4524   -1.7134   -2.0164 H   0  0  0  0  0  0  0  0  0  0  0  0
    1.5813   -1.7740   -0.1824 C   0  0  0  0  0  0  0  0  0  0  0  0
    2.2728   -0.9850   -0.4797 H   0  0  0  0  0  0  0  0  0  0  0  0
    1.3922   -1.7023    0.8891 H   0  0  0  0  0  0  0  0  0  0  0  0
    2.2031   -3.1335   -0.4960 C   0  0  0  0  0  0  0  0  0  0  0  0
    1.5222   -3.9233   -0.1829 H   0  0  0  0  0  0  0  0  0  0  0  0
    2.3763   -3.2138   -1.5679 H   0  0  0  0  0  0  0  0  0  0  0  0
    3.4823   -3.3073    0.2017 N   0  0  0  0  0  0  0  0  0  0  0  0
    3.8568   -4.2190   -0.0166 H   0  0  0  0  0  0  0  0  0  0  0  0
    4.1286   -2.5959   -0.1090 H   0  0  0  0  0  0  0  0  0  0  0  0
   -1.2712    1.3099    1.1517 C   0  0  0  0  0  0  0  0  0  0  0  0
   -2.2039    1.9448    0.6639 O   0  0  0  0  0  0  0  0  0  0  0  0
   -0.4306    1.8354    2.0503 N   0  0  0  0  0  0  0  0  0  0  0  0
    0.3001    1.2459    2.4139 H   0  0  0  0  0  0  0  0  0  0  0  0
   -0.5192    3.2082    2.5456 C   0  0  0  0  0  0  0  0  0  0  0  0
   -1.5166    3.3903    2.9518 H   0  0  0  0  0  0  0  0  0  0  0  0
    0.2240    3.3791    3.3257 H   0  0  0  0  0  0  0  0  0  0  0  0
   -0.3477    3.9067    1.7239 H   0  0  0  0  0  0  0  0  0  0  0  0
  5  6  2  0  0  0  0
  5  7  1  0  0  0  0
  2  3  1  0  0  0  0
  2  4  1  0  0  0  0
  2  5  1  0  0  0  0
  1  2  1  0  0  0  0
 26 27  2  0  0  0  0
 26 28  1  0  0  0  0
 23 24  1  0  0  0  0
 23 25  1  0  0  0  0
 20 21  1  0  0  0  0
 20 22  1  0  0  0  0
 20 23  1  0  0  0  0
 17 18  1  0  0  0  0
 17 19  1  0  0  0  0
 17 20  1  0  0  0  0
 14 15  1  0  0  0  0
 14 16  1  0  0  0  0
 14 17  1  0  0  0  0
 11 12  1  0  0  0  0
 11 13  1  0  0  0  0
 11 14  1  0  0  0  0
  9 10  1  0  0  0  0
  9 11  1  0  0  0  0
  9 26  1  0  0  0  0
  7  8  1  0  0  0  0
  7  9  1  0  0  0  0
 30 31  1  0  0  0  0
 30 32  1  0  0  0  0
 30 33  1  0  0  0  0
 28 29  1  0  0  0  0
 28 30  1  0  0  0  0
M  END
$$$$
default_name
  -OEChem-02102213163D

 33 32  0     1  0  0  0  0  0999 V2000
   -3.8420   -3.6918    1.5562 H   0  0  0  0  0  0  0  0  0  0  0  0
   -3.8430   -2.7008    1.1032 C   0  0  0  0  0  0  0  0  0  0  0  0
   -4.5510   -2.0608    1.6242 H   0  0  0  0  0  0  0  0  0  0  0  0
   -4.1140   -2.7798    0.0522 H   0  0  0  0  0  0  0  0  0  0  0  0
   -2.4570   -2.1098    1.2172 C   0  0  0  0  0  0  0  0  0  0  0  0
   -1.5600   -2.7438    1.7572 O   0  0  0  0  0  0  0  0  0  0  0  0
   -2.2870   -0.8898    0.7102 N   0  0  0  0  0  0  0  0  0  0  0  0
   -3.0820   -0.4218    0.2992 H   0  0  0  0  0  0  0  0  0  0  0  0
   -1.0240   -0.1468    0.7262 C   0  0  1  0  0  0  0  0  0  0  0  0
   -0.3583   -0.6100    1.4558 H   0  0  0  0  0  0  0  0  0  0  0  0
   -0.3739   -0.2459   -0.6675 C   0  0  0  0  0  0  0  0  0  0  0  0
   -1.1423   -0.0667   -1.4224 H   0  0  0  0  0  0  0  0  0  0  0  0
    0.3870    0.5296   -0.7654 H   0  0  0  0  0  0  0  0  0  0  0  0
    0.2614   -1.6171   -0.9460 C   0  0  0  0  0  0  0  0  0  0  0  0
   -0.5023   -2.3930   -0.8877 H   0  0  0  0  0  0  0  0  0  0  0  0
    0.6937   -1.6155   -1.9483 H   0  0  0  0  0  0  0  0  0  0  0  0
    1.3603   -1.9289    0.0762 C   0  0  0  0  0  0  0  0  0  0  0  0
    2.1288   -1.1564    0.0354 H   0  0  0  0  0  0  0  0  0  0  0  0
    0.9288   -1.9552    1.0772 H   0  0  0  0  0  0  0  0  0  0  0  0
    1.9911   -3.2841   -0.2380 C   0  0  0  0  0  0  0  0  0  0  0  0
    1.2292   -4.0597   -0.1796 H   0  0  0  0  0  0  0  0  0  0  0  0
    2.4069   -3.2654   -1.2440 H   0  0  0  0  0  0  0  0  0  0  0  0
    3.0653   -3.6037    0.7093 N   0  0  0  0  0  0  0  0  0  0  0  0
    3.4489   -4.5091    0.4811 H   0  0  0  0  0  0  0  0  0  0  0  0
    3.7903   -2.9041    0.6365 H   0  0  0  0  0  0  0  0  0  0  0  0
   -1.2712    1.3099    1.1517 C   0  0  0  0  0  0  0  0  0  0  0  0
   -2.2039    1.9448    0.6639 O   0  0  0  0  0  0  0  0  0  0  0  0
   -0.4306    1.8354    2.0503 N   0  0  0  0  0  0  0  0  0  0  0  0
    0.3001    1.2459    2.4139 H   0  0  0  0  0  0  0  0  0  0  0  0
   -0.5192    3.2082    2.5456 C   0  0  0  0  0  0  0  0  0  0  0  0
   -1.5166    3.3903    2.9518 H   0  0  0  0  0  0  0  0  0  0  0  0
    0.2240    3.3791    3.3257 H   0  0  0  0  0  0  0  0  0  0  0  0
   -0.3477    3.9067    1.7239 H   0  0  0  0  0  0  0  0  0  0  0  0
  5  6  2  0  0  0  0
  5  7  1  0  0  0  0
  2  3  1  0  0  0  0
  2  4  1  0  0  0  0
  2  5  1  0  0  0  0
  1  2  1  0  0  0  0
 26 27  2  0  0  0  0
 26 28  1  0  0  0  0
 23 24  1  0  0  0  0
 23 25  1  0  0  0  0
 20 21  1  0  0  0  0
 20 22  1  0  0  0  0
 20 23  1  0  0  0  0
 17 18  1  0  0  0  0
 17 19  1  0  0  0  0
 17 20  1  0  0  0  0
 14 15  1  0  0  0  0
 14 16  1  0  0  0  0
 14 17  1  0  0  0  0
 11 12  1  0  0  0  0
 11 13  1  0  0  0  0
 11 14  1  0  0  0  0
  9 10  1  0  0  0  0
  9 11  1  0  0  0  0
  9 26  1  0  0  0  0
  7  8  1  0  0  0  0
  7  9  1  0  0  0  0
 30 31  1  0  0  0  0
 30 32  1  0  0  0  0
 30 33  1  0  0  0  0
 28 29  1  0  0  0  0
 28 30  1  0  0  0  0
M  END
$$$$
default_name
  -OEChem-02102213163D

 33 32  0     1  0  0  0  0  0999 V2000
   -3.8420   -3.6918    1.5562 H   0  0  0  0  0  0  0  0  0  0  0  0
   -3.8430   -2.7008    1.1032 C   0  0  0  0  0  0  0  0  0  0  0  0
   -4.5510   -2.0608    1.6242 H   0  0  0  0  0  0  0  0  0  0  0  0
   -4.1140   -2.7798    0.0522 H   0  0  0  0  0  0  0  0  0  0  0  0
   -2.4570   -2.1098    1.2172 C   0  0  0  0  0  0  0  0  0  0  0  0
   -1.5600   -2.7438    1.7572 O   0  0  0  0  0  0  0  0  0  0  0  0
   -2.2870   -0.8898    0.7102 N   0  0  0  0  0  0  0  0  0  0  0  0
   -3.0820   -0.4218    0.2992 H   0  0  0  0  0  0  0  0  0  0  0  0
   -1.0240   -0.1468    0.7262 C   0  0  1  0  0  0  0  0  0  0  0  0
   -0.3583   -0.6100    1.4558 H   0  0  0  0  0  0  0  0  0  0  0  0
   -0.3739   -0.2459   -0.6675 C   0  0  0  0  0  0  0  0  0  0  0  0
   -1.1423   -0.0667   -1.4224 H   0  0  0  0  0  0  0  0  0  0  0  0
    0.3870    0.5296   -0.7654 H   0  0  0  0  0  0  0  0  0  0  0  0
    0.2614   -1.6171   -0.9460 C   0  0  0  0  0  0  0  0  0  0  0  0
   -0.5210   -2.3481   -1.1514 H   0  0  0  0  0  0  0  0  0  0  0  0
    0.9155   -1.5395   -1.8164 H   0  0  0  0  0  0  0  0  0  0  0  0
    1.0799   -2.0959    0.2584 C   0  0  0  0  0  0  0  0  0  0  0  0
    1.8627   -1.3703    0.4814 H   0  0  0  0  0  0  0  0  0  0  0  0
    0.4259   -2.1979    1.1249 H   0  0  0  0  0  0  0  0  0  0  0  0
    1.7197   -3.4473   -0.0538 C   0  0  0  0  0  0  0  0  0  0  0  0
    0.9391   -4.1781   -0.2587 H   0  0  0  0  0  0  0  0  0  0  0  0
    2.3593   -3.3513   -0.9297 H   0  0  0  0  0  0  0  0  0  0  0  0
    2.5314   -3.9247    1.0716 N   0  0  0  0  0  0  0  0  0  0  0  0
    2.9263   -4.8235    0.8366 H   0  0  0  0  0  0  0  0  0  0  0  0
    3.2769   -3.2657    1.2454 H   0  0  0  0  0  0  0  0  0  0  0  0
   -1.2712    1.3099    1.1517 C   0  0  0  0  0  0  0  0  0  0  0  0
   -2.2039    1.9448    0.6639 O   0  0  0  0  0  0  0  0  0  0  0  0
   -0.4306    1.8354    2.0503 N   0  0  0  0  0  0  0  0  0  0  0  0
    0.3001    1.2459    2.4139 H   0  0  0  0  0  0  0  0  0  0  0  0
   -0.5192    3.2082    2.5456 C   0  0  0  0  0  0  0  0  0  0  0  0
   -1.5166    3.3903    2.9518 H   0  0  0  0  0  0  0  0  0  0  0  0
    0.2240    3.3791    3.3257 H   0  0  0  0  0  0  0  0  0  0  0  0
   -0.3477    3.9067    1.7239 H   0  0  0  0  0  0  0  0  0  0  0  0
  5  6  2  0  0  0  0
  5  7  1  0  0  0  0
  2  3  1  0  0  0  0
  2  4  1  0  0  0  0
  2  5  1  0  0  0  0
  1  2  1  0  0  0  0
 26 27  2  0  0  0  0
 26 28  1  0  0  0  0
 23 24  1  0  0  0  0
 23 25  1  0  0  0  0
 20 21  1  0  0  0  0
 20 22  1  0  0  0  0
 20 23  1  0  0  0  0
 17 18  1  0  0  0  0
 17 19  1  0  0  0  0
 17 20  1  0  0  0  0
 14 15  1  0  0  0  0
 14 16  1  0  0  0  0
 14 17  1  0  0  0  0
 11 12  1  0  0  0  0
 11 13  1  0  0  0  0
 11 14  1  0  0  0  0
  9 10  1  0  0  0  0
  9 11  1  0  0  0  0
  9 26  1  0  0  0  0
  7  8  1  0  0  0  0
  7  9  1  0  0  0  0
 30 31  1  0  0  0  0
 30 32  1  0  0  0  0
 30 33  1  0  0  0  0
 28 29  1  0  0  0  0
 28 30  1  0  0  0  0
M  END
$$$$
default_name
  -OEChem-02102213163D

 33 32  0     1  0  0  0  0  0999 V2000
   -3.8420   -3.6918    1.5562 H   0  0  0  0  0  0  0  0  0  0  0  0
   -3.8430   -2.7008    1.1032 C   0  0  0  0  0  0  0  0  0  0  0  0
   -4.5510   -2.0608    1.6242 H   0  0  0  0  0  0  0  0  0  0  0  0
   -4.1140   -2.7798    0.0522 H   0  0  0  0  0  0  0  0  0  0  0  0
   -2.4570   -2.1098    1.2172 C   0  0  0  0  0  0  0  0  0  0  0  0
   -1.5600   -2.7438    1.7572 O   0  0  0  0  0  0  0  0  0  0  0  0
   -2.2870   -0.8898    0.7102 N   0  0  0  0  0  0  0  0  0  0  0  0
   -3.0820   -0.4218    0.2992 H   0  0  0  0  0  0  0  0  0  0  0  0
   -1.0240   -0.1468    0.7262 C   0  0  1  0  0  0  0  0  0  0  0  0
   -0.3583   -0.6100    1.4558 H   0  0  0  0  0  0  0  0  0  0  0  0
   -0.3739   -0.2459   -0.6675 C   0  0  0  0  0  0  0  0  0  0  0  0
   -1.1423   -0.0667   -1.4224 H   0  0  0  0  0  0  0  0  0  0  0  0
    0.3870    0.5296   -0.7654 H   0  0  0  0  0  0  0  0  0  0  0  0
    0.2614   -1.6171   -0.9460 C   0  0  0  0  0  0  0  0  0  0  0  0
   -0.4760   -2.2757   -1.4056 H   0  0  0  0  0  0  0  0  0  0  0  0
    1.1030   -1.4906   -1.6296 H   0  0  0  0  0  0  0  0  0  0  0  0
    0.7591   -2.2635    0.3518 C   0  0  0  0  0  0  0  0  0  0  0  0
    1.4927   -1.6121    0.8278 H   0  0  0  0  0  0  0  0  0  0  0  0
   -0.0822   -2.4139    1.0289 H   0  0  0  0  0  0  0  0  0  0  0  0
    1.4073   -3.6119    0.0439 C   0  0  0  0  0  0  0  0  0  0  0  0
    0.6715   -4.2704   -0.4147 H   0  0  0  0  0  0  0  0  0  0  0  0
    2.2367   -3.4657   -0.6462 H   0  0  0  0  0  0  0  0  0  0  0  0
    1.9169   -4.2485    1.2639 N   0  0  0  0  0  0  0  0  0  0  0  0
    2.3247   -5.1406    1.0257 H   0  0  0  0  0  0  0  0  0  0  0  0
    2.6234   -3.6561    1.6764 H   0  0  0  0  0  0  0  0  0  0  0  0
   -1.2712    1.3099    1.1517 C   0  0  0  0  0  0  0  0  0  0  0  0
   -2.2039    1.9448    0.6639 O   0  0  0  0  0  0  0  0  0  0  0  0
   -0.4306    1.8354    2.0503 N   0  0  0  0  0  0  0  0  0  0  0  0
    0.3001    1.2459    2.4139 H   0  0  0  0  0  0  0  0  0  0  0  0
   -0.5192    3.2082    2.5456 C   0  0  0  0  0  0  0  0  0  0  0  0
   -1.5166    3.3903    2.9518 H   0  0  0  0  0  0  0  0  0  0  0  0
    0.2240    3.3791    3.3257 H   0  0  0  0  0  0  0  0  0  0  0  0
   -0.3477    3.9067    1.7239 H   0  0  0  0  0  0  0  0  0  0  0  0
  5  6  2  0  0  0  0
  5  7  1  0  0  0  0
  2  3  1  0  0  0  0
  2  4  1  0  0  0  0
  2  5  1  0  0  0  0
  1  2  1  0  0  0  0
 26 27  2  0  0  0  0
 26 28  1  0  0  0  0
 23 24  1  0  0  0  0
 23 25  1  0  0  0  0
 20 21  1  0  0  0  0
 20 22  1  0  0  0  0
 20 23  1  0  0  0  0
 17 18  1  0  0  0  0
 17 19  1  0  0  0  0
 17 20  1  0  0  0  0
 14 15  1  0  0  0  0
 14 16  1  0  0  0  0
 14 17  1  0  0  0  0
 11 12  1  0  0  0  0
 11 13  1  0  0  0  0
 11 14  1  0  0  0  0
  9 10  1  0  0  0  0
  9 11  1  0  0  0  0
  9 26  1  0  0  0  0
  7  8  1  0  0  0  0
  7  9  1  0  0  0  0
 30 31  1  0  0  0  0
 30 32  1  0  0  0  0
 30 33  1  0  0  0  0
 28 29  1  0  0  0  0
 28 30  1  0  0  0  0
M  END
$$$$
default_name
  -OEChem-02102213163D

 33 32  0     1  0  0  0  0  0999 V2000
   -3.8420   -3.6918    1.5562 H   0  0  0  0  0  0  0  0  0  0  0  0
   -3.8430   -2.7008    1.1032 C   0  0  0  0  0  0  0  0  0  0  0  0
   -4.5510   -2.0608    1.6242 H   0  0  0  0  0  0  0  0  0  0  0  0
   -4.1140   -2.7798    0.0522 H   0  0  0  0  0  0  0  0  0  0  0  0
   -2.4570   -2.1098    1.2172 C   0  0  0  0  0  0  0  0  0  0  0  0
   -1.5600   -2.7438    1.7572 O   0  0  0  0  0  0  0  0  0  0  0  0
   -2.2870   -0.8898    0.7102 N   0  0  0  0  0  0  0  0  0  0  0  0
   -3.0820   -0.4218    0.2992 H   0  0  0  0  0  0  0  0  0  0  0  0
   -1.0240   -0.1468    0.7262 C   0  0  1  0  0  0  0  0  0  0  0  0
   -0.3583   -0.6100    1.4558 H   0  0  0  0  0  0  0  0  0  0  0  0
   -0.3739   -0.2459   -0.6675 C   0  0  0  0  0  0  0  0  0  0  0  0
   -1.1423   -0.0667   -1.4224 H   0  0  0  0  0  0  0  0  0  0  0  0
    0.3870    0.5296   -0.7654 H   0  0  0  0  0  0  0  0  0  0  0  0
    0.2614   -1.6171   -0.9460 C   0  0  0  0  0  0  0  0  0  0  0  0
   -0.3705   -2.1806   -1.6330 H   0  0  0  0  0  0  0  0  0  0  0  0
    1.2432   -1.4721   -1.4007 H   0  0  0  0  0  0  0  0  0  0  0  0
    0.4198   -2.4203    0.3499 C   0  0  0  0  0  0  0  0  0  0  0  0
    1.0439   -1.8654    1.0511 H   0  0  0  0  0  0  0  0  0  0  0  0
   -0.5610   -2.5884    0.7957 H   0  0  0  0  0  0  0  0  0  0  0  0
    1.0753   -3.7667    0.0485 C   0  0  0  0  0  0  0  0  0  0  0  0
    0.4447   -4.3303   -0.6372 H   0  0  0  0  0  0  0  0  0  0  0  0
    2.0474   -3.6008   -0.4130 H   0  0  0  0  0  0  0  0  0  0  0  0
    1.2638   -4.5530    1.2730 N   0  0  0  0  0  0  0  0  0  0  0  0
    1.6850   -5.4390    1.0355 H   0  0  0  0  0  0  0  0  0  0  0  0
    1.8744   -4.0486    1.9000 H   0  0  0  0  0  0  0  0  0  0  0  0
   -1.2712    1.3099    1.1517 C   0  0  0  0  0  0  0  0  0  0  0  0
   -2.2039    1.9448    0.6639 O   0  0  0  0  0  0  0  0  0  0  0  0
   -0.4306    1.8354    2.0503 N   0  0  0  0  0  0  0  0  0  0  0  0
    0.3001    1.2459    2.4139 H   0  0  0  0  0  0  0  0  0  0  0  0
   -0.5192    3.2082    2.5456 C   0  0  0  0  0  0  0  0  0  0  0  0
   -1.5166    3.3903    2.9518 H   0  0  0  0  0  0  0  0  0  0  0  0
    0.2240    3.3791    3.3257 H   0  0  0  0  0  0  0  0  0  0  0  0
   -0.3477    3.9067    1.7239 H   0  0  0  0  0  0  0  0  0  0  0  0
  5  6  2  0  0  0  0
  5  7  1  0  0  0  0
  2  3  1  0  0  0  0
  2  4  1  0  0  0  0
  2  5  1  0  0  0  0
  1  2  1  0  0  0  0
 26 27  2  0  0  0  0
 26 28  1  0  0  0  0
 23 24  1  0  0  0  0
 23 25  1  0  0  0  0
 20 21  1  0  0  0  0
 20 22  1  0  0  0  0
 20 23  1  0  0  0  0
 17 18  1  0  0  0  0
 17 19  1  0  0  0  0
 17 20  1  0  0  0  0
 14 15  1  0  0  0  0
 14 16  1  0  0  0  0
 14 17  1  0  0  0  0
 11 12  1  0  0  0  0
 11 13  1  0  0  0  0
 11 14  1  0  0  0  0
  9 10  1  0  0  0  0
  9 11  1  0  0  0  0
  9 26  1  0  0  0  0
  7  8  1  0  0  0  0
  7  9  1  0  0  0  0
 30 31  1  0  0  0  0
 30 32  1  0  0  0  0
 30 33  1  0  0  0  0
 28 29  1  0  0  0  0
 28 30  1  0  0  0  0
M  END
$$$$
default_name
  -OEChem-02102213163D

 33 32  0     1  0  0  0  0  0999 V2000
   -3.8420   -3.6918    1.5562 H   0  0  0  0  0  0  0  0  0  0  0  0
   -3.8430   -2.7008    1.1032 C   0  0  0  0  0  0  0  0  0  0  0  0
   -4.5510   -2.0608    1.6242 H   0  0  0  0  0  0  0  0  0  0  0  0
   -4.1140   -2.7798    0.0522 H   0  0  0  0  0  0  0  0  0  0  0  0
   -2.4570   -2.1098    1.2172 C   0  0  0  0  0  0  0  0  0  0  0  0
   -1.5600   -2.7438    1.7572 O   0  0  0  0  0  0  0  0  0  0  0  0
   -2.2870   -0.8898    0.7102 N   0  0  0  0  0  0  0  0  0  0  0  0
   -3.0820   -0.4218    0.2992 H   0  0  0  0  0  0  0  0  0  0  0  0
   -1.0240   -0.1468    0.7262 C   0  0  1  0  0  0  0  0  0  0  0  0
   -0.3583   -0.6100    1.4558 H   0  0  0  0  0  0  0  0  0  0  0  0
   -0.3739   -0.2459   -0.6675 C   0  0  0  0  0  0  0  0  0  0  0  0
   -1.1423   -0.0667   -1.4224 H   0  0  0  0  0  0  0  0  0  0  0  0
    0.3870    0.5296   -0.7654 H   0  0  0  0  0  0  0  0  0  0  0  0
    0.2614   -1.6171   -0.9460 C   0  0  0  0  0  0  0  0  0  0  0  0
   -0.2116   -2.0693   -1.8181 H   0  0  0  0  0  0  0  0  0  0  0  0
    1.3266   -1.4854   -1.1452 H   0  0  0  0  0  0  0  0  0  0  0  0
    0.0852   -2.5557    0.2530 C   0  0  0  0  0  0  0  0  0  0  0  0
    0.5469   -2.1130    1.1360 H   0  0  0  0  0  0  0  0  0  0  0  0
   -0.9778   -2.7095    0.4411 H   0  0  0  0  0  0  0  0  0  0  0  0
    0.7463   -3.9011   -0.0403 C   0  0  0  0  0  0  0  0  0  0  0  0
    0.2743   -4.3537   -0.9108 H   0  0  0  0  0  0  0  0  0  0  0  0
    1.8044   -3.7474   -0.2459 H   0  0  0  0  0  0  0  0  0  0  0  0
    0.6165   -4.8174    1.0985 N   0  0  0  0  0  0  0  0  0  0  0  0
    1.0509   -5.6983    0.8652 H   0  0  0  0  0  0  0  0  0  0  0  0
    1.0808   -4.4165    1.9010 H   0  0  0  0  0  0  0  0  0  0  0  0
   -1.2712    1.3099    1.1517 C   0  0  0  0  0  0  0  0  0  0  0  0
   -2.2039    1.9448    0.6639 O   0  0  0  0  0  0  0  0  0  0  0  0
   -0.4306    1.8354    2.0503 N   0  0  0  0  0  0  0  0  0  0  0  0
    0.3001    1.2459    2.4139 H   0  0  0  0  0  0  0  0  0  0  0  0
   -0.5192    3.2082    2.5456 C   0  0  0  0  0  0  0  0  0  0  0  0
   -1.5166    3.3903    2.9518 H   0  0  0  0  0  0  0  0  0  0  0  0
    0.2240    3.3791    3.3257 H   0  0  0  0  0  0  0  0  0  0  0  0
   -0.3477    3.9067    1.7239 H   0  0  0  0  0  0  0  0  0  0  0  0
  5  6  2  0  0  0  0
  5  7  1  0  0  0  0
  2  3  1  0  0  0  0
  2  4  1  0  0  0  0
  2  5  1  0  0  0  0
  1  2  1  0  0  0  0
 26 27  2  0  0  0  0
 26 28  1  0  0  0  0
 23 24  1  0  0  0  0
 23 25  1  0  0  0  0
 20 21  1  0  0  0  0
 20 22  1  0  0  0  0
 20 23  1  0  0  0  0
 17 18  1  0  0  0  0
 17 19  1  0  0  0  0
 17 20  1  0  0  0  0
 14 15  1  0  0  0  0
 14 16  1  0  0  0  0
 14 17  1  0  0  0  0
 11 12  1  0  0  0  0
 11 13  1  0  0  0  0
 11 14  1  0  0  0  0
  9 10  1  0  0  0  0
  9 11  1  0  0  0  0
  9 26  1  0  0  0  0
  7  8  1  0  0  0  0
  7  9  1  0  0  0  0
 30 31  1  0  0  0  0
 30 32  1  0  0  0  0
 30 33  1  0  0  0  0
 28 29  1  0  0  0  0
 28 30  1  0  0  0  0
M  END
$$$$
default_name
  -OEChem-02102213163D

 33 32  0     1  0  0  0  0  0999 V2000
   -3.8420   -3.6918    1.5562 H   0  0  0  0  0  0  0  0  0  0  0  0
   -3.8430   -2.7008    1.1032 C   0  0  0  0  0  0  0  0  0  0  0  0
   -4.5510   -2.0608    1.6242 H   0  0  0  0  0  0  0  0  0  0  0  0
   -4.1140   -2.7798    0.0522 H   0  0  0  0  0  0  0  0  0  0  0  0
   -2.4570   -2.1098    1.2172 C   0  0  0  0  0  0  0  0  0  0  0  0
   -1.5600   -2.7438    1.7572 O   0  0  0  0  0  0  0  0  0  0  0  0
   -2.2870   -0.8898    0.7102 N   0  0  0  0  0  0  0  0  0  0  0  0
   -3.0820   -0.4218    0.2992 H   0  0  0  0  0  0  0  0  0  0  0  0
   -1.0240   -0.1468    0.7262 C   0  0  1  0  0  0  0  0  0  0  0  0
   -0.3583   -0.6100    1.4558 H   0  0  0  0  0  0  0  0  0  0  0  0
   -0.3739   -0.2459   -0.6675 C   0  0  0  0  0  0  0  0  0  0  0  0
   -1.1423   -0.0667   -1.4224 H   0  0  0  0  0  0  0  0  0  0  0  0
    0.3870    0.5296   -0.7654 H   0  0  0  0  0  0  0  0  0  0  0  0
    0.2614   -1.6171   -0.9460 C   0  0  0  0  0  0  0  0  0  0  0  0
   -0.0101   -1.9495   -1.9483 H   0  0  0  0  0  0  0  0  0  0  0  0
    1.3475   -1.5294   -0.8805 H   0  0  0  0  0  0  0  0  0  0  0  0
   -0.2220   -2.6604    0.0676 C   0  0  0  0  0  0  0  0  0  0  0  0
    0.0357   -2.3378    1.0768 H   0  0  0  0  0  0  0  0  0  0  0  0
   -1.3042   -2.7690   -0.0105 H   0  0  0  0  0  0  0  0  0  0  0  0
    0.4427   -4.0060   -0.2164 C   0  0  0  0  0  0  0  0  0  0  0  0
    0.1717   -4.3391   -1.2170 H   0  0  0  0  0  0  0  0  0  0  0  0
    1.5242   -3.8954   -0.1563 H   0  0  0  0  0  0  0  0  0  0  0  0
    0.0192   -5.0239    0.7521 N   0  0  0  0  0  0  0  0  0  0  0  0
    0.4655   -5.9008    0.5266 H   0  0  0  0  0  0  0  0  0  0  0  0
    0.2967   -4.7348    1.6793 H   0  0  0  0  0  0  0  0  0  0  0  0
   -1.2712    1.3099    1.1517 C   0  0  0  0  0  0  0  0  0  0  0  0
   -2.2039    1.9448    0.6639 O   0  0  0  0  0  0  0  0  0  0  0  0
   -0.4306    1.8354    2.0503 N   0  0  0  0  0  0  0  0  0  0  0  0
    0.3001    1.2459    2.4139 H   0  0  0  0  0  0  0  0  0  0  0  0
   -0.5192    3.2082    2.5456 C   0  0  0  0  0  0  0  0  0  0  0  0
   -1.5166    3.3903    2.9518 H   0  0  0  0  0  0  0  0  0  0  0  0
    0.2240    3.3791    3.3257 H   0  0  0  0  0  0  0  0  0  0  0  0
   -0.3477    3.9067    1.7239 H   0  0  0  0  0  0  0  0  0  0  0  0
  5  6  2  0  0  0  0
  5  7  1  0  0  0  0
  2  3  1  0  0  0  0
  2  4  1  0  0  0  0
  2  5  1  0  0  0  0
  1  2  1  0  0  0  0
 26 27  2  0  0  0  0
 26 28  1  0  0  0  0
 23 24  1  0  0  0  0
 23 25  1  0  0  0  0
 20 21  1  0  0  0  0
 20 22  1  0  0  0  0
 20 23  1  0  0  0  0
 17 18  1  0  0  0  0
 17 19  1  0  0  0  0
 17 20  1  0  0  0  0
 14 15  1  0  0  0  0
 14 16  1  0  0  0  0
 14 17  1  0  0  0  0
 11 12  1  0  0  0  0
 11 13  1  0  0  0  0
 11 14  1  0  0  0  0
  9 10  1  0  0  0  0
  9 11  1  0  0  0  0
  9 26  1  0  0  0  0
  7  8  1  0  0  0  0
  7  9  1  0  0  0  0
 30 31  1  0  0  0  0
 30 32  1  0  0  0  0
 30 33  1  0  0  0  0
 28 29  1  0  0  0  0
 28 30  1  0  0  0  0
M  END
$$$$
default_name
  -OEChem-02102213163D

 33 32  0     1  0  0  0  0  0999 V2000
   -3.8420   -3.6918    1.5562 H   0  0  0  0  0  0  0  0  0  0  0  0
   -3.8430   -2.7008    1.1032 C   0  0  0  0  0  0  0  0  0  0  0  0
   -4.5510   -2.0608    1.6242 H   0  0  0  0  0  0  0  0  0  0  0  0
   -4.1140   -2.7798    0.0522 H   0  0  0  0  0  0  0  0  0  0  0  0
   -2.4570   -2.1098    1.2172 C   0  0  0  0  0  0  0  0  0  0  0  0
   -1.5600   -2.7438    1.7572 O   0  0  0  0  0  0  0  0  0  0  0  0
   -2.2870   -0.8898    0.7102 N   0  0  0  0  0  0  0  0  0  0  0  0
   -3.0820   -0.4218    0.2992 H   0  0  0  0  0  0  0  0  0  0  0  0
   -1.0240   -0.1468    0.7262 C   0  0  1  0  0  0  0  0  0  0  0  0
   -0.3583   -0.6100    1.4558 H   0  0  0  0  0  0  0  0  0  0  0  0
   -0.3739   -0.2459   -0.6675 C   0  0  0  0  0  0  0  0  0  0  0  0
   -1.1423   -0.0667   -1.4224 H   0  0  0  0  0  0  0  0  0  0  0  0
    0.3870    0.5296   -0.7654 H   0  0  0  0  0  0  0  0  0  0  0  0
    0.2614   -1.6171   -0.9460 C   0  0  0  0  0  0  0  0  0  0  0  0
    0.2202   -1.8293   -2.0147 H   0  0  0  0  0  0  0  0  0  0  0  0
    1.3045   -1.6013   -0.6248 H   0  0  0  0  0  0  0  0  0  0  0  0
   -0.4809   -2.7273   -0.1936 C   0  0  0  0  0  0  0  0  0  0  0  0
   -0.4550   -2.5247    0.8775 H   0  0  0  0  0  0  0  0  0  0  0  0
   -1.5180   -2.7628   -0.5286 H   0  0  0  0  0  0  0  0  0  0  0  0
    0.1852   -4.0742   -0.4679 C   0  0  0  0  0  0  0  0  0  0  0  0
    0.1440   -4.2873   -1.5348 H   0  0  0  0  0  0  0  0  0  0  0  0
    1.2259   -4.0349   -0.1503 H   0  0  0  0  0  0  0  0  0  0  0  0
   -0.4874   -5.1581    0.2574 N   0  0  0  0  0  0  0  0  0  0  0  0
   -0.0312   -6.0326    0.0427 H   0  0  0  0  0  0  0  0  0  0  0  0
   -0.4243   -4.9817    1.2500 H   0  0  0  0  0  0  0  0  0  0  0  0
   -1.2712    1.3099    1.1517 C   0  0  0  0  0  0  0  0  0  0  0  0
   -2.2039    1.9448    0.6639 O   0  0  0  0  0  0  0  0  0  0  0  0
   -0.4306    1.8354    2.0503 N   0  0  0  0  0  0  0  0  0  0  0  0
    0.3001    1.2459    2.4139 H   0  0  0  0  0  0  0  0  0  0  0  0
   -0.5192    3.2082    2.5456 C   0  0  0  0  0  0  0  0  0  0  0  0
   -1.5166    3.3903    2.9518 H   0  0  0  0  0  0  0  0  0  0  0  0
    0.2240    3.3791    3.3257 H   0  0  0  0  0  0  0  0  0  0  0  0
   -0.3477    3.9067    1.7239 H   0  0  0  0  0  0  0  0  0  0  0  0
  5  6  2  0  0  0  0
  5  7  1  0  0  0  0
  2  3  1  0  0  0  0
  2  4  1  0  0  0  0
  2  5  1  0  0  0  0
  1  2  1  0  0  0  0
 26 27  2  0  0  0  0
 26 28  1  0  0  0  0
 23 24  1  0  0  0  0
 23 25  1  0  0  0  0
 20 21  1  0  0  0  0
 20 22  1  0  0  0  0
 20 23  1  0  0  0  0
 17 18  1  0  0  0  0
 17 19  1  0  0  0  0
 17 20  1  0  0  0  0
 14 15  1  0  0  0  0
 14 16  1  0  0  0  0
 14 17  1  0  0  0  0
 11 12  1  0  0  0  0
 11 13  1  0  0  0  0
 11 14  1  0  0  0  0
  9 10  1  0  0  0  0
  9 11  1  0  0  0  0
  9 26  1  0  0  0  0
  7  8  1  0  0  0  0
  7  9  1  0  0  0  0
 30 31  1  0  0  0  0
 30 32  1  0  0  0  0
 30 33  1  0  0  0  0
 28 29  1  0  0  0  0
 28 30  1  0  0  0  0
M  END
$$$$
default_name
  -OEChem-02102213163D

 33 32  0     1  0  0  0  0  0999 V2000
   -3.8420   -3.6918    1.5562 H   0  0  0  0  0  0  0  0  0  0  0  0
   -3.8430   -2.7008    1.1032 C   0  0  0  0  0  0  0  0  0  0  0  0
   -4.5510   -2.0608    1.6242 H   0  0  0  0  0  0  0  0  0  0  0  0
   -4.1140   -2.7798    0.0522 H   0  0  0  0  0  0  0  0  0  0  0  0
   -2.4570   -2.1098    1.2172 C   0  0  0  0  0  0  0  0  0  0  0  0
   -1.5600   -2.7438    1.7572 O   0  0  0  0  0  0  0  0  0  0  0  0
   -2.2870   -0.8898    0.7102 N   0  0  0  0  0  0  0  0  0  0  0  0
   -3.0820   -0.4218    0.2992 H   0  0  0  0  0  0  0  0  0  0  0  0
   -1.0240   -0.1468    0.7262 C   0  0  1  0  0  0  0  0  0  0  0  0
   -0.3583   -0.6100    1.4558 H   0  0  0  0  0  0  0  0  0  0  0  0
   -0.3739   -0.2459   -0.6675 C   0  0  0  0  0  0  0  0  0  0  0  0
   -1.1423   -0.0667   -1.4224 H   0  0  0  0  0  0  0  0  0  0  0  0
    0.3870    0.5296   -0.7654 H   0  0  0  0  0  0  0  0  0  0  0  0
    0.2614   -1.6171   -0.9460 C   0  0  0  0  0  0  0  0  0  0  0  0
    0.4636   -1.7169   -2.0128 H   0  0  0  0  0  0  0  0  0  0  0  0
    1.2006   -1.6960   -0.3953 H   0  0  0  0  0  0  0  0  0  0  0  0
   -0.6737   -2.7518   -0.5129 C   0  0  0  0  0  0  0  0  0  0  0  0
   -0.8917   -2.6609    0.5516 H   0  0  0  0  0  0  0  0  0  0  0  0
   -1.6045   -2.6914   -1.0777 H   0  0  0  0  0  0  0  0  0  0  0  0
   -0.0087   -4.1012   -0.7775 C   0  0  0  0  0  0  0  0  0  0  0  0
    0.1931   -4.2020   -1.8427 H   0  0  0  0  0  0  0  0  0  0  0  0
    0.9298   -4.1562   -0.2283 H   0  0  0  0  0  0  0  0  0  0  0  0
   -0.8689   -5.2112   -0.3517 N   0  0  0  0  0  0  0  0  0  0  0  0
   -0.4054   -6.0849   -0.5536 H   0  0  0  0  0  0  0  0  0  0  0  0
   -1.0333   -5.1405    0.6424 H   0  0  0  0  0  0  0  0  0  0  0  0
   -1.2712    1.3099    1.1517 C   0  0  0  0  0  0  0  0  0  0  0  0
   -2.2039    1.9448    0.6639 O   0  0  0  0  0  0  0  0  0  0  0  0
   -0.4306    1.8354    2.0503 N   0  0  0  0  0  0  0  0  0  0  0  0
    0.3001    1.2459    2.4139 H   0  0  0  0  0  0  0  0  0  0  0  0
   -0.5192    3.2082    2.5456 C   0  0  0  0  0  0  0  0  0  0  0  0
   -1.5166    3.3903    2.9518 H   0  0  0  0  0  0  0  0  0  0  0  0
    0.2240    3.3791    3.3257 H   0  0  0  0  0  0  0  0  0  0  0  0
   -0.3477    3.9067    1.7239 H   0  0  0  0  0  0  0  0  0  0  0  0
  5  6  2  0  0  0  0
  5  7  1  0  0  0  0
  2  3  1  0  0  0  0
  2  4  1  0  0  0  0
  2  5  1  0  0  0  0
  1  2  1  0  0  0  0
 26 27  2  0  0  0  0
 26 28  1  0  0  0  0
 23 24  1  0  0  0  0
 23 25  1  0  0  0  0
 20 21  1  0  0  0  0
 20 22  1  0  0  0  0
 20 23  1  0  0  0  0
 17 18  1  0  0  0  0
 17 19  1  0  0  0  0
 17 20  1  0  0  0  0
 14 15  1  0  0  0  0
 14 16  1  0  0  0  0
 14 17  1  0  0  0  0
 11 12  1  0  0  0  0
 11 13  1  0  0  0  0
 11 14  1  0  0  0  0
  9 10  1  0  0  0  0
  9 11  1  0  0  0  0
  9 26  1  0  0  0  0
  7  8  1  0  0  0  0
  7  9  1  0  0  0  0
 30 31  1  0  0  0  0
 30 32  1  0  0  0  0
 30 33  1  0  0  0  0
 28 29  1  0  0  0  0
 28 30  1  0  0  0  0
M  END
$$$$
default_name
  -OEChem-02102213163D

 33 32  0     1  0  0  0  0  0999 V2000
   -3.8420   -3.6918    1.5562 H   0  0  0  0  0  0  0  0  0  0  0  0
   -3.8430   -2.7008    1.1032 C   0  0  0  0  0  0  0  0  0  0  0  0
   -4.5510   -2.0608    1.6242 H   0  0  0  0  0  0  0  0  0  0  0  0
   -4.1140   -2.7798    0.0522 H   0  0  0  0  0  0  0  0  0  0  0  0
   -2.4570   -2.1098    1.2172 C   0  0  0  0  0  0  0  0  0  0  0  0
   -1.5600   -2.7438    1.7572 O   0  0  0  0  0  0  0  0  0  0  0  0
   -2.2870   -0.8898    0.7102 N   0  0  0  0  0  0  0  0  0  0  0  0
   -3.0820   -0.4218    0.2992 H   0  0  0  0  0  0  0  0  0  0  0  0
   -1.0240   -0.1468    0.7262 C   0  0  1  0  0  0  0  0  0  0  0  0
   -0.3583   -0.6100    1.4558 H   0  0  0  0  0  0  0  0  0  0  0  0
   -0.3739   -0.2459   -0.6675 C   0  0  0  0  0  0  0  0  0  0  0  0
   -1.1423   -0.0667   -1.4224 H   0  0  0  0  0  0  0  0  0  0  0  0
    0.3870    0.5296   -0.7654 H   0  0  0  0  0  0  0  0  0  0  0  0
    0.2614   -1.6171   -0.9460 C   0  0  0  0  0  0  0  0  0  0  0  0
    0.7035   -1.6200   -1.9427 H   0  0  0  0  0  0  0  0  0  0  0  0
    1.0428   -1.8073   -0.2079 H   0  0  0  0  0  0  0  0  0  0  0  0
   -0.7874   -2.7323   -0.8684 C   0  0  0  0  0  0  0  0  0  0  0  0
   -1.2447   -2.7371    0.1215 H   0  0  0  0  0  0  0  0  0  0  0  0
   -1.5579   -2.5596   -1.6204 H   0  0  0  0  0  0  0  0  0  0  0  0
   -0.1257   -4.0850   -1.1243 C   0  0  0  0  0  0  0  0  0  0  0  0
    0.3157   -4.0890   -2.1196 H   0  0  0  0  0  0  0  0  0  0  0  0
    0.6561   -4.2512   -0.3850 H   0  0  0  0  0  0  0  0  0  0  0  0
   -1.0991   -5.1793   -1.0339 N   0  0  0  0  0  0  0  0  0  0  0  0
   -0.6316   -6.0540   -1.2216 H   0  0  0  0  0  0  0  0  0  0  0  0
   -1.4886   -5.2002   -0.1021 H   0  0  0  0  0  0  0  0  0  0  0  0
   -1.2712    1.3099    1.1517 C   0  0  0  0  0  0  0  0  0  0  0  0
   -2.2039    1.9448    0.6639 O   0  0  0  0  0  0  0  0  0  0  0  0
   -0.4306    1.8354    2.0503 N   0  0  0  0  0  0  0  0  0  0  0  0
    0.3001    1.2459    2.4139 H   0  0  0  0  0  0  0  0  0  0  0  0
   -0.5192    3.2082    2.5456 C   0  0  0  0  0  0  0  0  0  0  0  0
   -1.5166    3.3903    2.9518 H   0  0  0  0  0  0  0  0  0  0  0  0
    0.2240    3.3791    3.3257 H   0  0  0  0  0  0  0  0  0  0  0  0
   -0.3477    3.9067    1.7239 H   0  0  0  0  0  0  0  0  0  0  0  0
  5  6  2  0  0  0  0
  5  7  1  0  0  0  0
  2  3  1  0  0  0  0
  2  4  1  0  0  0  0
  2  5  1  0  0  0  0
  1  2  1  0  0  0  0
 26 27  2  0  0  0  0
 26 28  1  0  0  0  0
 23 24  1  0  0  0  0
 23 25  1  0  0  0  0
 20 21  1  0  0  0  0
 20 22  1  0  0  0  0
 20 23  1  0  0  0  0
 17 18  1  0  0  0  0
 17 19  1  0  0  0  0
 17 20  1  0  0  0  0
 14 15  1  0  0  0  0
 14 16  1  0  0  0  0
 14 17  1  0  0  0  0
 11 12  1  0  0  0  0
 11 13  1  0  0  0  0
 11 14  1  0  0  0  0
  9 10  1  0  0  0  0
  9 11  1  0  0  0  0
  9 26  1  0  0  0  0
  7  8  1  0  0  0  0
  7  9  1  0  0  0  0
 30 31  1  0  0  0  0
 30 32  1  0  0  0  0
 30 33  1  0  0  0  0
 28 29  1  0  0  0  0
 28 30  1  0  0  0  0
M  END
$$$$
default_name
  -OEChem-02102213163D

 33 32  0     1  0  0  0  0  0999 V2000
   -3.8420   -3.6918    1.5562 H   0  0  0  0  0  0  0  0  0  0  0  0
   -3.8430   -2.7008    1.1032 C   0  0  0  0  0  0  0  0  0  0  0  0
   -4.5510   -2.0608    1.6242 H   0  0  0  0  0  0  0  0  0  0  0  0
   -4.1140   -2.7798    0.0522 H   0  0  0  0  0  0  0  0  0  0  0  0
   -2.4570   -2.1098    1.2172 C   0  0  0  0  0  0  0  0  0  0  0  0
   -1.5600   -2.7438    1.7572 O   0  0  0  0  0  0  0  0  0  0  0  0
   -2.2870   -0.8898    0.7102 N   0  0  0  0  0  0  0  0  0  0  0  0
   -3.0820   -0.4218    0.2992 H   0  0  0  0  0  0  0  0  0  0  0  0
   -1.0240   -0.1468    0.7262 C   0  0  1  0  0  0  0  0  0  0  0  0
   -0.3583   -0.6100    1.4558 H   0  0  0  0  0  0  0  0  0  0  0  0
   -0.3739   -0.2459   -0.6675 C   0  0  0  0  0  0  0  0  0  0  0  0
   -1.1423   -0.0667   -1.4224 H   0  0  0  0  0  0  0  0  0  0  0  0
    0.3870    0.5296   -0.7654 H   0  0  0  0  0  0  0  0  0  0  0  0
    0.2614   -1.6171   -0.9460 C   0  0  0  0  0  0  0  0  0  0  0  0
    0.9237   -1.5451   -1.8092 H   0  0  0  0  0  0  0  0  0  0  0  0
    0.8418   -1.9273   -0.0752 H   0  0  0  0  0  0  0  0  0  0  0  0
   -0.8142   -2.6700   -1.2360 C   0  0  0  0  0  0  0  0  0  0  0  0
   -1.4899   -2.7481   -0.3837 H   0  0  0  0  0  0  0  0  0  0  0  0
   -1.3815   -2.3764   -2.1197 H   0  0  0  0  0  0  0  0  0  0  0  0
   -0.1579   -4.0267   -1.4845 C   0  0  0  0  0  0  0  0  0  0  0  0
    0.5033   -3.9559   -2.3467 H   0  0  0  0  0  0  0  0  0  0  0  0
    0.4235   -4.3133   -0.6098 H   0  0  0  0  0  0  0  0  0  0  0  0
   -1.1625   -5.0647   -1.7426 N   0  0  0  0  0  0  0  0  0  0  0  0
   -0.6944   -5.9421   -1.9157 H   0  0  0  0  0  0  0  0  0  0  0  0
   -1.7592   -5.1569   -0.9328 H   0  0  0  0  0  0  0  0  0  0  0  0
   -1.2712    1.3099    1.1517 C   0  0  0  0  0  0  0  0  0  0  0  0
   -2.2039    1.9448    0.6639 O   0  0  0  0  0  0  0  0  0  0  0  0
   -0.4306    1.8354    2.0503 N   0  0  0  0  0  0  0  0  0  0  0  0
    0.3001    1.2459    2.4139 H   0  0  0  0  0  0  0  0  0  0  0  0
   -0.5192    3.2082    2.5456 C   0  0  0  0  0  0  0  0  0  0  0  0
   -1.5166    3.3903    2.9518 H   0  0  0  0  0  0  0  0  0  0  0  0
    0.2240    3.3791    3.3257 H   0  0  0  0  0  0  0  0  0  0  0  0
   -0.3477    3.9067    1.7239 H   0  0  0  0  0  0  0  0  0  0  0  0
  5  6  2  0  0  0  0
  5  7  1  0  0  0  0
  2  3  1  0  0  0  0
  2  4  1  0  0  0  0
  2  5  1  0  0  0  0
  1  2  1  0  0  0  0
 26 27  2  0  0  0  0
 26 28  1  0  0  0  0
 23 24  1  0  0  0  0
 23 25  1  0  0  0  0
 20 21  1  0  0  0  0
 20 22  1  0  0  0  0
 20 23  1  0  0  0  0
 17 18  1  0  0  0  0
 17 19  1  0  0  0  0
 17 20  1  0  0  0  0
 14 15  1  0  0  0  0
 14 16  1  0  0  0  0
 14 17  1  0  0  0  0
 11 12  1  0  0  0  0
 11 13  1  0  0  0  0
 11 14  1  0  0  0  0
  9 10  1  0  0  0  0
  9 11  1  0  0  0  0
  9 26  1  0  0  0  0
  7  8  1  0  0  0  0
  7  9  1  0  0  0  0
 30 31  1  0  0  0  0
 30 32  1  0  0  0  0
 30 33  1  0  0  0  0
 28 29  1  0  0  0  0
 28 30  1  0  0  0  0
M  END
$$$$
default_name
  -OEChem-02102213163D

 33 32  0     1  0  0  0  0  0999 V2000
   -3.8420   -3.6918    1.5562 H   0  0  0  0  0  0  0  0  0  0  0  0
   -3.8430   -2.7008    1.1032 C   0  0  0  0  0  0  0  0  0  0  0  0
   -4.5510   -2.0608    1.6242 H   0  0  0  0  0  0  0  0  0  0  0  0
   -4.1140   -2.7798    0.0522 H   0  0  0  0  0  0  0  0  0  0  0  0
   -2.4570   -2.1098    1.2172 C   0  0  0  0  0  0  0  0  0  0  0  0
   -1.5600   -2.7438    1.7572 O   0  0  0  0  0  0  0  0  0  0  0  0
   -2.2870   -0.8898    0.7102 N   0  0  0  0  0  0  0  0  0  0  0  0
   -3.0820   -0.4218    0.2992 H   0  0  0  0  0  0  0  0  0  0  0  0
   -1.0240   -0.1468    0.7262 C   0  0  1  0  0  0  0  0  0  0  0  0
   -0.3583   -0.6100    1.4558 H   0  0  0  0  0  0  0  0  0  0  0  0
   -0.3739   -0.2459   -0.6675 C   0  0  0  0  0  0  0  0  0  0  0  0
   -1.1423   -0.0667   -1.4224 H   0  0  0  0  0  0  0  0  0  0  0  0
    0.3870    0.5296   -0.7654 H   0  0  0  0  0  0  0  0  0  0  0  0
    0.2614   -1.6171   -0.9460 C   0  0  0  0  0  0  0  0  0  0  0  0
    1.1090   -1.4974   -1.6214 H   0  0  0  0  0  0  0  0  0  0  0  0
    0.6114   -2.0481   -0.0062 H   0  0  0  0  0  0  0  0  0  0  0  0
   -0.7522   -2.5693   -1.5906 C   0  0  0  0  0  0  0  0  0  0  0  0
   -1.6105   -2.6931   -0.9295 H   0  0  0  0  0  0  0  0  0  0  0  0
   -1.0871   -2.1542   -2.5417 H   0  0  0  0  0  0  0  0  0  0  0  0
   -0.1030   -3.9304   -1.8337 C   0  0  0  0  0  0  0  0  0  0  0  0
    0.7432   -3.8119   -2.5085 H   0  0  0  0  0  0  0  0  0  0  0  0
    0.2479   -4.3383   -0.8872 H   0  0  0  0  0  0  0  0  0  0  0  0
   -1.0547   -4.8752   -2.4295 N   0  0  0  0  0  0  0  0  0  0  0  0
   -0.5895   -5.7568   -2.5888 H   0  0  0  0  0  0  0  0  0  0  0  0
   -1.8268   -5.0134   -1.7930 H   0  0  0  0  0  0  0  0  0  0  0  0
   -1.2712    1.3099    1.1517 C   0  0  0  0  0  0  0  0  0  0  0  0
   -2.2039    1.9448    0.6639 O   0  0  0  0  0  0  0  0  0  0  0  0
   -0.4306    1.8354    2.0503 N   0  0  0  0  0  0  0  0  0  0  0  0
    0.3001    1.2459    2.4139 H   0  0  0  0  0  0  0  0  0  0  0  0
   -0.5192    3.2082    2.5456 C   0  0  0  0  0  0  0  0  0  0  0  0
   -1.5166    3.3903    2.9518 H   0  0  0  0  0  0  0  0  0  0  0  0
    0.2240    3.3791    3.3257 H   0  0  0  0  0  0  0  0  0  0  0  0
   -0.3477    3.9067    1.7239 H   0  0  0  0  0  0  0  0  0  0  0  0
  5  6  2  0  0  0  0
  5  7  1  0  0  0  0
  2  3  1  0  0  0  0
  2  4  1  0  0  0  0
  2  5  1  0  0  0  0
  1  2  1  0  0  0  0
 26 27  2  0  0  0  0
 26 28  1  0  0  0  0
 23 24  1  0  0  0  0
 23 25  1  0  0  0  0
 20 21  1  0  0  0  0
 20 22  1  0  0  0  0
 20 23  1  0  0  0  0
 17 18  1  0  0  0  0
 17 19  1  0  0  0  0
 17 20  1  0  0  0  0
 14 15  1  0  0  0  0
 14 16  1  0  0  0  0
 14 17  1  0  0  0  0
 11 12  1  0  0  0  0
 11 13  1  0  0  0  0
 11 14  1  0  0  0  0
  9 10  1  0  0  0  0
  9 11  1  0  0  0  0
  9 26  1  0  0  0  0
  7  8  1  0  0  0  0
  7  9  1  0  0  0  0
 30 31  1  0  0  0  0
 30 32  1  0  0  0  0
 30 33  1  0  0  0  0
 28 29  1  0  0  0  0
 28 30  1  0  0  0  0
M  END
$$$$
default_name
  -OEChem-02102213163D

 33 32  0     1  0  0  0  0  0999 V2000
   -3.8420   -3.6918    1.5562 H   0  0  0  0  0  0  0  0  0  0  0  0
   -3.8430   -2.7008    1.1032 C   0  0  0  0  0  0  0  0  0  0  0  0
   -4.5510   -2.0608    1.6242 H   0  0  0  0  0  0  0  0  0  0  0  0
   -4.1140   -2.7798    0.0522 H   0  0  0  0  0  0  0  0  0  0  0  0
   -2.4570   -2.1098    1.2172 C   0  0  0  0  0  0  0  0  0  0  0  0
   -1.5600   -2.7438    1.7572 O   0  0  0  0  0  0  0  0  0  0  0  0
   -2.2870   -0.8898    0.7102 N   0  0  0  0  0  0  0  0  0  0  0  0
   -3.0820   -0.4218    0.2992 H   0  0  0  0  0  0  0  0  0  0  0  0
   -1.0240   -0.1468    0.7262 C   0  0  1  0  0  0  0  0  0  0  0  0
   -0.3583   -0.6100    1.4558 H   0  0  0  0  0  0  0  0  0  0  0  0
   -0.3739   -0.2459   -0.6675 C   0  0  0  0  0  0  0  0  0  0  0  0
   -1.1423   -0.0667   -1.4224 H   0  0  0  0  0  0  0  0  0  0  0  0
    0.3870    0.5296   -0.7654 H   0  0  0  0  0  0  0  0  0  0  0  0
    0.2614   -1.6171   -0.9460 C   0  0  0  0  0  0  0  0  0  0  0  0
    1.2469   -1.4800   -1.3921 H   0  0  0  0  0  0  0  0  0  0  0  0
    0.3673   -2.1613   -0.0058 H   0  0  0  0  0  0  0  0  0  0  0  0
   -0.6058   -2.4369   -1.9080 C   0  0  0  0  0  0  0  0  0  0  0  0
   -1.5984   -2.5760   -1.4787 H   0  0  0  0  0  0  0  0  0  0  0  0
   -0.6948   -1.9083   -2.8575 H   0  0  0  0  0  0  0  0  0  0  0  0
    0.0351   -3.8025   -2.1480 C   0  0  0  0  0  0  0  0  0  0  0  0
    1.0191   -3.6667   -2.5939 H   0  0  0  0  0  0  0  0  0  0  0  0
    0.1411   -4.3246   -1.1985 H   0  0  0  0  0  0  0  0  0  0  0  0
   -0.7830   -4.6237   -3.0478 N   0  0  0  0  0  0  0  0  0  0  0  0
   -0.3241   -5.5107   -3.1948 H   0  0  0  0  0  0  0  0  0  0  0  0
   -1.6866   -4.7797   -2.6242 H   0  0  0  0  0  0  0  0  0  0  0  0
   -1.2712    1.3099    1.1517 C   0  0  0  0  0  0  0  0  0  0  0  0
   -2.2039    1.9448    0.6639 O   0  0  0  0  0  0  0  0  0  0  0  0
   -0.4306    1.8354    2.0503 N   0  0  0  0  0  0  0  0  0  0  0  0
    0.3001    1.2459    2.4139 H   0  0  0  0  0  0  0  0  0  0  0  0
   -0.5192    3.2082    2.5456 C   0  0  0  0  0  0  0  0  0  0  0  0
   -1.5166    3.3903    2.9518 H   0  0  0  0  0  0  0  0  0  0  0  0
    0.2240    3.3791    3.3257 H   0  0  0  0  0  0  0  0  0  0  0  0
   -0.3477    3.9067    1.7239 H   0  0  0  0  0  0  0  0  0  0  0  0
  5  6  2  0  0  0  0
  5  7  1  0  0  0  0
  2  3  1  0  0  0  0
  2  4  1  0  0  0  0
  2  5  1  0  0  0  0
  1  2  1  0  0  0  0
 26 27  2  0  0  0  0
 26 28  1  0  0  0  0
 23 24  1  0  0  0  0
 23 25  1  0  0  0  0
 20 21  1  0  0  0  0
 20 22  1  0  0  0  0
 20 23  1  0  0  0  0
 17 18  1  0  0  0  0
 17 19  1  0  0  0  0
 17 20  1  0  0  0  0
 14 15  1  0  0  0  0
 14 16  1  0  0  0  0
 14 17  1  0  0  0  0
 11 12  1  0  0  0  0
 11 13  1  0  0  0  0
 11 14  1  0  0  0  0
  9 10  1  0  0  0  0
  9 11  1  0  0  0  0
  9 26  1  0  0  0  0
  7  8  1  0  0  0  0
  7  9  1  0  0  0  0
 30 31  1  0  0  0  0
 30 32  1  0  0  0  0
 30 33  1  0  0  0  0
 28 29  1  0  0  0  0
 28 30  1  0  0  0  0
M  END
$$$$
default_name
  -OEChem-02102213163D

 33 32  0     1  0  0  0  0  0999 V2000
   -3.8420   -3.6918    1.5562 H   0  0  0  0  0  0  0  0  0  0  0  0
   -3.8430   -2.7008    1.1032 C   0  0  0  0  0  0  0  0  0  0  0  0
   -4.5510   -2.0608    1.6242 H   0  0  0  0  0  0  0  0  0  0  0  0
   -4.1140   -2.7798    0.0522 H   0  0  0  0  0  0  0  0  0  0  0  0
   -2.4570   -2.1098    1.2172 C   0  0  0  0  0  0  0  0  0  0  0  0
   -1.5600   -2.7438    1.7572 O   0  0  0  0  0  0  0  0  0  0  0  0
   -2.2870   -0.8898    0.7102 N   0  0  0  0  0  0  0  0  0  0  0  0
   -3.0820   -0.4218    0.2992 H   0  0  0  0  0  0  0  0  0  0  0  0
   -1.0240   -0.1468    0.7262 C   0  0  1  0  0  0  0  0  0  0  0  0
   -0.3583   -0.6100    1.4558 H   0  0  0  0  0  0  0  0  0  0  0  0
   -0.3739   -0.2459   -0.6675 C   0  0  0  0  0  0  0  0  0  0  0  0
   -1.1423   -0.0667   -1.4224 H   0  0  0  0  0  0  0  0  0  0  0  0
    0.3870    0.5296   -0.7654 H   0  0  0  0  0  0  0  0  0  0  0  0
    0.2614   -1.6171   -0.9460 C   0  0  0  0  0  0  0  0  0  0  0  0
    1.3279   -1.4943   -1.1370 H   0  0  0  0  0  0  0  0  0  0  0  0
    0.1261   -2.2593   -0.0738 H   0  0  0  0  0  0  0  0  0  0  0  0
   -0.3848   -2.2820   -2.1666 C   0  0  0  0  0  0  0  0  0  0  0  0
   -1.4544   -2.4046   -1.9938 H   0  0  0  0  0  0  0  0  0  0  0  0
   -0.2315   -1.6554   -3.0457 H   0  0  0  0  0  0  0  0  0  0  0  0
    0.2471   -3.6519   -2.4060 C   0  0  0  0  0  0  0  0  0  0  0  0
    1.3121   -3.5303   -2.5972 H   0  0  0  0  0  0  0  0  0  0  0  0
    0.1104   -4.2730   -1.5223 H   0  0  0  0  0  0  0  0  0  0  0  0
   -0.3660   -4.3274   -3.5554 N   0  0  0  0  0  0  0  0  0  0  0  0
    0.0839   -5.2206   -3.6925 H   0  0  0  0  0  0  0  0  0  0  0  0
   -1.3484   -4.4715   -3.3697 H   0  0  0  0  0  0  0  0  0  0  0  0
   -1.2712    1.3099    1.1517 C   0  0  0  0  0  0  0  0  0  0  0  0
   -2.2039    1.9448    0.6639 O   0  0  0  0  0  0  0  0  0  0  0  0
   -0.4306    1.8354    2.0503 N   0  0  0  0  0  0  0  0  0  0  0  0
    0.3001    1.2459    2.4139 H   0  0  0  0  0  0  0  0  0  0  0  0
   -0.5192    3.2082    2.5456 C   0  0  0  0  0  0  0  0  0  0  0  0
   -1.5166    3.3903    2.9518 H   0  0  0  0  0  0  0  0  0  0  0  0
    0.2240    3.3791    3.3257 H   0  0  0  0  0  0  0  0  0  0  0  0
   -0.3477    3.9067    1.7239 H   0  0  0  0  0  0  0  0  0  0  0  0
  5  6  2  0  0  0  0
  5  7  1  0  0  0  0
  2  3  1  0  0  0  0
  2  4  1  0  0  0  0
  2  5  1  0  0  0  0
  1  2  1  0  0  0  0
 26 27  2  0  0  0  0
 26 28  1  0  0  0  0
 23 24  1  0  0  0  0
 23 25  1  0  0  0  0
 20 21  1  0  0  0  0
 20 22  1  0  0  0  0
 20 23  1  0  0  0  0
 17 18  1  0  0  0  0
 17 19  1  0  0  0  0
 17 20  1  0  0  0  0
 14 15  1  0  0  0  0
 14 16  1  0  0  0  0
 14 17  1  0  0  0  0
 11 12  1  0  0  0  0
 11 13  1  0  0  0  0
 11 14  1  0  0  0  0
  9 10  1  0  0  0  0
  9 11  1  0  0  0  0
  9 26  1  0  0  0  0
  7  8  1  0  0  0  0
  7  9  1  0  0  0  0
 30 31  1  0  0  0  0
 30 32  1  0  0  0  0
 30 33  1  0  0  0  0
 28 29  1  0  0  0  0
 28 30  1  0  0  0  0
M  END
$$$$
default_name
  -OEChem-02102213163D

 33 32  0     1  0  0  0  0  0999 V2000
   -3.8420   -3.6918    1.5562 H   0  0  0  0  0  0  0  0  0  0  0  0
   -3.8430   -2.7008    1.1032 C   0  0  0  0  0  0  0  0  0  0  0  0
   -4.5510   -2.0608    1.6242 H   0  0  0  0  0  0  0  0  0  0  0  0
   -4.1140   -2.7798    0.0522 H   0  0  0  0  0  0  0  0  0  0  0  0
   -2.4570   -2.1098    1.2172 C   0  0  0  0  0  0  0  0  0  0  0  0
   -1.5600   -2.7438    1.7572 O   0  0  0  0  0  0  0  0  0  0  0  0
   -2.2870   -0.8898    0.7102 N   0  0  0  0  0  0  0  0  0  0  0  0
   -3.0820   -0.4218    0.2992 H   0  0  0  0  0  0  0  0  0  0  0  0
   -1.0240   -0.1468    0.7262 C   0  0  1  0  0  0  0  0  0  0  0  0
   -0.3583   -0.6100    1.4558 H   0  0  0  0  0  0  0  0  0  0  0  0
   -0.3739   -0.2459   -0.6675 C   0  0  0  0  0  0  0  0  0  0  0  0
   -1.1423   -0.0667   -1.4224 H   0  0  0  0  0  0  0  0  0  0  0  0
    0.3870    0.5296   -0.7654 H   0  0  0  0  0  0  0  0  0  0  0  0
    0.2614   -1.6171   -0.9460 C   0  0  0  0  0  0  0  0  0  0  0  0
    1.3466   -1.5392   -0.8733 H   0  0  0  0  0  0  0  0  0  0  0  0
   -0.0958   -2.3353   -0.2057 H   0  0  0  0  0  0  0  0  0  0  0  0
   -0.1044   -2.1150   -2.3488 C   0  0  0  0  0  0  0  0  0  0  0  0
   -1.1884   -2.1907   -2.4398 H   0  0  0  0  0  0  0  0  0  0  0  0
    0.2714   -1.4127   -3.0934 H   0  0  0  0  0  0  0  0  0  0  0  0
    0.5185   -3.4887   -2.5901 C   0  0  0  0  0  0  0  0  0  0  0  0
    1.6022   -3.4119   -2.5182 H   0  0  0  0  0  0  0  0  0  0  0  0
    0.1581   -4.1871   -1.8367 H   0  0  0  0  0  0  0  0  0  0  0  0
    0.1680   -4.0064   -3.9177 N   0  0  0  0  0  0  0  0  0  0  0  0
    0.6064   -4.9062   -4.0481 H   0  0  0  0  0  0  0  0  0  0  0  0
   -0.8350   -4.1099   -3.9787 H   0  0  0  0  0  0  0  0  0  0  0  0
   -1.2712    1.3099    1.1517 C   0  0  0  0  0  0  0  0  0  0  0  0
   -2.2039    1.9448    0.6639 O   0  0  0  0  0  0  0  0  0  0  0  0
   -0.4306    1.8354    2.0503 N   0  0  0  0  0  0  0  0  0  0  0  0
    0.3001    1.2459    2.4139 H   0  0  0  0  0  0  0  0  0  0  0  0
   -0.5192    3.2082    2.5456 C   0  0  0  0  0  0  0  0  0  0  0  0
   -1.5166    3.3903    2.9518 H   0  0  0  0  0  0  0  0  0  0  0  0
    0.2240    3.3791    3.3257 H   0  0  0  0  0  0  0  0  0  0  0  0
   -0.3477    3.9067    1.7239 H   0  0  0  0  0  0  0  0  0  0  0  0
  5  6  2  0  0  0  0
  5  7  1  0  0  0  0
  2  3  1  0  0  0  0
  2  4  1  0  0  0  0
  2  5  1  0  0  0  0
  1  2  1  0  0  0  0
 26 27  2  0  0  0  0
 26 28  1  0  0  0  0
 23 24  1  0  0  0  0
 23 25  1  0  0  0  0
 20 21  1  0  0  0  0
 20 22  1  0  0  0  0
 20 23  1  0  0  0  0
 17 18  1  0  0  0  0
 17 19  1  0  0  0  0
 17 20  1  0  0  0  0
 14 15  1  0  0  0  0
 14 16  1  0  0  0  0
 14 17  1  0  0  0  0
 11 12  1  0  0  0  0
 11 13  1  0  0  0  0
 11 14  1  0  0  0  0
  9 10  1  0  0  0  0
  9 11  1  0  0  0  0
  9 26  1  0  0  0  0
  7  8  1  0  0  0  0
  7  9  1  0  0  0  0
 30 31  1  0  0  0  0
 30 32  1  0  0  0  0
 30 33  1  0  0  0  0
 28 29  1  0  0  0  0
 28 30  1  0  0  0  0
M  END
$$$$
default_name
  -OEChem-02102213163D

 33 32  0     1  0  0  0  0  0999 V2000
   -3.8420   -3.6918    1.5562 H   0  0  0  0  0  0  0  0  0  0  0  0
   -3.8430   -2.7008    1.1032 C   0  0  0  0  0  0  0  0  0  0  0  0
   -4.5510   -2.0608    1.6242 H   0  0  0  0  0  0  0  0  0  0  0  0
   -4.1140   -2.7798    0.0522 H   0  0  0  0  0  0  0  0  0  0  0  0
   -2.4570   -2.1098    1.2172 C   0  0  0  0  0  0  0  0  0  0  0  0
   -1.5600   -2.7438    1.7572 O   0  0  0  0  0  0  0  0  0  0  0  0
   -2.2870   -0.8898    0.7102 N   0  0  0  0  0  0  0  0  0  0  0  0
   -3.0820   -0.4218    0.2992 H   0  0  0  0  0  0  0  0  0  0  0  0
   -1.0240   -0.1468    0.7262 C   0  0  1  0  0  0  0  0  0  0  0  0
   -0.3583   -0.6100    1.4558 H   0  0  0  0  0  0  0  0  0  0  0  0
   -0.3739   -0.2459   -0.6675 C   0  0  0  0  0  0  0  0  0  0  0  0
   -1.1423   -0.0667   -1.4224 H   0  0  0  0  0  0  0  0  0  0  0  0
    0.3870    0.5296   -0.7654 H   0  0  0  0  0  0  0  0  0  0  0  0
    0.2614   -1.6171   -0.9460 C   0  0  0  0  0  0  0  0  0  0  0  0
    1.3016   -1.6117   -0.6191 H   0  0  0  0  0  0  0  0  0  0  0  0
   -0.2832   -2.3842   -0.3925 H   0  0  0  0  0  0  0  0  0  0  0  0
    0.2164   -1.9474   -2.4422 C   0  0  0  0  0  0  0  0  0  0  0  0
   -0.8183   -1.9489   -2.7862 H   0  0  0  0  0  0  0  0  0  0  0  0
    0.7796   -1.1967   -2.9974 H   0  0  0  0  0  0  0  0  0  0  0  0
    0.8309   -3.3241   -2.6878 C   0  0  0  0  0  0  0  0  0  0  0  0
    1.8698   -3.3196   -2.3621 H   0  0  0  0  0  0  0  0  0  0  0  0
    0.2807   -4.0727   -2.1201 H   0  0  0  0  0  0  0  0  0  0  0  0
    0.7824   -3.6826   -4.1100 N   0  0  0  0  0  0  0  0  0  0  0  0
    1.2081   -4.5890   -4.2372 H   0  0  0  0  0  0  0  0  0  0  0  0
   -0.1815   -3.7195   -4.4097 H   0  0  0  0  0  0  0  0  0  0  0  0
   -1.2712    1.3099    1.1517 C   0  0  0  0  0  0  0  0  0  0  0  0
   -2.2039    1.9448    0.6639 O   0  0  0  0  0  0  0  0  0  0  0  0
   -0.4306    1.8354    2.0503 N   0  0  0  0  0  0  0  0  0  0  0  0
    0.3001    1.2459    2.4139 H   0  0  0  0  0  0  0  0  0  0  0  0
   -0.5192    3.2082    2.5456 C   0  0  0  0  0  0  0  0  0  0  0  0
   -1.5166    3.3903    2.9518 H   0  0  0  0  0  0  0  0  0  0  0  0
    0.2240    3.3791    3.3257 H   0  0  0  0  0  0  0  0  0  0  0  0
   -0.3477    3.9067    1.7239 H   0  0  0  0  0  0  0  0  0  0  0  0
  5  6  2  0  0  0  0
  5  7  1  0  0  0  0
  2  3  1  0  0  0  0
  2  4  1  0  0  0  0
  2  5  1  0  0  0  0
  1  2  1  0  0  0  0
 26 27  2  0  0  0  0
 26 28  1  0  0  0  0
 23 24  1  0  0  0  0
 23 25  1  0  0  0  0
 20 21  1  0  0  0  0
 20 22  1  0  0  0  0
 20 23  1  0  0  0  0
 17 18  1  0  0  0  0
 17 19  1  0  0  0  0
 17 20  1  0  0  0  0
 14 15  1  0  0  0  0
 14 16  1  0  0  0  0
 14 17  1  0  0  0  0
 11 12  1  0  0  0  0
 11 13  1  0  0  0  0
 11 14  1  0  0  0  0
  9 10  1  0  0  0  0
  9 11  1  0  0  0  0
  9 26  1  0  0  0  0
  7  8  1  0  0  0  0
  7  9  1  0  0  0  0
 30 31  1  0  0  0  0
 30 32  1  0  0  0  0
 30 33  1  0  0  0  0
 28 29  1  0  0  0  0
 28 30  1  0  0  0  0
M  END
$$$$
default_name
  -OEChem-02102213163D

 33 32  0     1  0  0  0  0  0999 V2000
   -3.8420   -3.6918    1.5562 H   0  0  0  0  0  0  0  0  0  0  0  0
   -3.8430   -2.7008    1.1032 C   0  0  0  0  0  0  0  0  0  0  0  0
   -4.5510   -2.0608    1.6242 H   0  0  0  0  0  0  0  0  0  0  0  0
   -4.1140   -2.7798    0.0522 H   0  0  0  0  0  0  0  0  0  0  0  0
   -2.4570   -2.1098    1.2172 C   0  0  0  0  0  0  0  0  0  0  0  0
   -1.5600   -2.7438    1.7572 O   0  0  0  0  0  0  0  0  0  0  0  0
   -2.2870   -0.8898    0.7102 N   0  0  0  0  0  0  0  0  0  0  0  0
   -3.0820   -0.4218    0.2992 H   0  0  0  0  0  0  0  0  0  0  0  0
   -1.0240   -0.1468    0.7262 C   0  0  1  0  0  0  0  0  0  0  0  0
   -0.3583   -0.6100    1.4558 H   0  0  0  0  0  0  0  0  0  0  0  0
   -0.3739   -0.2459   -0.6675 C   0  0  0  0  0  0  0  0  0  0  0  0
   -1.1423   -0.0667   -1.4224 H   0  0  0  0  0  0  0  0  0  0  0  0
    0.3870    0.5296   -0.7654 H   0  0  0  0  0  0  0  0  0  0  0  0
    0.2614   -1.6171   -0.9460 C   0  0  0  0  0  0  0  0  0  0  0  0
    1.1961   -1.7068   -0.3917 H   0  0  0  0  0  0  0  0  0  0  0  0
   -0.4234   -2.4026   -0.6215 H   0  0  0  0  0  0  0  0  0  0  0  0
    0.5557   -1.7906   -2.4403 C   0  0  0  0  0  0  0  0  0  0  0  0
   -0.3695   -1.6956   -3.0095 H   0  0  0  0  0  0  0  0  0  0  0  0
    1.2584   -1.0222   -2.7641 H   0  0  0  0  0  0  0  0  0  0  0  0
    1.1629   -3.1693   -2.6924 C   0  0  0  0  0  0  0  0  0  0  0  0
    2.0966   -3.2597   -2.1396 H   0  0  0  0  0  0  0  0  0  0  0  0
    0.4700   -3.9376   -2.3533 H   0  0  0  0  0  0  0  0  0  0  0  0
    1.4356   -3.3781   -4.1191 N   0  0  0  0  0  0  0  0  0  0  0  0
    1.8477   -4.2906   -4.2469 H   0  0  0  0  0  0  0  0  0  0  0  0
    0.5676   -3.3270   -4.6333 H   0  0  0  0  0  0  0  0  0  0  0  0
   -1.2712    1.3099    1.1517 C   0  0  0  0  0  0  0  0  0  0  0  0
   -2.2039    1.9448    0.6639 O   0  0  0  0  0  0  0  0  0  0  0  0
   -0.4306    1.8354    2.0503 N   0  0  0  0  0  0  0  0  0  0  0  0
    0.3001    1.2459    2.4139 H   0  0  0  0  0  0  0  0  0  0  0  0
   -0.5192    3.2082    2.5456 C   0  0  0  0  0  0  0  0  0  0  0  0
   -1.5166    3.3903    2.9518 H   0  0  0  0  0  0  0  0  0  0  0  0
    0.2240    3.3791    3.3257 H   0  0  0  0  0  0  0  0  0  0  0  0
   -0.3477    3.9067    1.7239 H   0  0  0  0  0  0  0  0  0  0  0  0
  5  6  2  0  0  0  0
  5  7  1  0  0  0  0
  2  3  1  0  0  0  0
  2  4  1  0  0  0  0
  2  5  1  0  0  0  0
  1  2  1  0  0  0  0
 26 27  2  0  0  0  0
 26 28  1  0  0  0  0
 23 24  1  0  0  0  0
 23 25  1  0  0  0  0
 20 21  1  0  0  0  0
 20 22  1  0  0  0  0
 20 23  1  0  0  0  0
 17 18  1  0  0  0  0
 17 19  1  0  0  0  0
 17 20  1  0  0  0  0
 14 15  1  0  0  0  0
 14 16  1  0  0  0  0
 14 17  1  0  0  0  0
 11 12  1  0  0  0  0
 11 13  1  0  0  0  0
 11 14  1  0  0  0  0
  9 10  1  0  0  0  0
  9 11  1  0  0  0  0
  9 26  1  0  0  0  0
  7  8  1  0  0  0  0
  7  9  1  0  0  0  0
 30 31  1  0  0  0  0
 30 32  1  0  0  0  0
 30 33  1  0  0  0  0
 28 29  1  0  0  0  0
 28 30  1  0  0  0  0
M  END
$$$$
default_name
  -OEChem-02102213163D

 33 32  0     1  0  0  0  0  0999 V2000
   -3.8420   -3.6918    1.5562 H   0  0  0  0  0  0  0  0  0  0  0  0
   -3.8430   -2.7008    1.1032 C   0  0  0  0  0  0  0  0  0  0  0  0
   -4.5510   -2.0608    1.6242 H   0  0  0  0  0  0  0  0  0  0  0  0
   -4.1140   -2.7798    0.0522 H   0  0  0  0  0  0  0  0  0  0  0  0
   -2.4570   -2.1098    1.2172 C   0  0  0  0  0  0  0  0  0  0  0  0
   -1.5600   -2.7438    1.7572 O   0  0  0  0  0  0  0  0  0  0  0  0
   -2.2870   -0.8898    0.7102 N   0  0  0  0  0  0  0  0  0  0  0  0
   -3.0820   -0.4218    0.2992 H   0  0  0  0  0  0  0  0  0  0  0  0
   -1.0240   -0.1468    0.7262 C   0  0  1  0  0  0  0  0  0  0  0  0
   -0.3583   -0.6100    1.4558 H   0  0  0  0  0  0  0  0  0  0  0  0
   -0.3739   -0.2459   -0.6675 C   0  0  0  0  0  0  0  0  0  0  0  0
   -1.0566    0.1887   -1.4006 H   0  0  0  0  0  0  0  0  0  0  0  0
    0.5494    0.3349   -0.6758 H   0  0  0  0  0  0  0  0  0  0  0  0
   -0.0678   -1.6900   -1.0944 C   0  0  0  0  0  0  0  0  0  0  0  0
    0.6174   -2.1457   -0.3791 H   0  0  0  0  0  0  0  0  0  0  0  0
   -0.9966   -2.2630   -1.1144 H   0  0  0  0  0  0  0  0  0  0  0  0
    0.5761   -1.7248   -2.4851 C   0  0  0  0  0  0  0  0  0  0  0  0
   -0.0949   -1.2649   -3.2112 H   0  0  0  0  0  0  0  0  0  0  0  0
    1.5167   -1.1737   -2.4642 H   0  0  0  0  0  0  0  0  0  0  0  0
    0.8468   -3.1712   -2.8949 C   0  0  0  0  0  0  0  0  0  0  0  0
    1.5314   -3.6269   -2.1814 H   0  0  0  0  0  0  0  0  0  0  0  0
   -0.0890   -3.7275   -2.8991 H   0  0  0  0  0  0  0  0  0  0  0  0
    1.4426   -3.2423   -4.2340 N   0  0  0  0  0  0  0  0  0  0  0  0
    1.6204   -4.2086   -4.4659 H   0  0  0  0  0  0  0  0  0  0  0  0
    0.7976   -2.8495   -4.9049 H   0  0  0  0  0  0  0  0  0  0  0  0
   -1.2712    1.3099    1.1517 C   0  0  0  0  0  0  0  0  0  0  0  0
   -2.2039    1.9448    0.6639 O   0  0  0  0  0  0  0  0  0  0  0  0
   -0.4306    1.8354    2.0503 N   0  0  0  0  0  0  0  0  0  0  0  0
    0.3001    1.2459    2.4139 H   0  0  0  0  0  0  0  0  0  0  0  0
   -0.5192    3.2082    2.5456 C   0  0  0  0  0  0  0  0  0  0  0  0
   -1.5166    3.3903    2.9518 H   0  0  0  0  0  0  0  0  0  0  0  0
    0.2240    3.3791    3.3257 H   0  0  0  0  0  0  0  0  0  0  0  0
   -0.3477    3.9067    1.7239 H   0  0  0  0  0  0  0  0  0  0  0  0
  5  6  2  0  0  0  0
  5  7  1  0  0  0  0
  2  3  1  0  0  0  0
  2  4  1  0  0  0  0
  2  5  1  0  0  0  0
  1  2  1  0  0  0  0
 26 27  2  0  0  0  0
 26 28  1  0  0  0  0
 23 24  1  0  0  0  0
 23 25  1  0  0  0  0
 20 21  1  0  0  0  0
 20 22  1  0  0  0  0
 20 23  1  0  0  0  0
 17 18  1  0  0  0  0
 17 19  1  0  0  0  0
 17 20  1  0  0  0  0
 14 15  1  0  0  0  0
 14 16  1  0  0  0  0
 14 17  1  0  0  0  0
 11 12  1  0  0  0  0
 11 13  1  0  0  0  0
 11 14  1  0  0  0  0
  9 10  1  0  0  0  0
  9 11  1  0  0  0  0
  9 26  1  0  0  0  0
  7  8  1  0  0  0  0
  7  9  1  0  0  0  0
 30 31  1  0  0  0  0
 30 32  1  0  0  0  0
 30 33  1  0  0  0  0
 28 29  1  0  0  0  0
 28 30  1  0  0  0  0
M  END
$$$$
default_name
  -OEChem-02102213163D

 33 32  0     1  0  0  0  0  0999 V2000
   -3.8420   -3.6918    1.5562 H   0  0  0  0  0  0  0  0  0  0  0  0
   -3.8430   -2.7008    1.1032 C   0  0  0  0  0  0  0  0  0  0  0  0
   -4.5510   -2.0608    1.6242 H   0  0  0  0  0  0  0  0  0  0  0  0
   -4.1140   -2.7798    0.0522 H   0  0  0  0  0  0  0  0  0  0  0  0
   -2.4570   -2.1098    1.2172 C   0  0  0  0  0  0  0  0  0  0  0  0
   -1.5600   -2.7438    1.7572 O   0  0  0  0  0  0  0  0  0  0  0  0
   -2.2870   -0.8898    0.7102 N   0  0  0  0  0  0  0  0  0  0  0  0
   -3.0820   -0.4218    0.2992 H   0  0  0  0  0  0  0  0  0  0  0  0
   -1.0240   -0.1468    0.7262 C   0  0  1  0  0  0  0  0  0  0  0  0
   -0.3583   -0.6100    1.4558 H   0  0  0  0  0  0  0  0  0  0  0  0
   -0.3739   -0.2459   -0.6675 C   0  0  0  0  0  0  0  0  0  0  0  0
   -1.0566    0.1887   -1.4006 H   0  0  0  0  0  0  0  0  0  0  0  0
    0.5494    0.3349   -0.6758 H   0  0  0  0  0  0  0  0  0  0  0  0
   -0.0678   -1.6900   -1.0944 C   0  0  0  0  0  0  0  0  0  0  0  0
    0.3898   -2.2280   -0.2637 H   0  0  0  0  0  0  0  0  0  0  0  0
   -0.9989   -2.1871   -1.3726 H   0  0  0  0  0  0  0  0  0  0  0  0
    0.8936   -1.7158   -2.2881 C   0  0  0  0  0  0  0  0  0  0  0  0
    0.4527   -1.1741   -3.1255 H   0  0  0  0  0  0  0  0  0  0  0  0
    1.8344   -1.2413   -2.0075 H   0  0  0  0  0  0  0  0  0  0  0  0
    1.1612   -3.1600   -2.7071 C   0  0  0  0  0  0  0  0  0  0  0  0
    1.6186   -3.6980   -1.8783 H   0  0  0  0  0  0  0  0  0  0  0  0
    0.2205   -3.6408   -2.9706 H   0  0  0  0  0  0  0  0  0  0  0  0
    2.0610   -3.2204   -3.8646 N   0  0  0  0  0  0  0  0  0  0  0  0
    2.2265   -4.1868   -4.1047 H   0  0  0  0  0  0  0  0  0  0  0  0
    1.6274   -2.7501   -4.6463 H   0  0  0  0  0  0  0  0  0  0  0  0
   -1.2712    1.3099    1.1517 C   0  0  0  0  0  0  0  0  0  0  0  0
   -2.2039    1.9448    0.6639 O   0  0  0  0  0  0  0  0  0  0  0  0
   -0.4306    1.8354    2.0503 N   0  0  0  0  0  0  0  0  0  0  0  0
    0.3001    1.2459    2.4139 H   0  0  0  0  0  0  0  0  0  0  0  0
   -0.5192    3.2082    2.5456 C   0  0  0  0  0  0  0  0  0  0  0  0
   -1.5166    3.3903    2.9518 H   0  0  0  0  0  0  0  0  0  0  0  0
    0.2240    3.3791    3.3257 H   0  0  0  0  0  0  0  0  0  0  0  0
   -0.3477    3.9067    1.7239 H   0  0  0  0  0  0  0  0  0  0  0  0
  5  6  2  0  0  0  0
  5  7  1  0  0  0  0
  2  3  1  0  0  0  0
  2  4  1  0  0  0  0
  2  5  1  0  0  0  0
  1  2  1  0  0  0  0
 26 27  2  0  0  0  0
 26 28  1  0  0  0  0
 23 24  1  0  0  0  0
 23 25  1  0  0  0  0
 20 21  1  0  0  0  0
 20 22  1  0  0  0  0
 20 23  1  0  0  0  0
 17 18  1  0  0  0  0
 17 19  1  0  0  0  0
 17 20  1  0  0  0  0
 14 15  1  0  0  0  0
 14 16  1  0  0  0  0
 14 17  1  0  0  0  0
 11 12  1  0  0  0  0
 11 13  1  0  0  0  0
 11 14  1  0  0  0  0
  9 10  1  0  0  0  0
  9 11  1  0  0  0  0
  9 26  1  0  0  0  0
  7  8  1  0  0  0  0
  7  9  1  0  0  0  0
 30 31  1  0  0  0  0
 30 32  1  0  0  0  0
 30 33  1  0  0  0  0
 28 29  1  0  0  0  0
 28 30  1  0  0  0  0
M  END
$$$$
default_name
  -OEChem-02102213163D

 33 32  0     1  0  0  0  0  0999 V2000
   -3.8420   -3.6918    1.5562 H   0  0  0  0  0  0  0  0  0  0  0  0
   -3.8430   -2.7008    1.1032 C   0  0  0  0  0  0  0  0  0  0  0  0
   -4.5510   -2.0608    1.6242 H   0  0  0  0  0  0  0  0  0  0  0  0
   -4.1140   -2.7798    0.0522 H   0  0  0  0  0  0  0  0  0  0  0  0
   -2.4570   -2.1098    1.2172 C   0  0  0  0  0  0  0  0  0  0  0  0
   -1.5600   -2.7438    1.7572 O   0  0  0  0  0  0  0  0  0  0  0  0
   -2.2870   -0.8898    0.7102 N   0  0  0  0  0  0  0  0  0  0  0  0
   -3.0820   -0.4218    0.2992 H   0  0  0  0  0  0  0  0  0  0  0  0
   -1.0240   -0.1468    0.7262 C   0  0  1  0  0  0  0  0  0  0  0  0
   -0.3583   -0.6100    1.4558 H   0  0  0  0  0  0  0  0  0  0  0  0
   -0.3739   -0.2459   -0.6675 C   0  0  0  0  0  0  0  0  0  0  0  0
   -1.0566    0.1887   -1.4006 H   0  0  0  0  0  0  0  0  0  0  0  0
    0.5494    0.3349   -0.6758 H   0  0  0  0  0  0  0  0  0  0  0  0
   -0.0678   -1.6900   -1.0944 C   0  0  0  0  0  0  0  0  0  0  0  0
    0.1360   -2.2972   -0.2120 H   0  0  0  0  0  0  0  0  0  0  0  0
   -0.9328   -2.1004   -1.6186 H   0  0  0  0  0  0  0  0  0  0  0  0
    1.1530   -1.7400   -2.0201 C   0  0  0  0  0  0  0  0  0  0  0  0
    0.9673   -1.1303   -2.9048 H   0  0  0  0  0  0  0  0  0  0  0  0
    2.0254   -1.3530   -1.4926 H   0  0  0  0  0  0  0  0  0  0  0  0
    1.4199   -3.1816   -2.4487 C   0  0  0  0  0  0  0  0  0  0  0  0
    1.6240   -3.7886   -1.5681 H   0  0  0  0  0  0  0  0  0  0  0  0
    0.5431   -3.5755   -2.9600 H   0  0  0  0  0  0  0  0  0  0  0  0
    2.5701   -3.2628   -3.3563 N   0  0  0  0  0  0  0  0  0  0  0  0
    2.7257   -4.2280   -3.6073 H   0  0  0  0  0  0  0  0  0  0  0  0
    2.3730   -2.7270   -4.1896 H   0  0  0  0  0  0  0  0  0  0  0  0
   -1.2712    1.3099    1.1517 C   0  0  0  0  0  0  0  0  0  0  0  0
   -2.2039    1.9448    0.6639 O   0  0  0  0  0  0  0  0  0  0  0  0
   -0.4306    1.8354    2.0503 N   0  0  0  0  0  0  0  0  0  0  0  0
    0.3001    1.2459    2.4139 H   0  0  0  0  0  0  0  0  0  0  0  0
   -0.5192    3.2082    2.5456 C   0  0  0  0  0  0  0  0  0  0  0  0
   -1.5166    3.3903    2.9518 H   0  0  0  0  0  0  0  0  0  0  0  0
    0.2240    3.3791    3.3257 H   0  0  0  0  0  0  0  0  0  0  0  0
   -0.3477    3.9067    1.7239 H   0  0  0  0  0  0  0  0  0  0  0  0
  5  6  2  0  0  0  0
  5  7  1  0  0  0  0
  2  3  1  0  0  0  0
  2  4  1  0  0  0  0
  2  5  1  0  0  0  0
  1  2  1  0  0  0  0
 26 27  2  0  0  0  0
 26 28  1  0  0  0  0
 23 24  1  0  0  0  0
 23 25  1  0  0  0  0
 20 21  1  0  0  0  0
 20 22  1  0  0  0  0
 20 23  1  0  0  0  0
 17 18  1  0  0  0  0
 17 19  1  0  0  0  0
 17 20  1  0  0  0  0
 14 15  1  0  0  0  0
 14 16  1  0  0  0  0
 14 17  1  0  0  0  0
 11 12  1  0  0  0  0
 11 13  1  0  0  0  0
 11 14  1  0  0  0  0
  9 10  1  0  0  0  0
  9 11  1  0  0  0  0
  9 26  1  0  0  0  0
  7  8  1  0  0  0  0
  7  9  1  0  0  0  0
 30 31  1  0  0  0  0
 30 32  1  0  0  0  0
 30 33  1  0  0  0  0
 28 29  1  0  0  0  0
 28 30  1  0  0  0  0
M  END
$$$$
default_name
  -OEChem-02102213163D

 33 32  0     1  0  0  0  0  0999 V2000
   -3.8420   -3.6918    1.5562 H   0  0  0  0  0  0  0  0  0  0  0  0
   -3.8430   -2.7008    1.1032 C   0  0  0  0  0  0  0  0  0  0  0  0
   -4.5510   -2.0608    1.6242 H   0  0  0  0  0  0  0  0  0  0  0  0
   -4.1140   -2.7798    0.0522 H   0  0  0  0  0  0  0  0  0  0  0  0
   -2.4570   -2.1098    1.2172 C   0  0  0  0  0  0  0  0  0  0  0  0
   -1.5600   -2.7438    1.7572 O   0  0  0  0  0  0  0  0  0  0  0  0
   -2.2870   -0.8898    0.7102 N   0  0  0  0  0  0  0  0  0  0  0  0
   -3.0820   -0.4218    0.2992 H   0  0  0  0  0  0  0  0  0  0  0  0
   -1.0240   -0.1468    0.7262 C   0  0  1  0  0  0  0  0  0  0  0  0
   -0.3583   -0.6100    1.4558 H   0  0  0  0  0  0  0  0  0  0  0  0
   -0.3739   -0.2459   -0.6675 C   0  0  0  0  0  0  0  0  0  0  0  0
   -1.0566    0.1887   -1.4006 H   0  0  0  0  0  0  0  0  0  0  0  0
    0.5494    0.3349   -0.6758 H   0  0  0  0  0  0  0  0  0  0  0  0
   -0.0678   -1.6900   -1.0944 C   0  0  0  0  0  0  0  0  0  0  0  0
   -0.1267   -2.3483   -0.2272 H   0  0  0  0  0  0  0  0  0  0  0  0
   -0.8028   -2.0087   -1.8357 H   0  0  0  0  0  0  0  0  0  0  0  0
    1.3367   -1.7958   -1.6994 C   0  0  0  0  0  0  0  0  0  0  0  0
    1.4139   -1.1363   -2.5643 H   0  0  0  0  0  0  0  0  0  0  0  0
    2.0765   -1.5012   -0.9545 H   0  0  0  0  0  0  0  0  0  0  0  0
    1.6055   -3.2343   -2.1372 C   0  0  0  0  0  0  0  0  0  0  0  0
    1.5473   -3.8925   -1.2718 H   0  0  0  0  0  0  0  0  0  0  0  0
    0.8569   -3.5362   -2.8679 H   0  0  0  0  0  0  0  0  0  0  0  0
    2.9352   -3.3665   -2.7436 N   0  0  0  0  0  0  0  0  0  0  0  0
    3.0840   -4.3294   -3.0076 H   0  0  0  0  0  0  0  0  0  0  0  0
    2.9839   -2.7819   -3.5659 H   0  0  0  0  0  0  0  0  0  0  0  0
   -1.2712    1.3099    1.1517 C   0  0  0  0  0  0  0  0  0  0  0  0
   -2.2039    1.9448    0.6639 O   0  0  0  0  0  0  0  0  0  0  0  0
   -0.4306    1.8354    2.0503 N   0  0  0  0  0  0  0  0  0  0  0  0
    0.3001    1.2459    2.4139 H   0  0  0  0  0  0  0  0  0  0  0  0
   -0.5192    3.2082    2.5456 C   0  0  0  0  0  0  0  0  0  0  0  0
   -1.5166    3.3903    2.9518 H   0  0  0  0  0  0  0  0  0  0  0  0
    0.2240    3.3791    3.3257 H   0  0  0  0  0  0  0  0  0  0  0  0
   -0.3477    3.9067    1.7239 H   0  0  0  0  0  0  0  0  0  0  0  0
  5  6  2  0  0  0  0
  5  7  1  0  0  0  0
  2  3  1  0  0  0  0
  2  4  1  0  0  0  0
  2  5  1  0  0  0  0
  1  2  1  0  0  0  0
 26 27  2  0  0  0  0
 26 28  1  0  0  0  0
 23 24  1  0  0  0  0
 23 25  1  0  0  0  0
 20 21  1  0  0  0  0
 20 22  1  0  0  0  0
 20 23  1  0  0  0  0
 17 18  1  0  0  0  0
 17 19  1  0  0  0  0
 17 20  1  0  0  0  0
 14 15  1  0  0  0  0
 14 16  1  0  0  0  0
 14 17  1  0  0  0  0
 11 12  1  0  0  0  0
 11 13  1  0  0  0  0
 11 14  1  0  0  0  0
  9 10  1  0  0  0  0
  9 11  1  0  0  0  0
  9 26  1  0  0  0  0
  7  8  1  0  0  0  0
  7  9  1  0  0  0  0
 30 31  1  0  0  0  0
 30 32  1  0  0  0  0
 30 33  1  0  0  0  0
 28 29  1  0  0  0  0
 28 30  1  0  0  0  0
M  END
$$$$
default_name
  -OEChem-02102213163D

 33 32  0     1  0  0  0  0  0999 V2000
   -3.8420   -3.6918    1.5562 H   0  0  0  0  0  0  0  0  0  0  0  0
   -3.8430   -2.7008    1.1032 C   0  0  0  0  0  0  0  0  0  0  0  0
   -4.5510   -2.0608    1.6242 H   0  0  0  0  0  0  0  0  0  0  0  0
   -4.1140   -2.7798    0.0522 H   0  0  0  0  0  0  0  0  0  0  0  0
   -2.4570   -2.1098    1.2172 C   0  0  0  0  0  0  0  0  0  0  0  0
   -1.5600   -2.7438    1.7572 O   0  0  0  0  0  0  0  0  0  0  0  0
   -2.2870   -0.8898    0.7102 N   0  0  0  0  0  0  0  0  0  0  0  0
   -3.0820   -0.4218    0.2992 H   0  0  0  0  0  0  0  0  0  0  0  0
   -1.0240   -0.1468    0.7262 C   0  0  1  0  0  0  0  0  0  0  0  0
   -0.3583   -0.6100    1.4558 H   0  0  0  0  0  0  0  0  0  0  0  0
   -0.3739   -0.2459   -0.6675 C   0  0  0  0  0  0  0  0  0  0  0  0
   -1.0566    0.1887   -1.4006 H   0  0  0  0  0  0  0  0  0  0  0  0
    0.5494    0.3349   -0.6758 H   0  0  0  0  0  0  0  0  0  0  0  0
   -0.0678   -1.6900   -1.0944 C   0  0  0  0  0  0  0  0  0  0  0  0
   -0.3805   -2.3781   -0.3085 H   0  0  0  0  0  0  0  0  0  0  0  0
   -0.6180   -1.9182   -2.0091 H   0  0  0  0  0  0  0  0  0  0  0  0
    1.4321   -1.8796   -1.3478 C   0  0  0  0  0  0  0  0  0  0  0  0
    1.7619   -1.1917   -2.1270 H   0  0  0  0  0  0  0  0  0  0  0  0
    1.9845   -1.6758   -0.4300 H   0  0  0  0  0  0  0  0  0  0  0  0
    1.7051   -3.3146   -1.7940 C   0  0  0  0  0  0  0  0  0  0  0  0
    1.3936   -4.0026   -1.0096 H   0  0  0  0  0  0  0  0  0  0  0  0
    1.1404   -3.5256   -2.7006 H   0  0  0  0  0  0  0  0  0  0  0  0
    3.1313   -3.5245   -2.0684 N   0  0  0  0  0  0  0  0  0  0  0  0
    3.2769   -4.4840   -2.3463 H   0  0  0  0  0  0  0  0  0  0  0  0
    3.4183   -2.9110   -2.8177 H   0  0  0  0  0  0  0  0  0  0  0  0
   -1.2712    1.3099    1.1517 C   0  0  0  0  0  0  0  0  0  0  0  0
   -2.2039    1.9448    0.6639 O   0  0  0  0  0  0  0  0  0  0  0  0
   -0.4306    1.8354    2.0503 N   0  0  0  0  0  0  0  0  0  0  0  0
    0.3001    1.2459    2.4139 H   0  0  0  0  0  0  0  0  0  0  0  0
   -0.5192    3.2082    2.5456 C   0  0  0  0  0  0  0  0  0  0  0  0
   -1.5166    3.3903    2.9518 H   0  0  0  0  0  0  0  0  0  0  0  0
    0.2240    3.3791    3.3257 H   0  0  0  0  0  0  0  0  0  0  0  0
   -0.3477    3.9067    1.7239 H   0  0  0  0  0  0  0  0  0  0  0  0
  5  6  2  0  0  0  0
  5  7  1  0  0  0  0
  2  3  1  0  0  0  0
  2  4  1  0  0  0  0
  2  5  1  0  0  0  0
  1  2  1  0  0  0  0
 26 27  2  0  0  0  0
 26 28  1  0  0  0  0
 23 24  1  0  0  0  0
 23 25  1  0  0  0  0
 20 21  1  0  0  0  0
 20 22  1  0  0  0  0
 20 23  1  0  0  0  0
 17 18  1  0  0  0  0
 17 19  1  0  0  0  0
 17 20  1  0  0  0  0
 14 15  1  0  0  0  0
 14 16  1  0  0  0  0
 14 17  1  0  0  0  0
 11 12  1  0  0  0  0
 11 13  1  0  0  0  0
 11 14  1  0  0  0  0
  9 10  1  0  0  0  0
  9 11  1  0  0  0  0
  9 26  1  0  0  0  0
  7  8  1  0  0  0  0
  7  9  1  0  0  0  0
 30 31  1  0  0  0  0
 30 32  1  0  0  0  0
 30 33  1  0  0  0  0
 28 29  1  0  0  0  0
 28 30  1  0  0  0  0
M  END
$$$$
default_name
  -OEChem-02102213163D

 33 32  0     1  0  0  0  0  0999 V2000
   -3.8420   -3.6918    1.5562 H   0  0  0  0  0  0  0  0  0  0  0  0
   -3.8430   -2.7008    1.1032 C   0  0  0  0  0  0  0  0  0  0  0  0
   -4.5510   -2.0608    1.6242 H   0  0  0  0  0  0  0  0  0  0  0  0
   -4.1140   -2.7798    0.0522 H   0  0  0  0  0  0  0  0  0  0  0  0
   -2.4570   -2.1098    1.2172 C   0  0  0  0  0  0  0  0  0  0  0  0
   -1.5600   -2.7438    1.7572 O   0  0  0  0  0  0  0  0  0  0  0  0
   -2.2870   -0.8898    0.7102 N   0  0  0  0  0  0  0  0  0  0  0  0
   -3.0820   -0.4218    0.2992 H   0  0  0  0  0  0  0  0  0  0  0  0
   -1.0240   -0.1468    0.7262 C   0  0  1  0  0  0  0  0  0  0  0  0
   -0.3583   -0.6100    1.4558 H   0  0  0  0  0  0  0  0  0  0  0  0
   -0.3739   -0.2459   -0.6675 C   0  0  0  0  0  0  0  0  0  0  0  0
   -1.0566    0.1887   -1.4006 H   0  0  0  0  0  0  0  0  0  0  0  0
    0.5494    0.3349   -0.6758 H   0  0  0  0  0  0  0  0  0  0  0  0
   -0.0678   -1.6900   -1.0944 C   0  0  0  0  0  0  0  0  0  0  0  0
   -0.6080   -2.3844   -0.4503 H   0  0  0  0  0  0  0  0  0  0  0  0
   -0.3907   -1.8352   -2.1269 H   0  0  0  0  0  0  0  0  0  0  0  0
    1.4327   -1.9854   -0.9893 C   0  0  0  0  0  0  0  0  0  0  0  0
    1.9878   -1.2929   -1.6228 H   0  0  0  0  0  0  0  0  0  0  0  0
    1.7554   -1.8649    0.0452 H   0  0  0  0  0  0  0  0  0  0  0  0
    1.7122   -3.4171   -1.4423 C   0  0  0  0  0  0  0  0  0  0  0  0
    1.1735   -4.1114   -0.7994 H   0  0  0  0  0  0  0  0  0  0  0  0
    1.3743   -3.5443   -2.4695 H   0  0  0  0  0  0  0  0  0  0  0  0
    3.1452   -3.7261   -1.3766 N   0  0  0  0  0  0  0  0  0  0  0  0
    3.2912   -4.6812   -1.6687 H   0  0  0  0  0  0  0  0  0  0  0  0
    3.6467   -3.1055   -1.9960 H   0  0  0  0  0  0  0  0  0  0  0  0
   -1.2712    1.3099    1.1517 C   0  0  0  0  0  0  0  0  0  0  0  0
   -2.2039    1.9448    0.6639 O   0  0  0  0  0  0  0  0  0  0  0  0
   -0.4306    1.8354    2.0503 N   0  0  0  0  0  0  0  0  0  0  0  0
    0.3001    1.2459    2.4139 H   0  0  0  0  0  0  0  0  0  0  0  0
   -0.5192    3.2082    2.5456 C   0  0  0  0  0  0  0  0  0  0  0  0
   -1.5166    3.3903    2.9518 H   0  0  0  0  0  0  0  0  0  0  0  0
    0.2240    3.3791    3.3257 H   0  0  0  0  0  0  0  0  0  0  0  0
   -0.3477    3.9067    1.7239 H   0  0  0  0  0  0  0  0  0  0  0  0
  5  6  2  0  0  0  0
  5  7  1  0  0  0  0
  2  3  1  0  0  0  0
  2  4  1  0  0  0  0
  2  5  1  0  0  0  0
  1  2  1  0  0  0  0
 26 27  2  0  0  0  0
 26 28  1  0  0  0  0
 23 24  1  0  0  0  0
 23 25  1  0  0  0  0
 20 21  1  0  0  0  0
 20 22  1  0  0  0  0
 20 23  1  0  0  0  0
 17 18  1  0  0  0  0
 17 19  1  0  0  0  0
 17 20  1  0  0  0  0
 14 15  1  0  0  0  0
 14 16  1  0  0  0  0
 14 17  1  0  0  0  0
 11 12  1  0  0  0  0
 11 13  1  0  0  0  0
 11 14  1  0  0  0  0
  9 10  1  0  0  0  0
  9 11  1  0  0  0  0
  9 26  1  0  0  0  0
  7  8  1  0  0  0  0
  7  9  1  0  0  0  0
 30 31  1  0  0  0  0
 30 32  1  0  0  0  0
 30 33  1  0  0  0  0
 28 29  1  0  0  0  0
 28 30  1  0  0  0  0
M  END
$$$$
default_name
  -OEChem-02102213163D

 33 32  0     1  0  0  0  0  0999 V2000
   -3.8420   -3.6918    1.5562 H   0  0  0  0  0  0  0  0  0  0  0  0
   -3.8430   -2.7008    1.1032 C   0  0  0  0  0  0  0  0  0  0  0  0
   -4.5510   -2.0608    1.6242 H   0  0  0  0  0  0  0  0  0  0  0  0
   -4.1140   -2.7798    0.0522 H   0  0  0  0  0  0  0  0  0  0  0  0
   -2.4570   -2.1098    1.2172 C   0  0  0  0  0  0  0  0  0  0  0  0
   -1.5600   -2.7438    1.7572 O   0  0  0  0  0  0  0  0  0  0  0  0
   -2.2870   -0.8898    0.7102 N   0  0  0  0  0  0  0  0  0  0  0  0
   -3.0820   -0.4218    0.2992 H   0  0  0  0  0  0  0  0  0  0  0  0
   -1.0240   -0.1468    0.7262 C   0  0  1  0  0  0  0  0  0  0  0  0
   -0.3583   -0.6100    1.4558 H   0  0  0  0  0  0  0  0  0  0  0  0
   -0.3739   -0.2459   -0.6675 C   0  0  0  0  0  0  0  0  0  0  0  0
   -1.0566    0.1887   -1.4006 H   0  0  0  0  0  0  0  0  0  0  0  0
    0.5494    0.3349   -0.6758 H   0  0  0  0  0  0  0  0  0  0  0  0
   -0.0678   -1.6900   -1.0944 C   0  0  0  0  0  0  0  0  0  0  0  0
   -0.7937   -2.3668   -0.6429 H   0  0  0  0  0  0  0  0  0  0  0  0
   -0.1366   -1.7653   -2.1811 H   0  0  0  0  0  0  0  0  0  0  0  0
    1.3385   -2.1062   -0.6483 C   0  0  0  0  0  0  0  0  0  0  0  0
    2.0761   -1.4328   -1.0861 H   0  0  0  0  0  0  0  0  0  0  0  0
    1.4049   -2.0555    0.4388 H   0  0  0  0  0  0  0  0  0  0  0  0
    1.6260   -3.5347   -1.1062 C   0  0  0  0  0  0  0  0  0  0  0  0
    0.9019   -4.2115   -0.6555 H   0  0  0  0  0  0  0  0  0  0  0  0
    1.5427   -3.5911   -2.1903 H   0  0  0  0  0  0  0  0  0  0  0  0
    2.9758   -3.9574   -0.7154 N   0  0  0  0  0  0  0  0  0  0  0  0
    3.1261   -4.9078   -1.0208 H   0  0  0  0  0  0  0  0  0  0  0  0
    3.6534   -3.3521   -1.1568 H   0  0  0  0  0  0  0  0  0  0  0  0
   -1.2712    1.3099    1.1517 C   0  0  0  0  0  0  0  0  0  0  0  0
   -2.2039    1.9448    0.6639 O   0  0  0  0  0  0  0  0  0  0  0  0
   -0.4306    1.8354    2.0503 N   0  0  0  0  0  0  0  0  0  0  0  0
    0.3001    1.2459    2.4139 H   0  0  0  0  0  0  0  0  0  0  0  0
   -0.5192    3.2082    2.5456 C   0  0  0  0  0  0  0  0  0  0  0  0
   -1.5166    3.3903    2.9518 H   0  0  0  0  0  0  0  0  0  0  0  0
    0.2240    3.3791    3.3257 H   0  0  0  0  0  0  0  0  0  0  0  0
   -0.3477    3.9067    1.7239 H   0  0  0  0  0  0  0  0  0  0  0  0
  5  6  2  0  0  0  0
  5  7  1  0  0  0  0
  2  3  1  0  0  0  0
  2  4  1  0  0  0  0
  2  5  1  0  0  0  0
  1  2  1  0  0  0  0
 26 27  2  0  0  0  0
 26 28  1  0  0  0  0
 23 24  1  0  0  0  0
 23 25  1  0  0  0  0
 20 21  1  0  0  0  0
 20 22  1  0  0  0  0
 20 23  1  0  0  0  0
 17 18  1  0  0  0  0
 17 19  1  0  0  0  0
 17 20  1  0  0  0  0
 14 15  1  0  0  0  0
 14 16  1  0  0  0  0
 14 17  1  0  0  0  0
 11 12  1  0  0  0  0
 11 13  1  0  0  0  0
 11 14  1  0  0  0  0
  9 10  1  0  0  0  0
  9 11  1  0  0  0  0
  9 26  1  0  0  0  0
  7  8  1  0  0  0  0
  7  9  1  0  0  0  0
 30 31  1  0  0  0  0
 30 32  1  0  0  0  0
 30 33  1  0  0  0  0
 28 29  1  0  0  0  0
 28 30  1  0  0  0  0
M  END
$$$$
default_name
  -OEChem-02102213163D

 33 32  0     1  0  0  0  0  0999 V2000
   -3.8420   -3.6918    1.5562 H   0  0  0  0  0  0  0  0  0  0  0  0
   -3.8430   -2.7008    1.1032 C   0  0  0  0  0  0  0  0  0  0  0  0
   -4.5510   -2.0608    1.6242 H   0  0  0  0  0  0  0  0  0  0  0  0
   -4.1140   -2.7798    0.0522 H   0  0  0  0  0  0  0  0  0  0  0  0
   -2.4570   -2.1098    1.2172 C   0  0  0  0  0  0  0  0  0  0  0  0
   -1.5600   -2.7438    1.7572 O   0  0  0  0  0  0  0  0  0  0  0  0
   -2.2870   -0.8898    0.7102 N   0  0  0  0  0  0  0  0  0  0  0  0
   -3.0820   -0.4218    0.2992 H   0  0  0  0  0  0  0  0  0  0  0  0
   -1.0240   -0.1468    0.7262 C   0  0  1  0  0  0  0  0  0  0  0  0
   -0.3583   -0.6100    1.4558 H   0  0  0  0  0  0  0  0  0  0  0  0
   -0.3739   -0.2459   -0.6675 C   0  0  0  0  0  0  0  0  0  0  0  0
   -1.0566    0.1887   -1.4006 H   0  0  0  0  0  0  0  0  0  0  0  0
    0.5494    0.3349   -0.6758 H   0  0  0  0  0  0  0  0  0  0  0  0
   -0.0678   -1.6900   -1.0944 C   0  0  0  0  0  0  0  0  0  0  0  0
   -0.9249   -2.3266   -0.8732 H   0  0  0  0  0  0  0  0  0  0  0  0
    0.1271   -1.7132   -2.1681 H   0  0  0  0  0  0  0  0  0  0  0  0
    1.1559   -2.2336   -0.3481 C   0  0  0  0  0  0  0  0  0  0  0  0
    2.0208   -1.6020   -0.5534 H   0  0  0  0  0  0  0  0  0  0  0  0
    0.9570   -2.2348    0.7240 H   0  0  0  0  0  0  0  0  0  0  0  0
    1.4526   -3.6595   -0.8086 C   0  0  0  0  0  0  0  0  0  0  0  0
    0.5974   -4.2961   -0.5877 H   0  0  0  0  0  0  0  0  0  0  0  0
    1.6340   -3.6629   -1.8822 H   0  0  0  0  0  0  0  0  0  0  0  0
    2.6348   -4.2028   -0.1299 N   0  0  0  0  0  0  0  0  0  0  0  0
    2.7927   -5.1481   -0.4469 H   0  0  0  0  0  0  0  0  0  0  0  0
    3.4380   -3.6341   -0.3573 H   0  0  0  0  0  0  0  0  0  0  0  0
   -1.2712    1.3099    1.1517 C   0  0  0  0  0  0  0  0  0  0  0  0
   -2.2039    1.9448    0.6639 O   0  0  0  0  0  0  0  0  0  0  0  0
   -0.4306    1.8354    2.0503 N   0  0  0  0  0  0  0  0  0  0  0  0
    0.3001    1.2459    2.4139 H   0  0  0  0  0  0  0  0  0  0  0  0
   -0.5192    3.2082    2.5456 C   0  0  0  0  0  0  0  0  0  0  0  0
   -1.5166    3.3903    2.9518 H   0  0  0  0  0  0  0  0  0  0  0  0
    0.2240    3.3791    3.3257 H   0  0  0  0  0  0  0  0  0  0  0  0
   -0.3477    3.9067    1.7239 H   0  0  0  0  0  0  0  0  0  0  0  0
  5  6  2  0  0  0  0
  5  7  1  0  0  0  0
  2  3  1  0  0  0  0
  2  4  1  0  0  0  0
  2  5  1  0  0  0  0
  1  2  1  0  0  0  0
 26 27  2  0  0  0  0
 26 28  1  0  0  0  0
 23 24  1  0  0  0  0
 23 25  1  0  0  0  0
 20 21  1  0  0  0  0
 20 22  1  0  0  0  0
 20 23  1  0  0  0  0
 17 18  1  0  0  0  0
 17 19  1  0  0  0  0
 17 20  1  0  0  0  0
 14 15  1  0  0  0  0
 14 16  1  0  0  0  0
 14 17  1  0  0  0  0
 11 12  1  0  0  0  0
 11 13  1  0  0  0  0
 11 14  1  0  0  0  0
  9 10  1  0  0  0  0
  9 11  1  0  0  0  0
  9 26  1  0  0  0  0
  7  8  1  0  0  0  0
  7  9  1  0  0  0  0
 30 31  1  0  0  0  0
 30 32  1  0  0  0  0
 30 33  1  0  0  0  0
 28 29  1  0  0  0  0
 28 30  1  0  0  0  0
M  END
$$$$
default_name
  -OEChem-02102213163D

 33 32  0     1  0  0  0  0  0999 V2000
   -3.8420   -3.6918    1.5562 H   0  0  0  0  0  0  0  0  0  0  0  0
   -3.8430   -2.7008    1.1032 C   0  0  0  0  0  0  0  0  0  0  0  0
   -4.5510   -2.0608    1.6242 H   0  0  0  0  0  0  0  0  0  0  0  0
   -4.1140   -2.7798    0.0522 H   0  0  0  0  0  0  0  0  0  0  0  0
   -2.4570   -2.1098    1.2172 C   0  0  0  0  0  0  0  0  0  0  0  0
   -1.5600   -2.7438    1.7572 O   0  0  0  0  0  0  0  0  0  0  0  0
   -2.2870   -0.8898    0.7102 N   0  0  0  0  0  0  0  0  0  0  0  0
   -3.0820   -0.4218    0.2992 H   0  0  0  0  0  0  0  0  0  0  0  0
   -1.0240   -0.1468    0.7262 C   0  0  1  0  0  0  0  0  0  0  0  0
   -0.3583   -0.6100    1.4558 H   0  0  0  0  0  0  0  0  0  0  0  0
   -0.3739   -0.2459   -0.6675 C   0  0  0  0  0  0  0  0  0  0  0  0
   -1.0566    0.1887   -1.4006 H   0  0  0  0  0  0  0  0  0  0  0  0
    0.5494    0.3349   -0.6758 H   0  0  0  0  0  0  0  0  0  0  0  0
   -0.0678   -1.6900   -1.0944 C   0  0  0  0  0  0  0  0  0  0  0  0
   -0.9928   -2.2664   -1.1255 H   0  0  0  0  0  0  0  0  0  0  0  0
    0.3824   -1.6826   -2.0887 H   0  0  0  0  0  0  0  0  0  0  0  0
    0.8973   -2.3591   -0.1092 C   0  0  0  0  0  0  0  0  0  0  0  0
    1.8256   -1.7890   -0.0611 H   0  0  0  0  0  0  0  0  0  0  0  0
    0.4421   -2.3904    0.8812 H   0  0  0  0  0  0  0  0  0  0  0  0
    1.2038   -3.7828   -0.5697 C   0  0  0  0  0  0  0  0  0  0  0  0
    0.2807   -4.3594   -0.6007 H   0  0  0  0  0  0  0  0  0  0  0  0
    1.6422   -3.7546   -1.5660 H   0  0  0  0  0  0  0  0  0  0  0  0
    2.1453   -4.4455    0.3401 N   0  0  0  0  0  0  0  0  0  0  0  0
    2.3138   -5.3859    0.0140 H   0  0  0  0  0  0  0  0  0  0  0  0
    3.0152   -3.9323    0.3481 H   0  0  0  0  0  0  0  0  0  0  0  0
   -1.2712    1.3099    1.1517 C   0  0  0  0  0  0  0  0  0  0  0  0
   -2.2039    1.9448    0.6639 O   0  0  0  0  0  0  0  0  0  0  0  0
   -0.4306    1.8354    2.0503 N   0  0  0  0  0  0  0  0  0  0  0  0
    0.3001    1.2459    2.4139 H   0  0  0  0  0  0  0  0  0  0  0  0
   -0.5192    3.2082    2.5456 C   0  0  0  0  0  0  0  0  0  0  0  0
   -1.5166    3.3903    2.9518 H   0  0  0  0  0  0  0  0  0  0  0  0
    0.2240    3.3791    3.3257 H   0  0  0  0  0  0  0  0  0  0  0  0
   -0.3477    3.9067    1.7239 H   0  0  0  0  0  0  0  0  0  0  0  0
  5  6  2  0  0  0  0
  5  7  1  0  0  0  0
  2  3  1  0  0  0  0
  2  4  1  0  0  0  0
  2  5  1  0  0  0  0
  1  2  1  0  0  0  0
 26 27  2  0  0  0  0
 26 28  1  0  0  0  0
 23 24  1  0  0  0  0
 23 25  1  0  0  0  0
 20 21  1  0  0  0  0
 20 22  1  0  0  0  0
 20 23  1  0  0  0  0
 17 18  1  0  0  0  0
 17 19  1  0  0  0  0
 17 20  1  0  0  0  0
 14 15  1  0  0  0  0
 14 16  1  0  0  0  0
 14 17  1  0  0  0  0
 11 12  1  0  0  0  0
 11 13  1  0  0  0  0
 11 14  1  0  0  0  0
  9 10  1  0  0  0  0
  9 11  1  0  0  0  0
  9 26  1  0  0  0  0
  7  8  1  0  0  0  0
  7  9  1  0  0  0  0
 30 31  1  0  0  0  0
 30 32  1  0  0  0  0
 30 33  1  0  0  0  0
 28 29  1  0  0  0  0
 28 30  1  0  0  0  0
M  END
$$$$
default_name
  -OEChem-02102213163D

 33 32  0     1  0  0  0  0  0999 V2000
   -3.8420   -3.6918    1.5562 H   0  0  0  0  0  0  0  0  0  0  0  0
   -3.8430   -2.7008    1.1032 C   0  0  0  0  0  0  0  0  0  0  0  0
   -4.5510   -2.0608    1.6242 H   0  0  0  0  0  0  0  0  0  0  0  0
   -4.1140   -2.7798    0.0522 H   0  0  0  0  0  0  0  0  0  0  0  0
   -2.4570   -2.1098    1.2172 C   0  0  0  0  0  0  0  0  0  0  0  0
   -1.5600   -2.7438    1.7572 O   0  0  0  0  0  0  0  0  0  0  0  0
   -2.2870   -0.8898    0.7102 N   0  0  0  0  0  0  0  0  0  0  0  0
   -3.0820   -0.4218    0.2992 H   0  0  0  0  0  0  0  0  0  0  0  0
   -1.0240   -0.1468    0.7262 C   0  0  1  0  0  0  0  0  0  0  0  0
   -0.3583   -0.6100    1.4558 H   0  0  0  0  0  0  0  0  0  0  0  0
   -0.3739   -0.2459   -0.6675 C   0  0  0  0  0  0  0  0  0  0  0  0
   -1.0566    0.1887   -1.4006 H   0  0  0  0  0  0  0  0  0  0  0  0
    0.5494    0.3349   -0.6758 H   0  0  0  0  0  0  0  0  0  0  0  0
   -0.0678   -1.6900   -1.0944 C   0  0  0  0  0  0  0  0  0  0  0  0
   -0.9927   -2.1904   -1.3826 H   0  0  0  0  0  0  0  0  0  0  0  0
    0.6119   -1.6754   -1.9484 H   0  0  0  0  0  0  0  0  0  0  0  0
    0.5804   -2.4740    0.0523 C   0  0  0  0  0  0  0  0  0  0  0  0
    1.5039   -1.9809    0.3574 H   0  0  0  0  0  0  0  0  0  0  0  0
   -0.1047   -2.5118    0.8997 H   0  0  0  0  0  0  0  0  0  0  0  0
    0.8965   -3.8964   -0.4059 C   0  0  0  0  0  0  0  0  0  0  0  0
   -0.0266   -4.3971   -0.6935 H   0  0  0  0  0  0  0  0  0  0  0  0
    1.5665   -3.8601   -1.2633 H   0  0  0  0  0  0  0  0  0  0  0  0
    1.5407   -4.6690    0.6625 N   0  0  0  0  0  0  0  0  0  0  0  0
    1.7220   -5.6049    0.3305 H   0  0  0  0  0  0  0  0  0  0  0  0
    2.4139   -4.2262    0.9112 H   0  0  0  0  0  0  0  0  0  0  0  0
   -1.2712    1.3099    1.1517 C   0  0  0  0  0  0  0  0  0  0  0  0
   -2.2039    1.9448    0.6639 O   0  0  0  0  0  0  0  0  0  0  0  0
   -0.4306    1.8354    2.0503 N   0  0  0  0  0  0  0  0  0  0  0  0
    0.3001    1.2459    2.4139 H   0  0  0  0  0  0  0  0  0  0  0  0
   -0.5192    3.2082    2.5456 C   0  0  0  0  0  0  0  0  0  0  0  0
   -1.5166    3.3903    2.9518 H   0  0  0  0  0  0  0  0  0  0  0  0
    0.2240    3.3791    3.3257 H   0  0  0  0  0  0  0  0  0  0  0  0
   -0.3477    3.9067    1.7239 H   0  0  0  0  0  0  0  0  0  0  0  0
  5  6  2  0  0  0  0
  5  7  1  0  0  0  0
  2  3  1  0  0  0  0
  2  4  1  0  0  0  0
  2  5  1  0  0  0  0
  1  2  1  0  0  0  0
 26 27  2  0  0  0  0
 26 28  1  0  0  0  0
 23 24  1  0  0  0  0
 23 25  1  0  0  0  0
 20 21  1  0  0  0  0
 20 22  1  0  0  0  0
 20 23  1  0  0  0  0
 17 18  1  0  0  0  0
 17 19  1  0  0  0  0
 17 20  1  0  0  0  0
 14 15  1  0  0  0  0
 14 16  1  0  0  0  0
 14 17  1  0  0  0  0
 11 12  1  0  0  0  0
 11 13  1  0  0  0  0
 11 14  1  0  0  0  0
  9 10  1  0  0  0  0
  9 11  1  0  0  0  0
  9 26  1  0  0  0  0
  7  8  1  0  0  0  0
  7  9  1  0  0  0  0
 30 31  1  0  0  0  0
 30 32  1  0  0  0  0
 30 33  1  0  0  0  0
 28 29  1  0  0  0  0
 28 30  1  0  0  0  0
M  END
$$$$
default_name
  -OEChem-02102213163D

 33 32  0     1  0  0  0  0  0999 V2000
   -3.8420   -3.6918    1.5562 H   0  0  0  0  0  0  0  0  0  0  0  0
   -3.8430   -2.7008    1.1032 C   0  0  0  0  0  0  0  0  0  0  0  0
   -4.5510   -2.0608    1.6242 H   0  0  0  0  0  0  0  0  0  0  0  0
   -4.1140   -2.7798    0.0522 H   0  0  0  0  0  0  0  0  0  0  0  0
   -2.4570   -2.1098    1.2172 C   0  0  0  0  0  0  0  0  0  0  0  0
   -1.5600   -2.7438    1.7572 O   0  0  0  0  0  0  0  0  0  0  0  0
   -2.2870   -0.8898    0.7102 N   0  0  0  0  0  0  0  0  0  0  0  0
   -3.0820   -0.4218    0.2992 H   0  0  0  0  0  0  0  0  0  0  0  0
   -1.0240   -0.1468    0.7262 C   0  0  1  0  0  0  0  0  0  0  0  0
   -0.3583   -0.6100    1.4558 H   0  0  0  0  0  0  0  0  0  0  0  0
   -0.3739   -0.2459   -0.6675 C   0  0  0  0  0  0  0  0  0  0  0  0
   -1.0566    0.1887   -1.4006 H   0  0  0  0  0  0  0  0  0  0  0  0
    0.5494    0.3349   -0.6758 H   0  0  0  0  0  0  0  0  0  0  0  0
   -0.0678   -1.6900   -1.0944 C   0  0  0  0  0  0  0  0  0  0  0  0
   -0.9245   -2.1037   -1.6270 H   0  0  0  0  0  0  0  0  0  0  0  0
    0.7999   -1.6923   -1.7566 H   0  0  0  0  0  0  0  0  0  0  0  0
    0.2267   -2.5706    0.1253 C   0  0  0  0  0  0  0  0  0  0  0  0
    1.0775   -2.1647    0.6735 H   0  0  0  0  0  0  0  0  0  0  0  0
   -0.6462   -2.5907    0.7784 H   0  0  0  0  0  0  0  0  0  0  0  0
    0.5516   -3.9925   -0.3282 C   0  0  0  0  0  0  0  0  0  0  0  0
   -0.3036   -4.4066   -0.8599 H   0  0  0  0  0  0  0  0  0  0  0  0
    1.4123   -3.9722   -0.9948 H   0  0  0  0  0  0  0  0  0  0  0  0
    0.8623   -4.8580    0.8153 N   0  0  0  0  0  0  0  0  0  0  0  0
    1.0577   -5.7902    0.4809 H   0  0  0  0  0  0  0  0  0  0  0  0
    1.6749   -4.4960    1.2937 H   0  0  0  0  0  0  0  0  0  0  0  0
   -1.2712    1.3099    1.1517 C   0  0  0  0  0  0  0  0  0  0  0  0
   -2.2039    1.9448    0.6639 O   0  0  0  0  0  0  0  0  0  0  0  0
   -0.4306    1.8354    2.0503 N   0  0  0  0  0  0  0  0  0  0  0  0
    0.3001    1.2459    2.4139 H   0  0  0  0  0  0  0  0  0  0  0  0
   -0.5192    3.2082    2.5456 C   0  0  0  0  0  0  0  0  0  0  0  0
   -1.5166    3.3903    2.9518 H   0  0  0  0  0  0  0  0  0  0  0  0
    0.2240    3.3791    3.3257 H   0  0  0  0  0  0  0  0  0  0  0  0
   -0.3477    3.9067    1.7239 H   0  0  0  0  0  0  0  0  0  0  0  0
  5  6  2  0  0  0  0
  5  7  1  0  0  0  0
  2  3  1  0  0  0  0
  2  4  1  0  0  0  0
  2  5  1  0  0  0  0
  1  2  1  0  0  0  0
 26 27  2  0  0  0  0
 26 28  1  0  0  0  0
 23 24  1  0  0  0  0
 23 25  1  0  0  0  0
 20 21  1  0  0  0  0
 20 22  1  0  0  0  0
 20 23  1  0  0  0  0
 17 18  1  0  0  0  0
 17 19  1  0  0  0  0
 17 20  1  0  0  0  0
 14 15  1  0  0  0  0
 14 16  1  0  0  0  0
 14 17  1  0  0  0  0
 11 12  1  0  0  0  0
 11 13  1  0  0  0  0
 11 14  1  0  0  0  0
  9 10  1  0  0  0  0
  9 11  1  0  0  0  0
  9 26  1  0  0  0  0
  7  8  1  0  0  0  0
  7  9  1  0  0  0  0
 30 31  1  0  0  0  0
 30 32  1  0  0  0  0
 30 33  1  0  0  0  0
 28 29  1  0  0  0  0
 28 30  1  0  0  0  0
M  END
$$$$
default_name
  -OEChem-02102213163D

 33 32  0     1  0  0  0  0  0999 V2000
   -3.8420   -3.6918    1.5562 H   0  0  0  0  0  0  0  0  0  0  0  0
   -3.8430   -2.7008    1.1032 C   0  0  0  0  0  0  0  0  0  0  0  0
   -4.5510   -2.0608    1.6242 H   0  0  0  0  0  0  0  0  0  0  0  0
   -4.1140   -2.7798    0.0522 H   0  0  0  0  0  0  0  0  0  0  0  0
   -2.4570   -2.1098    1.2172 C   0  0  0  0  0  0  0  0  0  0  0  0
   -1.5600   -2.7438    1.7572 O   0  0  0  0  0  0  0  0  0  0  0  0
   -2.2870   -0.8898    0.7102 N   0  0  0  0  0  0  0  0  0  0  0  0
   -3.0820   -0.4218    0.2992 H   0  0  0  0  0  0  0  0  0  0  0  0
   -1.0240   -0.1468    0.7262 C   0  0  1  0  0  0  0  0  0  0  0  0
   -0.3583   -0.6100    1.4558 H   0  0  0  0  0  0  0  0  0  0  0  0
   -0.3739   -0.2459   -0.6675 C   0  0  0  0  0  0  0  0  0  0  0  0
   -1.0566    0.1887   -1.4006 H   0  0  0  0  0  0  0  0  0  0  0  0
    0.5494    0.3349   -0.6758 H   0  0  0  0  0  0  0  0  0  0  0  0
   -0.0678   -1.6900   -1.0944 C   0  0  0  0  0  0  0  0  0  0  0  0
   -0.7930   -2.0122   -1.8421 H   0  0  0  0  0  0  0  0  0  0  0  0
    0.9337   -1.7319   -1.5265 H   0  0  0  0  0  0  0  0  0  0  0  0
   -0.1395   -2.6421    0.1048 C   0  0  0  0  0  0  0  0  0  0  0  0
    0.5756   -2.3279    0.8656 H   0  0  0  0  0  0  0  0  0  0  0  0
   -1.1453   -2.6218    0.5255 H   0  0  0  0  0  0  0  0  0  0  0  0
    0.1927   -4.0645   -0.3420 C   0  0  0  0  0  0  0  0  0  0  0  0
   -0.5314   -4.3873   -1.0884 H   0  0  0  0  0  0  0  0  0  0  0  0
    1.1899   -4.0832   -0.7787 H   0  0  0  0  0  0  0  0  0  0  0  0
    0.1562   -4.9997    0.7882 N   0  0  0  0  0  0  0  0  0  0  0  0
    0.3661   -5.9292    0.4551 H   0  0  0  0  0  0  0  0  0  0  0  0
    0.8487   -4.7231    1.4696 H   0  0  0  0  0  0  0  0  0  0  0  0
   -1.2712    1.3099    1.1517 C   0  0  0  0  0  0  0  0  0  0  0  0
   -2.2039    1.9448    0.6639 O   0  0  0  0  0  0  0  0  0  0  0  0
   -0.4306    1.8354    2.0503 N   0  0  0  0  0  0  0  0  0  0  0  0
    0.3001    1.2459    2.4139 H   0  0  0  0  0  0  0  0  0  0  0  0
   -0.5192    3.2082    2.5456 C   0  0  0  0  0  0  0  0  0  0  0  0
   -1.5166    3.3903    2.9518 H   0  0  0  0  0  0  0  0  0  0  0  0
    0.2240    3.3791    3.3257 H   0  0  0  0  0  0  0  0  0  0  0  0
   -0.3477    3.9067    1.7239 H   0  0  0  0  0  0  0  0  0  0  0  0
  5  6  2  0  0  0  0
  5  7  1  0  0  0  0
  2  3  1  0  0  0  0
  2  4  1  0  0  0  0
  2  5  1  0  0  0  0
  1  2  1  0  0  0  0
 26 27  2  0  0  0  0
 26 28  1  0  0  0  0
 23 24  1  0  0  0  0
 23 25  1  0  0  0  0
 20 21  1  0  0  0  0
 20 22  1  0  0  0  0
 20 23  1  0  0  0  0
 17 18  1  0  0  0  0
 17 19  1  0  0  0  0
 17 20  1  0  0  0  0
 14 15  1  0  0  0  0
 14 16  1  0  0  0  0
 14 17  1  0  0  0  0
 11 12  1  0  0  0  0
 11 13  1  0  0  0  0
 11 14  1  0  0  0  0
  9 10  1  0  0  0  0
  9 11  1  0  0  0  0
  9 26  1  0  0  0  0
  7  8  1  0  0  0  0
  7  9  1  0  0  0  0
 30 31  1  0  0  0  0
 30 32  1  0  0  0  0
 30 33  1  0  0  0  0
 28 29  1  0  0  0  0
 28 30  1  0  0  0  0
M  END
$$$$
default_name
  -OEChem-02102213163D

 33 32  0     1  0  0  0  0  0999 V2000
   -3.8420   -3.6918    1.5562 H   0  0  0  0  0  0  0  0  0  0  0  0
   -3.8430   -2.7008    1.1032 C   0  0  0  0  0  0  0  0  0  0  0  0
   -4.5510   -2.0608    1.6242 H   0  0  0  0  0  0  0  0  0  0  0  0
   -4.1140   -2.7798    0.0522 H   0  0  0  0  0  0  0  0  0  0  0  0
   -2.4570   -2.1098    1.2172 C   0  0  0  0  0  0  0  0  0  0  0  0
   -1.5600   -2.7438    1.7572 O   0  0  0  0  0  0  0  0  0  0  0  0
   -2.2870   -0.8898    0.7102 N   0  0  0  0  0  0  0  0  0  0  0  0
   -3.0820   -0.4218    0.2992 H   0  0  0  0  0  0  0  0  0  0  0  0
   -1.0240   -0.1468    0.7262 C   0  0  1  0  0  0  0  0  0  0  0  0
   -0.3583   -0.6100    1.4558 H   0  0  0  0  0  0  0  0  0  0  0  0
   -0.3739   -0.2459   -0.6675 C   0  0  0  0  0  0  0  0  0  0  0  0
   -1.0566    0.1887   -1.4006 H   0  0  0  0  0  0  0  0  0  0  0  0
    0.5494    0.3349   -0.6758 H   0  0  0  0  0  0  0  0  0  0  0  0
   -0.0678   -1.6900   -1.0944 C   0  0  0  0  0  0  0  0  0  0  0  0
   -0.6071   -1.9223   -2.0131 H   0  0  0  0  0  0  0  0  0  0  0  0
    1.0041   -1.7917   -1.2738 H   0  0  0  0  0  0  0  0  0  0  0  0
   -0.4935   -2.6839   -0.0078 C   0  0  0  0  0  0  0  0  0  0  0  0
    0.0324   -2.4593    0.9207 H   0  0  0  0  0  0  0  0  0  0  0  0
   -1.5681   -2.6028    0.1582 H   0  0  0  0  0  0  0  0  0  0  0  0
   -0.1558   -4.1075   -0.4464 C   0  0  0  0  0  0  0  0  0  0  0  0
   -0.6944   -4.3406   -1.3636 H   0  0  0  0  0  0  0  0  0  0  0  0
    0.9145   -4.1856   -0.6298 H   0  0  0  0  0  0  0  0  0  0  0  0
   -0.5294   -5.0844    0.5829 N   0  0  0  0  0  0  0  0  0  0  0  0
   -0.3057   -6.0124    0.2548 H   0  0  0  0  0  0  0  0  0  0  0  0
   -0.0085   -4.8922    1.4267 H   0  0  0  0  0  0  0  0  0  0  0  0
   -1.2712    1.3099    1.1517 C   0  0  0  0  0  0  0  0  0  0  0  0
   -2.2039    1.9448    0.6639 O   0  0  0  0  0  0  0  0  0  0  0  0
   -0.4306    1.8354    2.0503 N   0  0  0  0  0  0  0  0  0  0  0  0
    0.3001    1.2459    2.4139 H   0  0  0  0  0  0  0  0  0  0  0  0
   -0.5192    3.2082    2.5456 C   0  0  0  0  0  0  0  0  0  0  0  0
   -1.5166    3.3903    2.9518 H   0  0  0  0  0  0  0  0  0  0  0  0
    0.2240    3.3791    3.3257 H   0  0  0  0  0  0  0  0  0  0  0  0
   -0.3477    3.9067    1.7239 H   0  0  0  0  0  0  0  0  0  0  0  0
  5  6  2  0  0  0  0
  5  7  1  0  0  0  0
  2  3  1  0  0  0  0
  2  4  1  0  0  0  0
  2  5  1  0  0  0  0
  1  2  1  0  0  0  0
 26 27  2  0  0  0  0
 26 28  1  0  0  0  0
 23 24  1  0  0  0  0
 23 25  1  0  0  0  0
 20 21  1  0  0  0  0
 20 22  1  0  0  0  0
 20 23  1  0  0  0  0
 17 18  1  0  0  0  0
 17 19  1  0  0  0  0
 17 20  1  0  0  0  0
 14 15  1  0  0  0  0
 14 16  1  0  0  0  0
 14 17  1  0  0  0  0
 11 12  1  0  0  0  0
 11 13  1  0  0  0  0
 11 14  1  0  0  0  0
  9 10  1  0  0  0  0
  9 11  1  0  0  0  0
  9 26  1  0  0  0  0
  7  8  1  0  0  0  0
  7  9  1  0  0  0  0
 30 31  1  0  0  0  0
 30 32  1  0  0  0  0
 30 33  1  0  0  0  0
 28 29  1  0  0  0  0
 28 30  1  0  0  0  0
M  END
$$$$
default_name
  -OEChem-02102213163D

 33 32  0     1  0  0  0  0  0999 V2000
   -3.8420   -3.6918    1.5562 H   0  0  0  0  0  0  0  0  0  0  0  0
   -3.8430   -2.7008    1.1032 C   0  0  0  0  0  0  0  0  0  0  0  0
   -4.5510   -2.0608    1.6242 H   0  0  0  0  0  0  0  0  0  0  0  0
   -4.1140   -2.7798    0.0522 H   0  0  0  0  0  0  0  0  0  0  0  0
   -2.4570   -2.1098    1.2172 C   0  0  0  0  0  0  0  0  0  0  0  0
   -1.5600   -2.7438    1.7572 O   0  0  0  0  0  0  0  0  0  0  0  0
   -2.2870   -0.8898    0.7102 N   0  0  0  0  0  0  0  0  0  0  0  0
   -3.0820   -0.4218    0.2992 H   0  0  0  0  0  0  0  0  0  0  0  0
   -1.0240   -0.1468    0.7262 C   0  0  1  0  0  0  0  0  0  0  0  0
   -0.3583   -0.6100    1.4558 H   0  0  0  0  0  0  0  0  0  0  0  0
   -0.3739   -0.2459   -0.6675 C   0  0  0  0  0  0  0  0  0  0  0  0
   -1.0566    0.1887   -1.4006 H   0  0  0  0  0  0  0  0  0  0  0  0
    0.5494    0.3349   -0.6758 H   0  0  0  0  0  0  0  0  0  0  0  0
   -0.0678   -1.6900   -1.0944 C   0  0  0  0  0  0  0  0  0  0  0  0
   -0.3795   -1.8399   -2.1284 H   0  0  0  0  0  0  0  0  0  0  0  0
    1.0063   -1.8676   -1.0156 H   0  0  0  0  0  0  0  0  0  0  0  0
   -0.8110   -2.6930   -0.2048 C   0  0  0  0  0  0  0  0  0  0  0  0
   -0.5152   -2.5501    0.8349 H   0  0  0  0  0  0  0  0  0  0  0  0
   -1.8859   -2.5352   -0.2985 H   0  0  0  0  0  0  0  0  0  0  0  0
   -0.4702   -4.1187   -0.6342 C   0  0  0  0  0  0  0  0  0  0  0  0
   -0.7816   -4.2695   -1.6666 H   0  0  0  0  0  0  0  0  0  0  0  0
    0.6050   -4.2724   -0.5582 H   0  0  0  0  0  0  0  0  0  0  0  0
   -1.1479   -5.1063    0.2135 N   0  0  0  0  0  0  0  0  0  0  0  0
   -0.9118   -6.0341   -0.1063 H   0  0  0  0  0  0  0  0  0  0  0  0
   -0.8382   -4.9916    1.1682 H   0  0  0  0  0  0  0  0  0  0  0  0
   -1.2712    1.3099    1.1517 C   0  0  0  0  0  0  0  0  0  0  0  0
   -2.2039    1.9448    0.6639 O   0  0  0  0  0  0  0  0  0  0  0  0
   -0.4306    1.8354    2.0503 N   0  0  0  0  0  0  0  0  0  0  0  0
    0.3001    1.2459    2.4139 H   0  0  0  0  0  0  0  0  0  0  0  0
   -0.5192    3.2082    2.5456 C   0  0  0  0  0  0  0  0  0  0  0  0
   -1.5166    3.3903    2.9518 H   0  0  0  0  0  0  0  0  0  0  0  0
    0.2240    3.3791    3.3257 H   0  0  0  0  0  0  0  0  0  0  0  0
   -0.3477    3.9067    1.7239 H   0  0  0  0  0  0  0  0  0  0  0  0
  5  6  2  0  0  0  0
  5  7  1  0  0  0  0
  2  3  1  0  0  0  0
  2  4  1  0  0  0  0
  2  5  1  0  0  0  0
  1  2  1  0  0  0  0
 26 27  2  0  0  0  0
 26 28  1  0  0  0  0
 23 24  1  0  0  0  0
 23 25  1  0  0  0  0
 20 21  1  0  0  0  0
 20 22  1  0  0  0  0
 20 23  1  0  0  0  0
 17 18  1  0  0  0  0
 17 19  1  0  0  0  0
 17 20  1  0  0  0  0
 14 15  1  0  0  0  0
 14 16  1  0  0  0  0
 14 17  1  0  0  0  0
 11 12  1  0  0  0  0
 11 13  1  0  0  0  0
 11 14  1  0  0  0  0
  9 10  1  0  0  0  0
  9 11  1  0  0  0  0
  9 26  1  0  0  0  0
  7  8  1  0  0  0  0
  7  9  1  0  0  0  0
 30 31  1  0  0  0  0
 30 32  1  0  0  0  0
 30 33  1  0  0  0  0
 28 29  1  0  0  0  0
 28 30  1  0  0  0  0
M  END
$$$$
default_name
  -OEChem-02102213163D

 33 32  0     1  0  0  0  0  0999 V2000
   -3.8420   -3.6918    1.5562 H   0  0  0  0  0  0  0  0  0  0  0  0
   -3.8430   -2.7008    1.1032 C   0  0  0  0  0  0  0  0  0  0  0  0
   -4.5510   -2.0608    1.6242 H   0  0  0  0  0  0  0  0  0  0  0  0
   -4.1140   -2.7798    0.0522 H   0  0  0  0  0  0  0  0  0  0  0  0
   -2.4570   -2.1098    1.2172 C   0  0  0  0  0  0  0  0  0  0  0  0
   -1.5600   -2.7438    1.7572 O   0  0  0  0  0  0  0  0  0  0  0  0
   -2.2870   -0.8898    0.7102 N   0  0  0  0  0  0  0  0  0  0  0  0
   -3.0820   -0.4218    0.2992 H   0  0  0  0  0  0  0  0  0  0  0  0
   -1.0240   -0.1468    0.7262 C   0  0  1  0  0  0  0  0  0  0  0  0
   -0.3583   -0.6100    1.4558 H   0  0  0  0  0  0  0  0  0  0  0  0
   -0.3739   -0.2459   -0.6675 C   0  0  0  0  0  0  0  0  0  0  0  0
   -1.0566    0.1887   -1.4006 H   0  0  0  0  0  0  0  0  0  0  0  0
    0.5494    0.3349   -0.6758 H   0  0  0  0  0  0  0  0  0  0  0  0
   -0.0678   -1.6900   -1.0944 C   0  0  0  0  0  0  0  0  0  0  0  0
   -0.1257   -1.7708   -2.1802 H   0  0  0  0  0  0  0  0  0  0  0  0
    0.9402   -1.9543   -0.7696 H   0  0  0  0  0  0  0  0  0  0  0  0
   -1.0705   -2.6688   -0.4728 C   0  0  0  0  0  0  0  0  0  0  0  0
   -1.0298   -2.5940    0.6143 H   0  0  0  0  0  0  0  0  0  0  0  0
   -2.0768   -2.4235   -0.8134 H   0  0  0  0  0  0  0  0  0  0  0  0
   -0.7290   -4.0971   -0.8926 C   0  0  0  0  0  0  0  0  0  0  0  0
   -0.7870   -4.1789   -1.9768 H   0  0  0  0  0  0  0  0  0  0  0  0
    0.2823   -4.3377   -0.5688 H   0  0  0  0  0  0  0  0  0  0  0  0
   -1.6570   -5.0639   -0.2948 N   0  0  0  0  0  0  0  0  0  0  0  0
   -1.4110   -5.9929   -0.6038 H   0  0  0  0  0  0  0  0  0  0  0  0
   -1.5839   -5.0147    0.7115 H   0  0  0  0  0  0  0  0  0  0  0  0
   -1.2712    1.3099    1.1517 C   0  0  0  0  0  0  0  0  0  0  0  0
   -2.2039    1.9448    0.6639 O   0  0  0  0  0  0  0  0  0  0  0  0
   -0.4306    1.8354    2.0503 N   0  0  0  0  0  0  0  0  0  0  0  0
    0.3001    1.2459    2.4139 H   0  0  0  0  0  0  0  0  0  0  0  0
   -0.5192    3.2082    2.5456 C   0  0  0  0  0  0  0  0  0  0  0  0
   -1.5166    3.3903    2.9518 H   0  0  0  0  0  0  0  0  0  0  0  0
    0.2240    3.3791    3.3257 H   0  0  0  0  0  0  0  0  0  0  0  0
   -0.3477    3.9067    1.7239 H   0  0  0  0  0  0  0  0  0  0  0  0
  5  6  2  0  0  0  0
  5  7  1  0  0  0  0
  2  3  1  0  0  0  0
  2  4  1  0  0  0  0
  2  5  1  0  0  0  0
  1  2  1  0  0  0  0
 26 27  2  0  0  0  0
 26 28  1  0  0  0  0
 23 24  1  0  0  0  0
 23 25  1  0  0  0  0
 20 21  1  0  0  0  0
 20 22  1  0  0  0  0
 20 23  1  0  0  0  0
 17 18  1  0  0  0  0
 17 19  1  0  0  0  0
 17 20  1  0  0  0  0
 14 15  1  0  0  0  0
 14 16  1  0  0  0  0
 14 17  1  0  0  0  0
 11 12  1  0  0  0  0
 11 13  1  0  0  0  0
 11 14  1  0  0  0  0
  9 10  1  0  0  0  0
  9 11  1  0  0  0  0
  9 26  1  0  0  0  0
  7  8  1  0  0  0  0
  7  9  1  0  0  0  0
 30 31  1  0  0  0  0
 30 32  1  0  0  0  0
 30 33  1  0  0  0  0
 28 29  1  0  0  0  0
 28 30  1  0  0  0  0
M  END
$$$$
default_name
  -OEChem-02102213163D

 33 32  0     1  0  0  0  0  0999 V2000
   -3.8420   -3.6918    1.5562 H   0  0  0  0  0  0  0  0  0  0  0  0
   -3.8430   -2.7008    1.1032 C   0  0  0  0  0  0  0  0  0  0  0  0
   -4.5510   -2.0608    1.6242 H   0  0  0  0  0  0  0  0  0  0  0  0
   -4.1140   -2.7798    0.0522 H   0  0  0  0  0  0  0  0  0  0  0  0
   -2.4570   -2.1098    1.2172 C   0  0  0  0  0  0  0  0  0  0  0  0
   -1.5600   -2.7438    1.7572 O   0  0  0  0  0  0  0  0  0  0  0  0
   -2.2870   -0.8898    0.7102 N   0  0  0  0  0  0  0  0  0  0  0  0
   -3.0820   -0.4218    0.2992 H   0  0  0  0  0  0  0  0  0  0  0  0
   -1.0240   -0.1468    0.7262 C   0  0  1  0  0  0  0  0  0  0  0  0
   -0.3583   -0.6100    1.4558 H   0  0  0  0  0  0  0  0  0  0  0  0
   -0.3739   -0.2459   -0.6675 C   0  0  0  0  0  0  0  0  0  0  0  0
   -1.0566    0.1887   -1.4006 H   0  0  0  0  0  0  0  0  0  0  0  0
    0.5494    0.3349   -0.6758 H   0  0  0  0  0  0  0  0  0  0  0  0
   -0.0678   -1.6900   -1.0944 C   0  0  0  0  0  0  0  0  0  0  0  0
    0.1370   -1.7196   -2.1649 H   0  0  0  0  0  0  0  0  0  0  0  0
    0.8103   -2.0460   -0.5525 H   0  0  0  0  0  0  0  0  0  0  0  0
   -1.2541   -2.6129   -0.7935 C   0  0  0  0  0  0  0  0  0  0  0  0
   -1.4764   -2.5880    0.2737 H   0  0  0  0  0  0  0  0  0  0  0  0
   -2.1280   -2.2753   -1.3515 H   0  0  0  0  0  0  0  0  0  0  0  0
   -0.9145   -4.0444   -1.2041 C   0  0  0  0  0  0  0  0  0  0  0  0
   -0.7102   -4.0750   -2.2731 H   0  0  0  0  0  0  0  0  0  0  0  0
   -0.0314   -4.3770   -0.6609 H   0  0  0  0  0  0  0  0  0  0  0  0
   -2.0220   -4.9602   -0.9075 N   0  0  0  0  0  0  0  0  0  0  0  0
   -1.7693   -5.8916   -1.2035 H   0  0  0  0  0  0  0  0  0  0  0  0
   -2.1948   -4.9598    0.0878 H   0  0  0  0  0  0  0  0  0  0  0  0
   -1.2712    1.3099    1.1517 C   0  0  0  0  0  0  0  0  0  0  0  0
   -2.2039    1.9448    0.6639 O   0  0  0  0  0  0  0  0  0  0  0  0
   -0.4306    1.8354    2.0503 N   0  0  0  0  0  0  0  0  0  0  0  0
    0.3001    1.2459    2.4139 H   0  0  0  0  0  0  0  0  0  0  0  0
   -0.5192    3.2082    2.5456 C   0  0  0  0  0  0  0  0  0  0  0  0
   -1.5166    3.3903    2.9518 H   0  0  0  0  0  0  0  0  0  0  0  0
    0.2240    3.3791    3.3257 H   0  0  0  0  0  0  0  0  0  0  0  0
   -0.3477    3.9067    1.7239 H   0  0  0  0  0  0  0  0  0  0  0  0
  5  6  2  0  0  0  0
  5  7  1  0  0  0  0
  2  3  1  0  0  0  0
  2  4  1  0  0  0  0
  2  5  1  0  0  0  0
  1  2  1  0  0  0  0
 26 27  2  0  0  0  0
 26 28  1  0  0  0  0
 23 24  1  0  0  0  0
 23 25  1  0  0  0  0
 20 21  1  0  0  0  0
 20 22  1  0  0  0  0
 20 23  1  0  0  0  0
 17 18  1  0  0  0  0
 17 19  1  0  0  0  0
 17 20  1  0  0  0  0
 14 15  1  0  0  0  0
 14 16  1  0  0  0  0
 14 17  1  0  0  0  0
 11 12  1  0  0  0  0
 11 13  1  0  0  0  0
 11 14  1  0  0  0  0
  9 10  1  0  0  0  0
  9 11  1  0  0  0  0
  9 26  1  0  0  0  0
  7  8  1  0  0  0  0
  7  9  1  0  0  0  0
 30 31  1  0  0  0  0
 30 32  1  0  0  0  0
 30 33  1  0  0  0  0
 28 29  1  0  0  0  0
 28 30  1  0  0  0  0
M  END
$$$$
default_name
  -OEChem-02102213163D

 33 32  0     1  0  0  0  0  0999 V2000
   -3.8420   -3.6918    1.5562 H   0  0  0  0  0  0  0  0  0  0  0  0
   -3.8430   -2.7008    1.1032 C   0  0  0  0  0  0  0  0  0  0  0  0
   -4.5510   -2.0608    1.6242 H   0  0  0  0  0  0  0  0  0  0  0  0
   -4.1140   -2.7798    0.0522 H   0  0  0  0  0  0  0  0  0  0  0  0
   -2.4570   -2.1098    1.2172 C   0  0  0  0  0  0  0  0  0  0  0  0
   -1.5600   -2.7438    1.7572 O   0  0  0  0  0  0  0  0  0  0  0  0
   -2.2870   -0.8898    0.7102 N   0  0  0  0  0  0  0  0  0  0  0  0
   -3.0820   -0.4218    0.2992 H   0  0  0  0  0  0  0  0  0  0  0  0
   -1.0240   -0.1468    0.7262 C   0  0  1  0  0  0  0  0  0  0  0  0
   -0.3583   -0.6100    1.4558 H   0  0  0  0  0  0  0  0  0  0  0  0
   -0.3739   -0.2459   -0.6675 C   0  0  0  0  0  0  0  0  0  0  0  0
   -1.0566    0.1887   -1.4006 H   0  0  0  0  0  0  0  0  0  0  0  0
    0.5494    0.3349   -0.6758 H   0  0  0  0  0  0  0  0  0  0  0  0
   -0.0678   -1.6900   -1.0944 C   0  0  0  0  0  0  0  0  0  0  0  0
    0.3908   -1.6898   -2.0836 H   0  0  0  0  0  0  0  0  0  0  0  0
    0.6254   -2.1365   -0.3791 H   0  0  0  0  0  0  0  0  0  0  0  0
   -1.3495   -2.5292   -1.1451 C   0  0  0  0  0  0  0  0  0  0  0  0
   -1.8245   -2.5325   -0.1635 H   0  0  0  0  0  0  0  0  0  0  0  0
   -2.0359   -2.1007   -1.8760 H   0  0  0  0  0  0  0  0  0  0  0  0
   -1.0142   -3.9640   -1.5473 C   0  0  0  0  0  0  0  0  0  0  0  0
   -0.5566   -3.9650   -2.5353 H   0  0  0  0  0  0  0  0  0  0  0  0
   -0.3149   -4.3876   -0.8282 H   0  0  0  0  0  0  0  0  0  0  0  0
   -2.2182   -4.8022   -1.5827 N   0  0  0  0  0  0  0  0  0  0  0  0
   -1.9621   -5.7370   -1.8647 H   0  0  0  0  0  0  0  0  0  0  0  0
   -2.6292   -4.8308   -0.6604 H   0  0  0  0  0  0  0  0  0  0  0  0
   -1.2712    1.3099    1.1517 C   0  0  0  0  0  0  0  0  0  0  0  0
   -2.2039    1.9448    0.6639 O   0  0  0  0  0  0  0  0  0  0  0  0
   -0.4306    1.8354    2.0503 N   0  0  0  0  0  0  0  0  0  0  0  0
    0.3001    1.2459    2.4139 H   0  0  0  0  0  0  0  0  0  0  0  0
   -0.5192    3.2082    2.5456 C   0  0  0  0  0  0  0  0  0  0  0  0
   -1.5166    3.3903    2.9518 H   0  0  0  0  0  0  0  0  0  0  0  0
    0.2240    3.3791    3.3257 H   0  0  0  0  0  0  0  0  0  0  0  0
   -0.3477    3.9067    1.7239 H   0  0  0  0  0  0  0  0  0  0  0  0
  5  6  2  0  0  0  0
  5  7  1  0  0  0  0
  2  3  1  0  0  0  0
  2  4  1  0  0  0  0
  2  5  1  0  0  0  0
  1  2  1  0  0  0  0
 26 27  2  0  0  0  0
 26 28  1  0  0  0  0
 23 24  1  0  0  0  0
 23 25  1  0  0  0  0
 20 21  1  0  0  0  0
 20 22  1  0  0  0  0
 20 23  1  0  0  0  0
 17 18  1  0  0  0  0
 17 19  1  0  0  0  0
 17 20  1  0  0  0  0
 14 15  1  0  0  0  0
 14 16  1  0  0  0  0
 14 17  1  0  0  0  0
 11 12  1  0  0  0  0
 11 13  1  0  0  0  0
 11 14  1  0  0  0  0
  9 10  1  0  0  0  0
  9 11  1  0  0  0  0
  9 26  1  0  0  0  0
  7  8  1  0  0  0  0
  7  9  1  0  0  0  0
 30 31  1  0  0  0  0
 30 32  1  0  0  0  0
 30 33  1  0  0  0  0
 28 29  1  0  0  0  0
 28 30  1  0  0  0  0
M  END
$$$$
default_name
  -OEChem-02102213163D

 33 32  0     1  0  0  0  0  0999 V2000
   -3.8420   -3.6918    1.5562 H   0  0  0  0  0  0  0  0  0  0  0  0
   -3.8430   -2.7008    1.1032 C   0  0  0  0  0  0  0  0  0  0  0  0
   -4.5510   -2.0608    1.6242 H   0  0  0  0  0  0  0  0  0  0  0  0
   -4.1140   -2.7798    0.0522 H   0  0  0  0  0  0  0  0  0  0  0  0
   -2.4570   -2.1098    1.2172 C   0  0  0  0  0  0  0  0  0  0  0  0
   -1.5600   -2.7438    1.7572 O   0  0  0  0  0  0  0  0  0  0  0  0
   -2.2870   -0.8898    0.7102 N   0  0  0  0  0  0  0  0  0  0  0  0
   -3.0820   -0.4218    0.2992 H   0  0  0  0  0  0  0  0  0  0  0  0
   -1.0240   -0.1468    0.7262 C   0  0  1  0  0  0  0  0  0  0  0  0
   -0.3583   -0.6100    1.4558 H   0  0  0  0  0  0  0  0  0  0  0  0
   -0.3739   -0.2459   -0.6675 C   0  0  0  0  0  0  0  0  0  0  0  0
   -1.0566    0.1887   -1.4006 H   0  0  0  0  0  0  0  0  0  0  0  0
    0.5494    0.3349   -0.6758 H   0  0  0  0  0  0  0  0  0  0  0  0
   -0.0678   -1.6900   -1.0944 C   0  0  0  0  0  0  0  0  0  0  0  0
    0.6183   -1.6835   -1.9418 H   0  0  0  0  0  0  0  0  0  0  0  0
    0.3982   -2.2195   -0.2613 H   0  0  0  0  0  0  0  0  0  0  0  0
   -1.3502   -2.4233   -1.5036 C   0  0  0  0  0  0  0  0  0  0  0  0
   -2.0504   -2.4313   -0.6677 H   0  0  0  0  0  0  0  0  0  0  0  0
   -1.8069   -1.9116   -2.3512 H   0  0  0  0  0  0  0  0  0  0  0  0
   -1.0212   -3.8616   -1.8990 C   0  0  0  0  0  0  0  0  0  0  0  0
   -0.3365   -3.8562   -2.7455 H   0  0  0  0  0  0  0  0  0  0  0  0
   -0.5488   -4.3689   -1.0594 H   0  0  0  0  0  0  0  0  0  0  0  0
   -2.2320   -4.6006   -2.2745 N   0  0  0  0  0  0  0  0  0  0  0  0
   -1.9765   -5.5397   -2.5424 H   0  0  0  0  0  0  0  0  0  0  0  0
   -2.8575   -4.6363   -1.4821 H   0  0  0  0  0  0  0  0  0  0  0  0
   -1.2712    1.3099    1.1517 C   0  0  0  0  0  0  0  0  0  0  0  0
   -2.2039    1.9448    0.6639 O   0  0  0  0  0  0  0  0  0  0  0  0
   -0.4306    1.8354    2.0503 N   0  0  0  0  0  0  0  0  0  0  0  0
    0.3001    1.2459    2.4139 H   0  0  0  0  0  0  0  0  0  0  0  0
   -0.5192    3.2082    2.5456 C   0  0  0  0  0  0  0  0  0  0  0  0
   -1.5166    3.3903    2.9518 H   0  0  0  0  0  0  0  0  0  0  0  0
    0.2240    3.3791    3.3257 H   0  0  0  0  0  0  0  0  0  0  0  0
   -0.3477    3.9067    1.7239 H   0  0  0  0  0  0  0  0  0  0  0  0
  5  6  2  0  0  0  0
  5  7  1  0  0  0  0
  2  3  1  0  0  0  0
  2  4  1  0  0  0  0
  2  5  1  0  0  0  0
  1  2  1  0  0  0  0
 26 27  2  0  0  0  0
 26 28  1  0  0  0  0
 23 24  1  0  0  0  0
 23 25  1  0  0  0  0
 20 21  1  0  0  0  0
 20 22  1  0  0  0  0
 20 23  1  0  0  0  0
 17 18  1  0  0  0  0
 17 19  1  0  0  0  0
 17 20  1  0  0  0  0
 14 15  1  0  0  0  0
 14 16  1  0  0  0  0
 14 17  1  0  0  0  0
 11 12  1  0  0  0  0
 11 13  1  0  0  0  0
 11 14  1  0  0  0  0
  9 10  1  0  0  0  0
  9 11  1  0  0  0  0
  9 26  1  0  0  0  0
  7  8  1  0  0  0  0
  7  9  1  0  0  0  0
 30 31  1  0  0  0  0
 30 32  1  0  0  0  0
 30 33  1  0  0  0  0
 28 29  1  0  0  0  0
 28 30  1  0  0  0  0
M  END
$$$$
default_name
  -OEChem-02102213163D

 33 32  0     1  0  0  0  0  0999 V2000
   -3.8420   -3.6918    1.5562 H   0  0  0  0  0  0  0  0  0  0  0  0
   -3.8430   -2.7008    1.1032 C   0  0  0  0  0  0  0  0  0  0  0  0
   -4.5510   -2.0608    1.6242 H   0  0  0  0  0  0  0  0  0  0  0  0
   -4.1140   -2.7798    0.0522 H   0  0  0  0  0  0  0  0  0  0  0  0
   -2.4570   -2.1098    1.2172 C   0  0  0  0  0  0  0  0  0  0  0  0
   -1.5600   -2.7438    1.7572 O   0  0  0  0  0  0  0  0  0  0  0  0
   -2.2870   -0.8898    0.7102 N   0  0  0  0  0  0  0  0  0  0  0  0
   -3.0820   -0.4218    0.2992 H   0  0  0  0  0  0  0  0  0  0  0  0
   -1.0240   -0.1468    0.7262 C   0  0  1  0  0  0  0  0  0  0  0  0
   -0.3583   -0.6100    1.4558 H   0  0  0  0  0  0  0  0  0  0  0  0
   -0.3739   -0.2459   -0.6675 C   0  0  0  0  0  0  0  0  0  0  0  0
   -1.0566    0.1887   -1.4006 H   0  0  0  0  0  0  0  0  0  0  0  0
    0.5494    0.3349   -0.6758 H   0  0  0  0  0  0  0  0  0  0  0  0
   -0.0678   -1.6900   -1.0944 C   0  0  0  0  0  0  0  0  0  0  0  0
    0.8040   -1.7011   -1.7492 H   0  0  0  0  0  0  0  0  0  0  0  0
    0.1441   -2.2894   -0.2071 H   0  0  0  0  0  0  0  0  0  0  0  0
   -1.2559   -2.3026   -1.8445 C   0  0  0  0  0  0  0  0  0  0  0  0
   -2.1387   -2.2914   -1.2044 H   0  0  0  0  0  0  0  0  0  0  0  0
   -1.4564   -1.7210   -2.7448 H   0  0  0  0  0  0  0  0  0  0  0  0
   -0.9351   -3.7440   -2.2350 C   0  0  0  0  0  0  0  0  0  0  0  0
   -0.0649   -3.7560   -2.8894 H   0  0  0  0  0  0  0  0  0  0  0  0
   -0.7172   -4.3220   -1.3385 H   0  0  0  0  0  0  0  0  0  0  0  0
   -2.0627   -4.3692   -2.9357 N   0  0  0  0  0  0  0  0  0  0  0  0
   -1.8114   -5.3132   -3.1902 H   0  0  0  0  0  0  0  0  0  0  0  0
   -2.8642   -4.3896   -2.3213 H   0  0  0  0  0  0  0  0  0  0  0  0
   -1.2712    1.3099    1.1517 C   0  0  0  0  0  0  0  0  0  0  0  0
   -2.2039    1.9448    0.6639 O   0  0  0  0  0  0  0  0  0  0  0  0
   -0.4306    1.8354    2.0503 N   0  0  0  0  0  0  0  0  0  0  0  0
    0.3001    1.2459    2.4139 H   0  0  0  0  0  0  0  0  0  0  0  0
   -0.5192    3.2082    2.5456 C   0  0  0  0  0  0  0  0  0  0  0  0
   -1.5166    3.3903    2.9518 H   0  0  0  0  0  0  0  0  0  0  0  0
    0.2240    3.3791    3.3257 H   0  0  0  0  0  0  0  0  0  0  0  0
   -0.3477    3.9067    1.7239 H   0  0  0  0  0  0  0  0  0  0  0  0
  5  6  2  0  0  0  0
  5  7  1  0  0  0  0
  2  3  1  0  0  0  0
  2  4  1  0  0  0  0
  2  5  1  0  0  0  0
  1  2  1  0  0  0  0
 26 27  2  0  0  0  0
 26 28  1  0  0  0  0
 23 24  1  0  0  0  0
 23 25  1  0  0  0  0
 20 21  1  0  0  0  0
 20 22  1  0  0  0  0
 20 23  1  0  0  0  0
 17 18  1  0  0  0  0
 17 19  1  0  0  0  0
 17 20  1  0  0  0  0
 14 15  1  0  0  0  0
 14 16  1  0  0  0  0
 14 17  1  0  0  0  0
 11 12  1  0  0  0  0
 11 13  1  0  0  0  0
 11 14  1  0  0  0  0
  9 10  1  0  0  0  0
  9 11  1  0  0  0  0
  9 26  1  0  0  0  0
  7  8  1  0  0  0  0
  7  9  1  0  0  0  0
 30 31  1  0  0  0  0
 30 32  1  0  0  0  0
 30 33  1  0  0  0  0
 28 29  1  0  0  0  0
 28 30  1  0  0  0  0
M  END
$$$$
default_name
  -OEChem-02102213163D

 33 32  0     1  0  0  0  0  0999 V2000
   -3.8420   -3.6918    1.5562 H   0  0  0  0  0  0  0  0  0  0  0  0
   -3.8430   -2.7008    1.1032 C   0  0  0  0  0  0  0  0  0  0  0  0
   -4.5510   -2.0608    1.6242 H   0  0  0  0  0  0  0  0  0  0  0  0
   -4.1140   -2.7798    0.0522 H   0  0  0  0  0  0  0  0  0  0  0  0
   -2.4570   -2.1098    1.2172 C   0  0  0  0  0  0  0  0  0  0  0  0
   -1.5600   -2.7438    1.7572 O   0  0  0  0  0  0  0  0  0  0  0  0
   -2.2870   -0.8898    0.7102 N   0  0  0  0  0  0  0  0  0  0  0  0
   -3.0820   -0.4218    0.2992 H   0  0  0  0  0  0  0  0  0  0  0  0
   -1.0240   -0.1468    0.7262 C   0  0  1  0  0  0  0  0  0  0  0  0
   -0.3583   -0.6100    1.4558 H   0  0  0  0  0  0  0  0  0  0  0  0
   -0.3739   -0.2459   -0.6675 C   0  0  0  0  0  0  0  0  0  0  0  0
   -1.0566    0.1887   -1.4006 H   0  0  0  0  0  0  0  0  0  0  0  0
    0.5494    0.3349   -0.6758 H   0  0  0  0  0  0  0  0  0  0  0  0
   -0.0678   -1.6900   -1.0944 C   0  0  0  0  0  0  0  0  0  0  0  0
    0.9352   -1.7414   -1.5189 H   0  0  0  0  0  0  0  0  0  0  0  0
   -0.1196   -2.3414   -0.2201 H   0  0  0  0  0  0  0  0  0  0  0  0
   -1.0733   -2.1751   -2.1447 C   0  0  0  0  0  0  0  0  0  0  0  0
   -2.0833   -2.1222   -1.7371 H   0  0  0  0  0  0  0  0  0  0  0  0
   -1.0085   -1.5417   -3.0299 H   0  0  0  0  0  0  0  0  0  0  0  0
   -0.7617   -3.6192   -2.5327 C   0  0  0  0  0  0  0  0  0  0  0  0
    0.2396   -3.6715   -2.9572 H   0  0  0  0  0  0  0  0  0  0  0  0
   -0.8085   -4.2503   -1.6467 H   0  0  0  0  0  0  0  0  0  0  0  0
   -1.7216   -4.1239   -3.5212 N   0  0  0  0  0  0  0  0  0  0  0  0
   -1.4780   -5.0728   -3.7642 H   0  0  0  0  0  0  0  0  0  0  0  0
   -2.6489   -4.1076   -3.1209 H   0  0  0  0  0  0  0  0  0  0  0  0
   -1.2712    1.3099    1.1517 C   0  0  0  0  0  0  0  0  0  0  0  0
   -2.2039    1.9448    0.6639 O   0  0  0  0  0  0  0  0  0  0  0  0
   -0.4306    1.8354    2.0503 N   0  0  0  0  0  0  0  0  0  0  0  0
    0.3001    1.2459    2.4139 H   0  0  0  0  0  0  0  0  0  0  0  0
   -0.5192    3.2082    2.5456 C   0  0  0  0  0  0  0  0  0  0  0  0
   -1.5166    3.3903    2.9518 H   0  0  0  0  0  0  0  0  0  0  0  0
    0.2240    3.3791    3.3257 H   0  0  0  0  0  0  0  0  0  0  0  0
   -0.3477    3.9067    1.7239 H   0  0  0  0  0  0  0  0  0  0  0  0
  5  6  2  0  0  0  0
  5  7  1  0  0  0  0
  2  3  1  0  0  0  0
  2  4  1  0  0  0  0
  2  5  1  0  0  0  0
  1  2  1  0  0  0  0
 26 27  2  0  0  0  0
 26 28  1  0  0  0  0
 23 24  1  0  0  0  0
 23 25  1  0  0  0  0
 20 21  1  0  0  0  0
 20 22  1  0  0  0  0
 20 23  1  0  0  0  0
 17 18  1  0  0  0  0
 17 19  1  0  0  0  0
 17 20  1  0  0  0  0
 14 15  1  0  0  0  0
 14 16  1  0  0  0  0
 14 17  1  0  0  0  0
 11 12  1  0  0  0  0
 11 13  1  0  0  0  0
 11 14  1  0  0  0  0
  9 10  1  0  0  0  0
  9 11  1  0  0  0  0
  9 26  1  0  0  0  0
  7  8  1  0  0  0  0
  7  9  1  0  0  0  0
 30 31  1  0  0  0  0
 30 32  1  0  0  0  0
 30 33  1  0  0  0  0
 28 29  1  0  0  0  0
 28 30  1  0  0  0  0
M  END
$$$$
default_name
  -OEChem-02102213163D

 33 32  0     1  0  0  0  0  0999 V2000
   -3.8420   -3.6918    1.5562 H   0  0  0  0  0  0  0  0  0  0  0  0
   -3.8430   -2.7008    1.1032 C   0  0  0  0  0  0  0  0  0  0  0  0
   -4.5510   -2.0608    1.6242 H   0  0  0  0  0  0  0  0  0  0  0  0
   -4.1140   -2.7798    0.0522 H   0  0  0  0  0  0  0  0  0  0  0  0
   -2.4570   -2.1098    1.2172 C   0  0  0  0  0  0  0  0  0  0  0  0
   -1.5600   -2.7438    1.7572 O   0  0  0  0  0  0  0  0  0  0  0  0
   -2.2870   -0.8898    0.7102 N   0  0  0  0  0  0  0  0  0  0  0  0
   -3.0820   -0.4218    0.2992 H   0  0  0  0  0  0  0  0  0  0  0  0
   -1.0240   -0.1468    0.7262 C   0  0  1  0  0  0  0  0  0  0  0  0
   -0.3583   -0.6100    1.4558 H   0  0  0  0  0  0  0  0  0  0  0  0
   -0.3739   -0.2459   -0.6675 C   0  0  0  0  0  0  0  0  0  0  0  0
   -1.0566    0.1887   -1.4006 H   0  0  0  0  0  0  0  0  0  0  0  0
    0.5494    0.3349   -0.6758 H   0  0  0  0  0  0  0  0  0  0  0  0
   -0.0678   -1.6900   -1.0944 C   0  0  0  0  0  0  0  0  0  0  0  0
    1.0031   -1.8016   -1.2666 H   0  0  0  0  0  0  0  0  0  0  0  0
   -0.3749   -2.3721   -0.2995 H   0  0  0  0  0  0  0  0  0  0  0  0
   -0.8148   -2.0496   -2.3837 C   0  0  0  0  0  0  0  0  0  0  0  0
   -1.8881   -1.9353   -2.2295 H   0  0  0  0  0  0  0  0  0  0  0  0
   -0.4936   -1.3861   -3.1871 H   0  0  0  0  0  0  0  0  0  0  0  0
   -0.5128   -3.4959   -2.7716 C   0  0  0  0  0  0  0  0  0  0  0  0
    0.5563   -3.6081   -2.9442 H   0  0  0  0  0  0  0  0  0  0  0  0
   -0.8167   -4.1585   -1.9629 H   0  0  0  0  0  0  0  0  0  0  0  0
   -1.2321   -3.8812   -3.9912 N   0  0  0  0  0  0  0  0  0  0  0  0
   -0.9991   -4.8351   -4.2251 H   0  0  0  0  0  0  0  0  0  0  0  0
   -2.2261   -3.8094   -3.8263 H   0  0  0  0  0  0  0  0  0  0  0  0
   -1.2712    1.3099    1.1517 C   0  0  0  0  0  0  0  0  0  0  0  0
   -2.2039    1.9448    0.6639 O   0  0  0  0  0  0  0  0  0  0  0  0
   -0.4306    1.8354    2.0503 N   0  0  0  0  0  0  0  0  0  0  0  0
    0.3001    1.2459    2.4139 H   0  0  0  0  0  0  0  0  0  0  0  0
   -0.5192    3.2082    2.5456 C   0  0  0  0  0  0  0  0  0  0  0  0
   -1.5166    3.3903    2.9518 H   0  0  0  0  0  0  0  0  0  0  0  0
    0.2240    3.3791    3.3257 H   0  0  0  0  0  0  0  0  0  0  0  0
   -0.3477    3.9067    1.7239 H   0  0  0  0  0  0  0  0  0  0  0  0
  5  6  2  0  0  0  0
  5  7  1  0  0  0  0
  2  3  1  0  0  0  0
  2  4  1  0  0  0  0
  2  5  1  0  0  0  0
  1  2  1  0  0  0  0
 26 27  2  0  0  0  0
 26 28  1  0  0  0  0
 23 24  1  0  0  0  0
 23 25  1  0  0  0  0
 20 21  1  0  0  0  0
 20 22  1  0  0  0  0
 20 23  1  0  0  0  0
 17 18  1  0  0  0  0
 17 19  1  0  0  0  0
 17 20  1  0  0  0  0
 14 15  1  0  0  0  0
 14 16  1  0  0  0  0
 14 17  1  0  0  0  0
 11 12  1  0  0  0  0
 11 13  1  0  0  0  0
 11 14  1  0  0  0  0
  9 10  1  0  0  0  0
  9 11  1  0  0  0  0
  9 26  1  0  0  0  0
  7  8  1  0  0  0  0
  7  9  1  0  0  0  0
 30 31  1  0  0  0  0
 30 32  1  0  0  0  0
 30 33  1  0  0  0  0
 28 29  1  0  0  0  0
 28 30  1  0  0  0  0
M  END
$$$$
default_name
  -OEChem-02102213163D

 33 32  0     1  0  0  0  0  0999 V2000
   -3.8420   -3.6918    1.5562 H   0  0  0  0  0  0  0  0  0  0  0  0
   -3.8430   -2.7008    1.1032 C   0  0  0  0  0  0  0  0  0  0  0  0
   -4.5510   -2.0608    1.6242 H   0  0  0  0  0  0  0  0  0  0  0  0
   -4.1140   -2.7798    0.0522 H   0  0  0  0  0  0  0  0  0  0  0  0
   -2.4570   -2.1098    1.2172 C   0  0  0  0  0  0  0  0  0  0  0  0
   -1.5600   -2.7438    1.7572 O   0  0  0  0  0  0  0  0  0  0  0  0
   -2.2870   -0.8898    0.7102 N   0  0  0  0  0  0  0  0  0  0  0  0
   -3.0820   -0.4218    0.2992 H   0  0  0  0  0  0  0  0  0  0  0  0
   -1.0240   -0.1468    0.7262 C   0  0  1  0  0  0  0  0  0  0  0  0
   -0.3583   -0.6100    1.4558 H   0  0  0  0  0  0  0  0  0  0  0  0
   -0.3739   -0.2459   -0.6675 C   0  0  0  0  0  0  0  0  0  0  0  0
   -1.0566    0.1887   -1.4006 H   0  0  0  0  0  0  0  0  0  0  0  0
    0.5494    0.3349   -0.6758 H   0  0  0  0  0  0  0  0  0  0  0  0
   -0.0678   -1.6900   -1.0944 C   0  0  0  0  0  0  0  0  0  0  0  0
    1.0030   -1.8776   -1.0095 H   0  0  0  0  0  0  0  0  0  0  0  0
   -0.6044   -2.3792   -0.4398 H   0  0  0  0  0  0  0  0  0  0  0  0
   -0.4978   -1.9347   -2.5452 C   0  0  0  0  0  0  0  0  0  0  0  0
   -1.5664   -1.7433   -2.6479 H   0  0  0  0  0  0  0  0  0  0  0  0
    0.0532   -1.2647   -3.2057 H   0  0  0  0  0  0  0  0  0  0  0  0
   -0.2055   -3.3823   -2.9354 C   0  0  0  0  0  0  0  0  0  0  0  0
    0.8636   -3.5704   -2.8514 H   0  0  0  0  0  0  0  0  0  0  0  0
   -0.7410   -4.0530   -2.2656 H   0  0  0  0  0  0  0  0  0  0  0  0
   -0.6276   -3.6577   -4.3136 N   0  0  0  0  0  0  0  0  0  0  0  0
   -0.4073   -4.6161   -4.5416 H   0  0  0  0  0  0  0  0  0  0  0  0
   -1.6247   -3.5155   -4.3894 H   0  0  0  0  0  0  0  0  0  0  0  0
   -1.2712    1.3099    1.1517 C   0  0  0  0  0  0  0  0  0  0  0  0
   -2.2039    1.9448    0.6639 O   0  0  0  0  0  0  0  0  0  0  0  0
   -0.4306    1.8354    2.0503 N   0  0  0  0  0  0  0  0  0  0  0  0
    0.3001    1.2459    2.4139 H   0  0  0  0  0  0  0  0  0  0  0  0
   -0.5192    3.2082    2.5456 C   0  0  0  0  0  0  0  0  0  0  0  0
   -1.5166    3.3903    2.9518 H   0  0  0  0  0  0  0  0  0  0  0  0
    0.2240    3.3791    3.3257 H   0  0  0  0  0  0  0  0  0  0  0  0
   -0.3477    3.9067    1.7239 H   0  0  0  0  0  0  0  0  0  0  0  0
  5  6  2  0  0  0  0
  5  7  1  0  0  0  0
  2  3  1  0  0  0  0
  2  4  1  0  0  0  0
  2  5  1  0  0  0  0
  1  2  1  0  0  0  0
 26 27  2  0  0  0  0
 26 28  1  0  0  0  0
 23 24  1  0  0  0  0
 23 25  1  0  0  0  0
 20 21  1  0  0  0  0
 20 22  1  0  0  0  0
 20 23  1  0  0  0  0
 17 18  1  0  0  0  0
 17 19  1  0  0  0  0
 17 20  1  0  0  0  0
 14 15  1  0  0  0  0
 14 16  1  0  0  0  0
 14 17  1  0  0  0  0
 11 12  1  0  0  0  0
 11 13  1  0  0  0  0
 11 14  1  0  0  0  0
  9 10  1  0  0  0  0
  9 11  1  0  0  0  0
  9 26  1  0  0  0  0
  7  8  1  0  0  0  0
  7  9  1  0  0  0  0
 30 31  1  0  0  0  0
 30 32  1  0  0  0  0
 30 33  1  0  0  0  0
 28 29  1  0  0  0  0
 28 30  1  0  0  0  0
M  END
$$$$
default_name
  -OEChem-02102213163D

 33 32  0     1  0  0  0  0  0999 V2000
   -3.8420   -3.6918    1.5562 H   0  0  0  0  0  0  0  0  0  0  0  0
   -3.8430   -2.7008    1.1032 C   0  0  0  0  0  0  0  0  0  0  0  0
   -4.5510   -2.0608    1.6242 H   0  0  0  0  0  0  0  0  0  0  0  0
   -4.1140   -2.7798    0.0522 H   0  0  0  0  0  0  0  0  0  0  0  0
   -2.4570   -2.1098    1.2172 C   0  0  0  0  0  0  0  0  0  0  0  0
   -1.5600   -2.7438    1.7572 O   0  0  0  0  0  0  0  0  0  0  0  0
   -2.2870   -0.8898    0.7102 N   0  0  0  0  0  0  0  0  0  0  0  0
   -3.0820   -0.4218    0.2992 H   0  0  0  0  0  0  0  0  0  0  0  0
   -1.0240   -0.1468    0.7262 C   0  0  1  0  0  0  0  0  0  0  0  0
   -0.3583   -0.6100    1.4558 H   0  0  0  0  0  0  0  0  0  0  0  0
   -0.3739   -0.2459   -0.6675 C   0  0  0  0  0  0  0  0  0  0  0  0
   -1.0566    0.1887   -1.4006 H   0  0  0  0  0  0  0  0  0  0  0  0
    0.5494    0.3349   -0.6758 H   0  0  0  0  0  0  0  0  0  0  0  0
   -0.0678   -1.6900   -1.0944 C   0  0  0  0  0  0  0  0  0  0  0  0
    0.9348   -1.9643   -0.7651 H   0  0  0  0  0  0  0  0  0  0  0  0
   -0.7924   -2.3624   -0.6316 H   0  0  0  0  0  0  0  0  0  0  0  0
   -0.1442   -1.8382   -2.6182 C   0  0  0  0  0  0  0  0  0  0  0  0
   -1.1401   -1.5595   -2.9640 H   0  0  0  0  0  0  0  0  0  0  0  0
    0.5947   -1.1858   -3.0844 H   0  0  0  0  0  0  0  0  0  0  0  0
    0.1394   -3.2862   -3.0131 C   0  0  0  0  0  0  0  0  0  0  0  0
    1.1406   -3.5609   -2.6851 H   0  0  0  0  0  0  0  0  0  0  0  0
   -0.5868   -3.9409   -2.5341 H   0  0  0  0  0  0  0  0  0  0  0  0
    0.0509   -3.4687   -4.4664 N   0  0  0  0  0  0  0  0  0  0  0  0
    0.2570   -4.4307   -4.6920 H   0  0  0  0  0  0  0  0  0  0  0  0
   -0.8858   -3.2457   -4.7719 H   0  0  0  0  0  0  0  0  0  0  0  0
   -1.2712    1.3099    1.1517 C   0  0  0  0  0  0  0  0  0  0  0  0
   -2.2039    1.9448    0.6639 O   0  0  0  0  0  0  0  0  0  0  0  0
   -0.4306    1.8354    2.0503 N   0  0  0  0  0  0  0  0  0  0  0  0
    0.3001    1.2459    2.4139 H   0  0  0  0  0  0  0  0  0  0  0  0
   -0.5192    3.2082    2.5456 C   0  0  0  0  0  0  0  0  0  0  0  0
   -1.5166    3.3903    2.9518 H   0  0  0  0  0  0  0  0  0  0  0  0
    0.2240    3.3791    3.3257 H   0  0  0  0  0  0  0  0  0  0  0  0
   -0.3477    3.9067    1.7239 H   0  0  0  0  0  0  0  0  0  0  0  0
  5  6  2  0  0  0  0
  5  7  1  0  0  0  0
  2  3  1  0  0  0  0
  2  4  1  0  0  0  0
  2  5  1  0  0  0  0
  1  2  1  0  0  0  0
 26 27  2  0  0  0  0
 26 28  1  0  0  0  0
 23 24  1  0  0  0  0
 23 25  1  0  0  0  0
 20 21  1  0  0  0  0
 20 22  1  0  0  0  0
 20 23  1  0  0  0  0
 17 18  1  0  0  0  0
 17 19  1  0  0  0  0
 17 20  1  0  0  0  0
 14 15  1  0  0  0  0
 14 16  1  0  0  0  0
 14 17  1  0  0  0  0
 11 12  1  0  0  0  0
 11 13  1  0  0  0  0
 11 14  1  0  0  0  0
  9 10  1  0  0  0  0
  9 11  1  0  0  0  0
  9 26  1  0  0  0  0
  7  8  1  0  0  0  0
  7  9  1  0  0  0  0
 30 31  1  0  0  0  0
 30 32  1  0  0  0  0
 30 33  1  0  0  0  0
 28 29  1  0  0  0  0
 28 30  1  0  0  0  0
M  END
$$$$
default_name
  -OEChem-02102213163D

 33 32  0     1  0  0  0  0  0999 V2000
   -3.8420   -3.6918    1.5562 H   0  0  0  0  0  0  0  0  0  0  0  0
   -3.8430   -2.7008    1.1032 C   0  0  0  0  0  0  0  0  0  0  0  0
   -4.5510   -2.0608    1.6242 H   0  0  0  0  0  0  0  0  0  0  0  0
   -4.1140   -2.7798    0.0522 H   0  0  0  0  0  0  0  0  0  0  0  0
   -2.4570   -2.1098    1.2172 C   0  0  0  0  0  0  0  0  0  0  0  0
   -1.5600   -2.7438    1.7572 O   0  0  0  0  0  0  0  0  0  0  0  0
   -2.2870   -0.8898    0.7102 N   0  0  0  0  0  0  0  0  0  0  0  0
   -3.0820   -0.4218    0.2992 H   0  0  0  0  0  0  0  0  0  0  0  0
   -1.0240   -0.1468    0.7262 C   0  0  1  0  0  0  0  0  0  0  0  0
   -0.3583   -0.6100    1.4558 H   0  0  0  0  0  0  0  0  0  0  0  0
   -0.3739   -0.2459   -0.6675 C   0  0  0  0  0  0  0  0  0  0  0  0
   -1.0566    0.1887   -1.4006 H   0  0  0  0  0  0  0  0  0  0  0  0
    0.5494    0.3349   -0.6758 H   0  0  0  0  0  0  0  0  0  0  0  0
   -0.0678   -1.6900   -1.0944 C   0  0  0  0  0  0  0  0  0  0  0  0
    0.8033   -2.0557   -0.5501 H   0  0  0  0  0  0  0  0  0  0  0  0
   -0.9262   -2.3227   -0.8617 H   0  0  0  0  0  0  0  0  0  0  0  0
    0.2221   -1.7666   -2.5977 C   0  0  0  0  0  0  0  0  0  0  0  0
   -0.6382   -1.3963   -3.1561 H   0  0  0  0  0  0  0  0  0  0  0  0
    1.0938   -1.1547   -2.8315 H   0  0  0  0  0  0  0  0  0  0  0  0
    0.4983   -3.2142   -2.9993 C   0  0  0  0  0  0  0  0  0  0  0  0
    1.3684   -3.5802   -2.4565 H   0  0  0  0  0  0  0  0  0  0  0  0
   -0.3644   -3.8299   -2.7502 H   0  0  0  0  0  0  0  0  0  0  0  0
    0.7570   -3.3270   -4.4393 N   0  0  0  0  0  0  0  0  0  0  0  0
    0.9486   -4.2918   -4.6662 H   0  0  0  0  0  0  0  0  0  0  0  0
   -0.0595   -3.0186   -4.9477 H   0  0  0  0  0  0  0  0  0  0  0  0
   -1.2712    1.3099    1.1517 C   0  0  0  0  0  0  0  0  0  0  0  0
   -2.2039    1.9448    0.6639 O   0  0  0  0  0  0  0  0  0  0  0  0
   -0.4306    1.8354    2.0503 N   0  0  0  0  0  0  0  0  0  0  0  0
    0.3001    1.2459    2.4139 H   0  0  0  0  0  0  0  0  0  0  0  0
   -0.5192    3.2082    2.5456 C   0  0  0  0  0  0  0  0  0  0  0  0
   -1.5166    3.3903    2.9518 H   0  0  0  0  0  0  0  0  0  0  0  0
    0.2240    3.3791    3.3257 H   0  0  0  0  0  0  0  0  0  0  0  0
   -0.3477    3.9067    1.7239 H   0  0  0  0  0  0  0  0  0  0  0  0
  5  6  2  0  0  0  0
  5  7  1  0  0  0  0
  2  3  1  0  0  0  0
  2  4  1  0  0  0  0
  2  5  1  0  0  0  0
  1  2  1  0  0  0  0
 26 27  2  0  0  0  0
 26 28  1  0  0  0  0
 23 24  1  0  0  0  0
 23 25  1  0  0  0  0
 20 21  1  0  0  0  0
 20 22  1  0  0  0  0
 20 23  1  0  0  0  0
 17 18  1  0  0  0  0
 17 19  1  0  0  0  0
 17 20  1  0  0  0  0
 14 15  1  0  0  0  0
 14 16  1  0  0  0  0
 14 17  1  0  0  0  0
 11 12  1  0  0  0  0
 11 13  1  0  0  0  0
 11 14  1  0  0  0  0
  9 10  1  0  0  0  0
  9 11  1  0  0  0  0
  9 26  1  0  0  0  0
  7  8  1  0  0  0  0
  7  9  1  0  0  0  0
 30 31  1  0  0  0  0
 30 32  1  0  0  0  0
 30 33  1  0  0  0  0
 28 29  1  0  0  0  0
 28 30  1  0  0  0  0
M  END
$$$$
default_name
  -OEChem-02102213163D

 33 32  0     1  0  0  0  0  0999 V2000
   -3.8420   -3.6918    1.5562 H   0  0  0  0  0  0  0  0  0  0  0  0
   -3.8430   -2.7008    1.1032 C   0  0  0  0  0  0  0  0  0  0  0  0
   -4.5510   -2.0608    1.6242 H   0  0  0  0  0  0  0  0  0  0  0  0
   -4.1140   -2.7798    0.0522 H   0  0  0  0  0  0  0  0  0  0  0  0
   -2.4570   -2.1098    1.2172 C   0  0  0  0  0  0  0  0  0  0  0  0
   -1.5600   -2.7438    1.7572 O   0  0  0  0  0  0  0  0  0  0  0  0
   -2.2870   -0.8898    0.7102 N   0  0  0  0  0  0  0  0  0  0  0  0
   -3.0820   -0.4218    0.2992 H   0  0  0  0  0  0  0  0  0  0  0  0
   -1.0240   -0.1468    0.7262 C   0  0  1  0  0  0  0  0  0  0  0  0
   -0.3583   -0.6100    1.4558 H   0  0  0  0  0  0  0  0  0  0  0  0
   -0.3739   -0.2459   -0.6675 C   0  0  0  0  0  0  0  0  0  0  0  0
   -0.9144    0.4129   -1.3502 H   0  0  0  0  0  0  0  0  0  0  0  0
    0.6592    0.0991   -0.6078 H   0  0  0  0  0  0  0  0  0  0  0  0
   -0.4004   -1.6672   -1.2511 C   0  0  0  0  0  0  0  0  0  0  0  0
    0.1382   -2.3451   -0.5884 H   0  0  0  0  0  0  0  0  0  0  0  0
   -1.4362   -2.0003   -1.3382 H   0  0  0  0  0  0  0  0  0  0  0  0
    0.2585   -1.7030   -2.6347 C   0  0  0  0  0  0  0  0  0  0  0  0
   -0.2649   -1.0232   -3.3077 H   0  0  0  0  0  0  0  0  0  0  0  0
    1.3007   -1.3938   -2.5492 H   0  0  0  0  0  0  0  0  0  0  0  0
    0.1967   -3.1200   -3.2018 C   0  0  0  0  0  0  0  0  0  0  0  0
    0.7347   -3.7977   -2.5409 H   0  0  0  0  0  0  0  0  0  0  0  0
   -0.8426   -3.4371   -3.2712 H   0  0  0  0  0  0  0  0  0  0  0  0
    0.7989   -3.1852   -4.5384 N   0  0  0  0  0  0  0  0  0  0  0  0
    0.7533   -4.1356   -4.8756 H   0  0  0  0  0  0  0  0  0  0  0  0
    0.2834   -2.5822   -5.1638 H   0  0  0  0  0  0  0  0  0  0  0  0
   -1.2712    1.3099    1.1517 C   0  0  0  0  0  0  0  0  0  0  0  0
   -2.2039    1.9448    0.6639 O   0  0  0  0  0  0  0  0  0  0  0  0
   -0.4306    1.8354    2.0503 N   0  0  0  0  0  0  0  0  0  0  0  0
    0.3001    1.2459    2.4139 H   0  0  0  0  0  0  0  0  0  0  0  0
   -0.5192    3.2082    2.5456 C   0  0  0  0  0  0  0  0  0  0  0  0
   -1.5166    3.3903    2.9518 H   0  0  0  0  0  0  0  0  0  0  0  0
    0.2240    3.3791    3.3257 H   0  0  0  0  0  0  0  0  0  0  0  0
   -0.3477    3.9067    1.7239 H   0  0  0  0  0  0  0  0  0  0  0  0
  5  6  2  0  0  0  0
  5  7  1  0  0  0  0
  2  3  1  0  0  0  0
  2  4  1  0  0  0  0
  2  5  1  0  0  0  0
  1  2  1  0  0  0  0
 26 27  2  0  0  0  0
 26 28  1  0  0  0  0
 23 24  1  0  0  0  0
 23 25  1  0  0  0  0
 20 21  1  0  0  0  0
 20 22  1  0  0  0  0
 20 23  1  0  0  0  0
 17 18  1  0  0  0  0
 17 19  1  0  0  0  0
 17 20  1  0  0  0  0
 14 15  1  0  0  0  0
 14 16  1  0  0  0  0
 14 17  1  0  0  0  0
 11 12  1  0  0  0  0
 11 13  1  0  0  0  0
 11 14  1  0  0  0  0
  9 10  1  0  0  0  0
  9 11  1  0  0  0  0
  9 26  1  0  0  0  0
  7  8  1  0  0  0  0
  7  9  1  0  0  0  0
 30 31  1  0  0  0  0
 30 32  1  0  0  0  0
 30 33  1  0  0  0  0
 28 29  1  0  0  0  0
 28 30  1  0  0  0  0
M  END
$$$$
default_name
  -OEChem-02102213163D

 33 32  0     1  0  0  0  0  0999 V2000
   -3.8420   -3.6918    1.5562 H   0  0  0  0  0  0  0  0  0  0  0  0
   -3.8430   -2.7008    1.1032 C   0  0  0  0  0  0  0  0  0  0  0  0
   -4.5510   -2.0608    1.6242 H   0  0  0  0  0  0  0  0  0  0  0  0
   -4.1140   -2.7798    0.0522 H   0  0  0  0  0  0  0  0  0  0  0  0
   -2.4570   -2.1098    1.2172 C   0  0  0  0  0  0  0  0  0  0  0  0
   -1.5600   -2.7438    1.7572 O   0  0  0  0  0  0  0  0  0  0  0  0
   -2.2870   -0.8898    0.7102 N   0  0  0  0  0  0  0  0  0  0  0  0
   -3.0820   -0.4218    0.2992 H   0  0  0  0  0  0  0  0  0  0  0  0
   -1.0240   -0.1468    0.7262 C   0  0  1  0  0  0  0  0  0  0  0  0
   -0.3583   -0.6100    1.4558 H   0  0  0  0  0  0  0  0  0  0  0  0
   -0.3739   -0.2459   -0.6675 C   0  0  0  0  0  0  0  0  0  0  0  0
   -0.9144    0.4129   -1.3502 H   0  0  0  0  0  0  0  0  0  0  0  0
    0.6592    0.0991   -0.6078 H   0  0  0  0  0  0  0  0  0  0  0  0
   -0.4004   -1.6672   -1.2511 C   0  0  0  0  0  0  0  0  0  0  0  0
   -0.1057   -2.3835   -0.4838 H   0  0  0  0  0  0  0  0  0  0  0  0
   -1.4130   -1.8988   -1.5863 H   0  0  0  0  0  0  0  0  0  0  0  0
    0.5634   -1.7900   -2.4368 C   0  0  0  0  0  0  0  0  0  0  0  0
    0.2860   -1.0734   -3.2104 H   0  0  0  0  0  0  0  0  0  0  0  0
    1.5802   -1.5828   -2.1017 H   0  0  0  0  0  0  0  0  0  0  0  0
    0.4992   -3.2032   -3.0128 C   0  0  0  0  0  0  0  0  0  0  0  0
    0.7938   -3.9193   -2.2473 H   0  0  0  0  0  0  0  0  0  0  0  0
   -0.5193   -3.4183   -3.3316 H   0  0  0  0  0  0  0  0  0  0  0  0
    1.3941   -3.3489   -4.1666 N   0  0  0  0  0  0  0  0  0  0  0  0
    1.3368   -4.2957   -4.5120 H   0  0  0  0  0  0  0  0  0  0  0  0
    1.1054   -2.7089   -4.8927 H   0  0  0  0  0  0  0  0  0  0  0  0
   -1.2712    1.3099    1.1517 C   0  0  0  0  0  0  0  0  0  0  0  0
   -2.2039    1.9448    0.6639 O   0  0  0  0  0  0  0  0  0  0  0  0
   -0.4306    1.8354    2.0503 N   0  0  0  0  0  0  0  0  0  0  0  0
    0.3001    1.2459    2.4139 H   0  0  0  0  0  0  0  0  0  0  0  0
   -0.5192    3.2082    2.5456 C   0  0  0  0  0  0  0  0  0  0  0  0
   -1.5166    3.3903    2.9518 H   0  0  0  0  0  0  0  0  0  0  0  0
    0.2240    3.3791    3.3257 H   0  0  0  0  0  0  0  0  0  0  0  0
   -0.3477    3.9067    1.7239 H   0  0  0  0  0  0  0  0  0  0  0  0
  5  6  2  0  0  0  0
  5  7  1  0  0  0  0
  2  3  1  0  0  0  0
  2  4  1  0  0  0  0
  2  5  1  0  0  0  0
  1  2  1  0  0  0  0
 26 27  2  0  0  0  0
 26 28  1  0  0  0  0
 23 24  1  0  0  0  0
 23 25  1  0  0  0  0
 20 21  1  0  0  0  0
 20 22  1  0  0  0  0
 20 23  1  0  0  0  0
 17 18  1  0  0  0  0
 17 19  1  0  0  0  0
 17 20  1  0  0  0  0
 14 15  1  0  0  0  0
 14 16  1  0  0  0  0
 14 17  1  0  0  0  0
 11 12  1  0  0  0  0
 11 13  1  0  0  0  0
 11 14  1  0  0  0  0
  9 10  1  0  0  0  0
  9 11  1  0  0  0  0
  9 26  1  0  0  0  0
  7  8  1  0  0  0  0
  7  9  1  0  0  0  0
 30 31  1  0  0  0  0
 30 32  1  0  0  0  0
 30 33  1  0  0  0  0
 28 29  1  0  0  0  0
 28 30  1  0  0  0  0
M  END
$$$$
default_name
  -OEChem-02102213163D

 33 32  0     1  0  0  0  0  0999 V2000
   -3.8420   -3.6918    1.5562 H   0  0  0  0  0  0  0  0  0  0  0  0
   -3.8430   -2.7008    1.1032 C   0  0  0  0  0  0  0  0  0  0  0  0
   -4.5510   -2.0608    1.6242 H   0  0  0  0  0  0  0  0  0  0  0  0
   -4.1140   -2.7798    0.0522 H   0  0  0  0  0  0  0  0  0  0  0  0
   -2.4570   -2.1098    1.2172 C   0  0  0  0  0  0  0  0  0  0  0  0
   -1.5600   -2.7438    1.7572 O   0  0  0  0  0  0  0  0  0  0  0  0
   -2.2870   -0.8898    0.7102 N   0  0  0  0  0  0  0  0  0  0  0  0
   -3.0820   -0.4218    0.2992 H   0  0  0  0  0  0  0  0  0  0  0  0
   -1.0240   -0.1468    0.7262 C   0  0  1  0  0  0  0  0  0  0  0  0
   -0.3583   -0.6100    1.4558 H   0  0  0  0  0  0  0  0  0  0  0  0
   -0.3739   -0.2459   -0.6675 C   0  0  0  0  0  0  0  0  0  0  0  0
   -0.9144    0.4129   -1.3502 H   0  0  0  0  0  0  0  0  0  0  0  0
    0.6592    0.0991   -0.6078 H   0  0  0  0  0  0  0  0  0  0  0  0
   -0.4004   -1.6672   -1.2511 C   0  0  0  0  0  0  0  0  0  0  0  0
   -0.3700   -2.3962   -0.4409 H   0  0  0  0  0  0  0  0  0  0  0  0
   -1.3213   -1.8042   -1.8209 H   0  0  0  0  0  0  0  0  0  0  0  0
    0.8020   -1.9031   -2.1722 C   0  0  0  0  0  0  0  0  0  0  0  0
    0.7899   -1.1756   -2.9843 H   0  0  0  0  0  0  0  0  0  0  0  0
    1.7245   -1.7908   -1.6018 H   0  0  0  0  0  0  0  0  0  0  0  0
    0.7381   -3.3126   -2.7574 C   0  0  0  0  0  0  0  0  0  0  0  0
    0.7688   -4.0413   -1.9490 H   0  0  0  0  0  0  0  0  0  0  0  0
   -0.1908   -3.4323   -3.3126 H   0  0  0  0  0  0  0  0  0  0  0  0
    1.8640   -3.5640   -3.6642 N   0  0  0  0  0  0  0  0  0  0  0  0
    1.7977   -4.5062   -4.0204 H   0  0  0  0  0  0  0  0  0  0  0  0
    1.8221   -2.9108   -4.4336 H   0  0  0  0  0  0  0  0  0  0  0  0
   -1.2712    1.3099    1.1517 C   0  0  0  0  0  0  0  0  0  0  0  0
   -2.2039    1.9448    0.6639 O   0  0  0  0  0  0  0  0  0  0  0  0
   -0.4306    1.8354    2.0503 N   0  0  0  0  0  0  0  0  0  0  0  0
    0.3001    1.2459    2.4139 H   0  0  0  0  0  0  0  0  0  0  0  0
   -0.5192    3.2082    2.5456 C   0  0  0  0  0  0  0  0  0  0  0  0
   -1.5166    3.3903    2.9518 H   0  0  0  0  0  0  0  0  0  0  0  0
    0.2240    3.3791    3.3257 H   0  0  0  0  0  0  0  0  0  0  0  0
   -0.3477    3.9067    1.7239 H   0  0  0  0  0  0  0  0  0  0  0  0
  5  6  2  0  0  0  0
  5  7  1  0  0  0  0
  2  3  1  0  0  0  0
  2  4  1  0  0  0  0
  2  5  1  0  0  0  0
  1  2  1  0  0  0  0
 26 27  2  0  0  0  0
 26 28  1  0  0  0  0
 23 24  1  0  0  0  0
 23 25  1  0  0  0  0
 20 21  1  0  0  0  0
 20 22  1  0  0  0  0
 20 23  1  0  0  0  0
 17 18  1  0  0  0  0
 17 19  1  0  0  0  0
 17 20  1  0  0  0  0
 14 15  1  0  0  0  0
 14 16  1  0  0  0  0
 14 17  1  0  0  0  0
 11 12  1  0  0  0  0
 11 13  1  0  0  0  0
 11 14  1  0  0  0  0
  9 10  1  0  0  0  0
  9 11  1  0  0  0  0
  9 26  1  0  0  0  0
  7  8  1  0  0  0  0
  7  9  1  0  0  0  0
 30 31  1  0  0  0  0
 30 32  1  0  0  0  0
 30 33  1  0  0  0  0
 28 29  1  0  0  0  0
 28 30  1  0  0  0  0
M  END
$$$$
default_name
  -OEChem-02102213163D

 33 32  0     1  0  0  0  0  0999 V2000
   -3.8420   -3.6918    1.5562 H   0  0  0  0  0  0  0  0  0  0  0  0
   -3.8430   -2.7008    1.1032 C   0  0  0  0  0  0  0  0  0  0  0  0
   -4.5510   -2.0608    1.6242 H   0  0  0  0  0  0  0  0  0  0  0  0
   -4.1140   -2.7798    0.0522 H   0  0  0  0  0  0  0  0  0  0  0  0
   -2.4570   -2.1098    1.2172 C   0  0  0  0  0  0  0  0  0  0  0  0
   -1.5600   -2.7438    1.7572 O   0  0  0  0  0  0  0  0  0  0  0  0
   -2.2870   -0.8898    0.7102 N   0  0  0  0  0  0  0  0  0  0  0  0
   -3.0820   -0.4218    0.2992 H   0  0  0  0  0  0  0  0  0  0  0  0
   -1.0240   -0.1468    0.7262 C   0  0  1  0  0  0  0  0  0  0  0  0
   -0.3583   -0.6100    1.4558 H   0  0  0  0  0  0  0  0  0  0  0  0
   -0.3739   -0.2459   -0.6675 C   0  0  0  0  0  0  0  0  0  0  0  0
   -0.9144    0.4129   -1.3502 H   0  0  0  0  0  0  0  0  0  0  0  0
    0.6592    0.0991   -0.6078 H   0  0  0  0  0  0  0  0  0  0  0  0
   -0.4004   -1.6672   -1.2511 C   0  0  0  0  0  0  0  0  0  0  0  0
   -0.6369   -2.3823   -0.4628 H   0  0  0  0  0  0  0  0  0  0  0  0
   -1.1672   -1.7228   -2.0260 H   0  0  0  0  0  0  0  0  0  0  0  0
    0.9580   -2.0346   -1.8590 C   0  0  0  0  0  0  0  0  0  0  0  0
    1.2124   -1.3228   -2.6449 H   0  0  0  0  0  0  0  0  0  0  0  0
    1.7237   -2.0037   -1.0833 H   0  0  0  0  0  0  0  0  0  0  0  0
    0.8969   -3.4405   -2.4531 C   0  0  0  0  0  0  0  0  0  0  0  0
    0.6612   -4.1554   -1.6664 H   0  0  0  0  0  0  0  0  0  0  0  0
    0.1206   -3.4779   -3.2155 H   0  0  0  0  0  0  0  0  0  0  0  0
    2.1765   -3.8156   -3.0656 N   0  0  0  0  0  0  0  0  0  0  0  0
    2.1045   -4.7526   -3.4344 H   0  0  0  0  0  0  0  0  0  0  0  0
    2.3846   -3.1742   -3.8176 H   0  0  0  0  0  0  0  0  0  0  0  0
   -1.2712    1.3099    1.1517 C   0  0  0  0  0  0  0  0  0  0  0  0
   -2.2039    1.9448    0.6639 O   0  0  0  0  0  0  0  0  0  0  0  0
   -0.4306    1.8354    2.0503 N   0  0  0  0  0  0  0  0  0  0  0  0
    0.3001    1.2459    2.4139 H   0  0  0  0  0  0  0  0  0  0  0  0
   -0.5192    3.2082    2.5456 C   0  0  0  0  0  0  0  0  0  0  0  0
   -1.5166    3.3903    2.9518 H   0  0  0  0  0  0  0  0  0  0  0  0
    0.2240    3.3791    3.3257 H   0  0  0  0  0  0  0  0  0  0  0  0
   -0.3477    3.9067    1.7239 H   0  0  0  0  0  0  0  0  0  0  0  0
  5  6  2  0  0  0  0
  5  7  1  0  0  0  0
  2  3  1  0  0  0  0
  2  4  1  0  0  0  0
  2  5  1  0  0  0  0
  1  2  1  0  0  0  0
 26 27  2  0  0  0  0
 26 28  1  0  0  0  0
 23 24  1  0  0  0  0
 23 25  1  0  0  0  0
 20 21  1  0  0  0  0
 20 22  1  0  0  0  0
 20 23  1  0  0  0  0
 17 18  1  0  0  0  0
 17 19  1  0  0  0  0
 17 20  1  0  0  0  0
 14 15  1  0  0  0  0
 14 16  1  0  0  0  0
 14 17  1  0  0  0  0
 11 12  1  0  0  0  0
 11 13  1  0  0  0  0
 11 14  1  0  0  0  0
  9 10  1  0  0  0  0
  9 11  1  0  0  0  0
  9 26  1  0  0  0  0
  7  8  1  0  0  0  0
  7  9  1  0  0  0  0
 30 31  1  0  0  0  0
 30 32  1  0  0  0  0
 30 33  1  0  0  0  0
 28 29  1  0  0  0  0
 28 30  1  0  0  0  0
M  END
$$$$
default_name
  -OEChem-02102213163D

 33 32  0     1  0  0  0  0  0999 V2000
   -3.8420   -3.6918    1.5562 H   0  0  0  0  0  0  0  0  0  0  0  0
   -3.8430   -2.7008    1.1032 C   0  0  0  0  0  0  0  0  0  0  0  0
   -4.5510   -2.0608    1.6242 H   0  0  0  0  0  0  0  0  0  0  0  0
   -4.1140   -2.7798    0.0522 H   0  0  0  0  0  0  0  0  0  0  0  0
   -2.4570   -2.1098    1.2172 C   0  0  0  0  0  0  0  0  0  0  0  0
   -1.5600   -2.7438    1.7572 O   0  0  0  0  0  0  0  0  0  0  0  0
   -2.2870   -0.8898    0.7102 N   0  0  0  0  0  0  0  0  0  0  0  0
   -3.0820   -0.4218    0.2992 H   0  0  0  0  0  0  0  0  0  0  0  0
   -1.0240   -0.1468    0.7262 C   0  0  1  0  0  0  0  0  0  0  0  0
   -0.3583   -0.6100    1.4558 H   0  0  0  0  0  0  0  0  0  0  0  0
   -0.3739   -0.2459   -0.6675 C   0  0  0  0  0  0  0  0  0  0  0  0
   -0.9144    0.4129   -1.3502 H   0  0  0  0  0  0  0  0  0  0  0  0
    0.6592    0.0991   -0.6078 H   0  0  0  0  0  0  0  0  0  0  0  0
   -0.4004   -1.6672   -1.2511 C   0  0  0  0  0  0  0  0  0  0  0  0
   -0.8881   -2.3427   -0.5478 H   0  0  0  0  0  0  0  0  0  0  0  0
   -0.9612   -1.6603   -2.1875 H   0  0  0  0  0  0  0  0  0  0  0  0
    1.0208   -2.1756   -1.5186 C   0  0  0  0  0  0  0  0  0  0  0  0
    1.5249   -1.5051   -2.2153 H   0  0  0  0  0  0  0  0  0  0  0  0
    1.5780   -2.2070   -0.5818 H   0  0  0  0  0  0  0  0  0  0  0  0
    0.9648   -3.5783   -2.1205 C   0  0  0  0  0  0  0  0  0  0  0  0
    0.4784   -4.2538   -1.4186 H   0  0  0  0  0  0  0  0  0  0  0  0
    0.3936   -3.5522   -3.0470 H   0  0  0  0  0  0  0  0  0  0  0  0
    2.3103   -4.0868   -2.4114 N   0  0  0  0  0  0  0  0  0  0  0  0
    2.2363   -5.0181   -2.7937 H   0  0  0  0  0  0  0  0  0  0  0  0
    2.7545   -3.4812   -3.0868 H   0  0  0  0  0  0  0  0  0  0  0  0
   -1.2712    1.3099    1.1517 C   0  0  0  0  0  0  0  0  0  0  0  0
   -2.2039    1.9448    0.6639 O   0  0  0  0  0  0  0  0  0  0  0  0
   -0.4306    1.8354    2.0503 N   0  0  0  0  0  0  0  0  0  0  0  0
    0.3001    1.2459    2.4139 H   0  0  0  0  0  0  0  0  0  0  0  0
   -0.5192    3.2082    2.5456 C   0  0  0  0  0  0  0  0  0  0  0  0
   -1.5166    3.3903    2.9518 H   0  0  0  0  0  0  0  0  0  0  0  0
    0.2240    3.3791    3.3257 H   0  0  0  0  0  0  0  0  0  0  0  0
   -0.3477    3.9067    1.7239 H   0  0  0  0  0  0  0  0  0  0  0  0
  5  6  2  0  0  0  0
  5  7  1  0  0  0  0
  2  3  1  0  0  0  0
  2  4  1  0  0  0  0
  2  5  1  0  0  0  0
  1  2  1  0  0  0  0
 26 27  2  0  0  0  0
 26 28  1  0  0  0  0
 23 24  1  0  0  0  0
 23 25  1  0  0  0  0
 20 21  1  0  0  0  0
 20 22  1  0  0  0  0
 20 23  1  0  0  0  0
 17 18  1  0  0  0  0
 17 19  1  0  0  0  0
 17 20  1  0  0  0  0
 14 15  1  0  0  0  0
 14 16  1  0  0  0  0
 14 17  1  0  0  0  0
 11 12  1  0  0  0  0
 11 13  1  0  0  0  0
 11 14  1  0  0  0  0
  9 10  1  0  0  0  0
  9 11  1  0  0  0  0
  9 26  1  0  0  0  0
  7  8  1  0  0  0  0
  7  9  1  0  0  0  0
 30 31  1  0  0  0  0
 30 32  1  0  0  0  0
 30 33  1  0  0  0  0
 28 29  1  0  0  0  0
 28 30  1  0  0  0  0
M  END
$$$$
default_name
  -OEChem-02102213163D

 33 32  0     1  0  0  0  0  0999 V2000
   -3.8420   -3.6918    1.5562 H   0  0  0  0  0  0  0  0  0  0  0  0
   -3.8430   -2.7008    1.1032 C   0  0  0  0  0  0  0  0  0  0  0  0
   -4.5510   -2.0608    1.6242 H   0  0  0  0  0  0  0  0  0  0  0  0
   -4.1140   -2.7798    0.0522 H   0  0  0  0  0  0  0  0  0  0  0  0
   -2.4570   -2.1098    1.2172 C   0  0  0  0  0  0  0  0  0  0  0  0
   -1.5600   -2.7438    1.7572 O   0  0  0  0  0  0  0  0  0  0  0  0
   -2.2870   -0.8898    0.7102 N   0  0  0  0  0  0  0  0  0  0  0  0
   -3.0820   -0.4218    0.2992 H   0  0  0  0  0  0  0  0  0  0  0  0
   -1.0240   -0.1468    0.7262 C   0  0  1  0  0  0  0  0  0  0  0  0
   -0.3583   -0.6100    1.4558 H   0  0  0  0  0  0  0  0  0  0  0  0
   -0.3739   -0.2459   -0.6675 C   0  0  0  0  0  0  0  0  0  0  0  0
   -0.9144    0.4129   -1.3502 H   0  0  0  0  0  0  0  0  0  0  0  0
    0.6592    0.0991   -0.6078 H   0  0  0  0  0  0  0  0  0  0  0  0
   -0.4004   -1.6672   -1.2511 C   0  0  0  0  0  0  0  0  0  0  0  0
   -1.1064   -2.2801   -0.6902 H   0  0  0  0  0  0  0  0  0  0  0  0
   -0.7175   -1.6209   -2.2946 H   0  0  0  0  0  0  0  0  0  0  0  0
    0.9861   -2.3164   -1.1741 C   0  0  0  0  0  0  0  0  0  0  0  0
    1.7059   -1.7100   -1.7246 H   0  0  0  0  0  0  0  0  0  0  0  0
    1.2972   -2.3867   -0.1314 H   0  0  0  0  0  0  0  0  0  0  0  0
    0.9373   -3.7167   -1.7824 C   0  0  0  0  0  0  0  0  0  0  0  0
    0.2328   -4.3297   -1.2226 H   0  0  0  0  0  0  0  0  0  0  0  0
    0.6097   -3.6500   -2.8186 H   0  0  0  0  0  0  0  0  0  0  0  0
    2.2562   -4.3589   -1.7463 N   0  0  0  0  0  0  0  0  0  0  0  0
    2.1842   -5.2847   -2.1422 H   0  0  0  0  0  0  0  0  0  0  0  0
    2.9067   -3.8108   -2.2910 H   0  0  0  0  0  0  0  0  0  0  0  0
   -1.2712    1.3099    1.1517 C   0  0  0  0  0  0  0  0  0  0  0  0
   -2.2039    1.9448    0.6639 O   0  0  0  0  0  0  0  0  0  0  0  0
   -0.4306    1.8354    2.0503 N   0  0  0  0  0  0  0  0  0  0  0  0
    0.3001    1.2459    2.4139 H   0  0  0  0  0  0  0  0  0  0  0  0
   -0.5192    3.2082    2.5456 C   0  0  0  0  0  0  0  0  0  0  0  0
   -1.5166    3.3903    2.9518 H   0  0  0  0  0  0  0  0  0  0  0  0
    0.2240    3.3791    3.3257 H   0  0  0  0  0  0  0  0  0  0  0  0
   -0.3477    3.9067    1.7239 H   0  0  0  0  0  0  0  0  0  0  0  0
  5  6  2  0  0  0  0
  5  7  1  0  0  0  0
  2  3  1  0  0  0  0
  2  4  1  0  0  0  0
  2  5  1  0  0  0  0
  1  2  1  0  0  0  0
 26 27  2  0  0  0  0
 26 28  1  0  0  0  0
 23 24  1  0  0  0  0
 23 25  1  0  0  0  0
 20 21  1  0  0  0  0
 20 22  1  0  0  0  0
 20 23  1  0  0  0  0
 17 18  1  0  0  0  0
 17 19  1  0  0  0  0
 17 20  1  0  0  0  0
 14 15  1  0  0  0  0
 14 16  1  0  0  0  0
 14 17  1  0  0  0  0
 11 12  1  0  0  0  0
 11 13  1  0  0  0  0
 11 14  1  0  0  0  0
  9 10  1  0  0  0  0
  9 11  1  0  0  0  0
  9 26  1  0  0  0  0
  7  8  1  0  0  0  0
  7  9  1  0  0  0  0
 30 31  1  0  0  0  0
 30 32  1  0  0  0  0
 30 33  1  0  0  0  0
 28 29  1  0  0  0  0
 28 30  1  0  0  0  0
M  END
$$$$
default_name
  -OEChem-02102213163D

 33 32  0     1  0  0  0  0  0999 V2000
   -3.8420   -3.6918    1.5562 H   0  0  0  0  0  0  0  0  0  0  0  0
   -3.8430   -2.7008    1.1032 C   0  0  0  0  0  0  0  0  0  0  0  0
   -4.5510   -2.0608    1.6242 H   0  0  0  0  0  0  0  0  0  0  0  0
   -4.1140   -2.7798    0.0522 H   0  0  0  0  0  0  0  0  0  0  0  0
   -2.4570   -2.1098    1.2172 C   0  0  0  0  0  0  0  0  0  0  0  0
   -1.5600   -2.7438    1.7572 O   0  0  0  0  0  0  0  0  0  0  0  0
   -2.2870   -0.8898    0.7102 N   0  0  0  0  0  0  0  0  0  0  0  0
   -3.0820   -0.4218    0.2992 H   0  0  0  0  0  0  0  0  0  0  0  0
   -1.0240   -0.1468    0.7262 C   0  0  1  0  0  0  0  0  0  0  0  0
   -0.3583   -0.6100    1.4558 H   0  0  0  0  0  0  0  0  0  0  0  0
   -0.3739   -0.2459   -0.6675 C   0  0  0  0  0  0  0  0  0  0  0  0
   -0.9144    0.4129   -1.3502 H   0  0  0  0  0  0  0  0  0  0  0  0
    0.6592    0.0991   -0.6078 H   0  0  0  0  0  0  0  0  0  0  0  0
   -0.4004   -1.6672   -1.2511 C   0  0  0  0  0  0  0  0  0  0  0  0
   -1.2771   -2.1989   -0.8804 H   0  0  0  0  0  0  0  0  0  0  0  0
   -0.4526   -1.6072   -2.3398 H   0  0  0  0  0  0  0  0  0  0  0  0
    0.8563   -2.4475   -0.8490 C   0  0  0  0  0  0  0  0  0  0  0  0
    1.7431   -1.9234   -1.2065 H   0  0  0  0  0  0  0  0  0  0  0  0
    0.9004   -2.5307    0.2373 H   0  0  0  0  0  0  0  0  0  0  0  0
    0.8163   -3.8461   -1.4618 C   0  0  0  0  0  0  0  0  0  0  0  0
   -0.0587   -4.3780   -1.0918 H   0  0  0  0  0  0  0  0  0  0  0  0
    0.7542   -3.7648   -2.5458 H   0  0  0  0  0  0  0  0  0  0  0  0
    2.0181   -4.6135   -1.1155 N   0  0  0  0  0  0  0  0  0  0  0  0
    1.9516   -5.5342   -1.5241 H   0  0  0  0  0  0  0  0  0  0  0  0
    2.8309   -4.1407   -1.4844 H   0  0  0  0  0  0  0  0  0  0  0  0
   -1.2712    1.3099    1.1517 C   0  0  0  0  0  0  0  0  0  0  0  0
   -2.2039    1.9448    0.6639 O   0  0  0  0  0  0  0  0  0  0  0  0
   -0.4306    1.8354    2.0503 N   0  0  0  0  0  0  0  0  0  0  0  0
    0.3001    1.2459    2.4139 H   0  0  0  0  0  0  0  0  0  0  0  0
   -0.5192    3.2082    2.5456 C   0  0  0  0  0  0  0  0  0  0  0  0
   -1.5166    3.3903    2.9518 H   0  0  0  0  0  0  0  0  0  0  0  0
    0.2240    3.3791    3.3257 H   0  0  0  0  0  0  0  0  0  0  0  0
   -0.3477    3.9067    1.7239 H   0  0  0  0  0  0  0  0  0  0  0  0
  5  6  2  0  0  0  0
  5  7  1  0  0  0  0
  2  3  1  0  0  0  0
  2  4  1  0  0  0  0
  2  5  1  0  0  0  0
  1  2  1  0  0  0  0
 26 27  2  0  0  0  0
 26 28  1  0  0  0  0
 23 24  1  0  0  0  0
 23 25  1  0  0  0  0
 20 21  1  0  0  0  0
 20 22  1  0  0  0  0
 20 23  1  0  0  0  0
 17 18  1  0  0  0  0
 17 19  1  0  0  0  0
 17 20  1  0  0  0  0
 14 15  1  0  0  0  0
 14 16  1  0  0  0  0
 14 17  1  0  0  0  0
 11 12  1  0  0  0  0
 11 13  1  0  0  0  0
 11 14  1  0  0  0  0
  9 10  1  0  0  0  0
  9 11  1  0  0  0  0
  9 26  1  0  0  0  0
  7  8  1  0  0  0  0
  7  9  1  0  0  0  0
 30 31  1  0  0  0  0
 30 32  1  0  0  0  0
 30 33  1  0  0  0  0
 28 29  1  0  0  0  0
 28 30  1  0  0  0  0
M  END
$$$$
default_name
  -OEChem-02102213163D

 33 32  0     1  0  0  0  0  0999 V2000
   -3.8420   -3.6918    1.5562 H   0  0  0  0  0  0  0  0  0  0  0  0
   -3.8430   -2.7008    1.1032 C   0  0  0  0  0  0  0  0  0  0  0  0
   -4.5510   -2.0608    1.6242 H   0  0  0  0  0  0  0  0  0  0  0  0
   -4.1140   -2.7798    0.0522 H   0  0  0  0  0  0  0  0  0  0  0  0
   -2.4570   -2.1098    1.2172 C   0  0  0  0  0  0  0  0  0  0  0  0
   -1.5600   -2.7438    1.7572 O   0  0  0  0  0  0  0  0  0  0  0  0
   -2.2870   -0.8898    0.7102 N   0  0  0  0  0  0  0  0  0  0  0  0
   -3.0820   -0.4218    0.2992 H   0  0  0  0  0  0  0  0  0  0  0  0
   -1.0240   -0.1468    0.7262 C   0  0  1  0  0  0  0  0  0  0  0  0
   -0.3583   -0.6100    1.4558 H   0  0  0  0  0  0  0  0  0  0  0  0
   -0.3739   -0.2459   -0.6675 C   0  0  0  0  0  0  0  0  0  0  0  0
   -0.9144    0.4129   -1.3502 H   0  0  0  0  0  0  0  0  0  0  0  0
    0.6592    0.0991   -0.6078 H   0  0  0  0  0  0  0  0  0  0  0  0
   -0.4004   -1.6672   -1.2511 C   0  0  0  0  0  0  0  0  0  0  0  0
   -1.3885   -2.1044   -1.1053 H   0  0  0  0  0  0  0  0  0  0  0  0
   -0.1845   -1.6203   -2.3201 H   0  0  0  0  0  0  0  0  0  0  0  0
    0.6401   -2.5599   -0.5655 C   0  0  0  0  0  0  0  0  0  0  0  0
    1.6341   -2.1310   -0.6961 H   0  0  0  0  0  0  0  0  0  0  0  0
    0.4148   -2.6292    0.4991 H   0  0  0  0  0  0  0  0  0  0  0  0
    0.6098   -3.9577   -1.1805 C   0  0  0  0  0  0  0  0  0  0  0  0
   -0.3765   -4.3954   -1.0349 H   0  0  0  0  0  0  0  0  0  0  0  0
    0.8172   -3.8886   -2.2471 H   0  0  0  0  0  0  0  0  0  0  0  0
    1.6120   -4.8332   -0.5621 N   0  0  0  0  0  0  0  0  0  0  0  0
    1.5545   -5.7496   -0.9816 H   0  0  0  0  0  0  0  0  0  0  0  0
    2.5321   -4.4482   -0.7219 H   0  0  0  0  0  0  0  0  0  0  0  0
   -1.2712    1.3099    1.1517 C   0  0  0  0  0  0  0  0  0  0  0  0
   -2.2039    1.9448    0.6639 O   0  0  0  0  0  0  0  0  0  0  0  0
   -0.4306    1.8354    2.0503 N   0  0  0  0  0  0  0  0  0  0  0  0
    0.3001    1.2459    2.4139 H   0  0  0  0  0  0  0  0  0  0  0  0
   -0.5192    3.2082    2.5456 C   0  0  0  0  0  0  0  0  0  0  0  0
   -1.5166    3.3903    2.9518 H   0  0  0  0  0  0  0  0  0  0  0  0
    0.2240    3.3791    3.3257 H   0  0  0  0  0  0  0  0  0  0  0  0
   -0.3477    3.9067    1.7239 H   0  0  0  0  0  0  0  0  0  0  0  0
  5  6  2  0  0  0  0
  5  7  1  0  0  0  0
  2  3  1  0  0  0  0
  2  4  1  0  0  0  0
  2  5  1  0  0  0  0
  1  2  1  0  0  0  0
 26 27  2  0  0  0  0
 26 28  1  0  0  0  0
 23 24  1  0  0  0  0
 23 25  1  0  0  0  0
 20 21  1  0  0  0  0
 20 22  1  0  0  0  0
 20 23  1  0  0  0  0
 17 18  1  0  0  0  0
 17 19  1  0  0  0  0
 17 20  1  0  0  0  0
 14 15  1  0  0  0  0
 14 16  1  0  0  0  0
 14 17  1  0  0  0  0
 11 12  1  0  0  0  0
 11 13  1  0  0  0  0
 11 14  1  0  0  0  0
  9 10  1  0  0  0  0
  9 11  1  0  0  0  0
  9 26  1  0  0  0  0
  7  8  1  0  0  0  0
  7  9  1  0  0  0  0
 30 31  1  0  0  0  0
 30 32  1  0  0  0  0
 30 33  1  0  0  0  0
 28 29  1  0  0  0  0
 28 30  1  0  0  0  0
M  END
$$$$
default_name
  -OEChem-02102213163D

 33 32  0     1  0  0  0  0  0999 V2000
   -3.8420   -3.6918    1.5562 H   0  0  0  0  0  0  0  0  0  0  0  0
   -3.8430   -2.7008    1.1032 C   0  0  0  0  0  0  0  0  0  0  0  0
   -4.5510   -2.0608    1.6242 H   0  0  0  0  0  0  0  0  0  0  0  0
   -4.1140   -2.7798    0.0522 H   0  0  0  0  0  0  0  0  0  0  0  0
   -2.4570   -2.1098    1.2172 C   0  0  0  0  0  0  0  0  0  0  0  0
   -1.5600   -2.7438    1.7572 O   0  0  0  0  0  0  0  0  0  0  0  0
   -2.2870   -0.8898    0.7102 N   0  0  0  0  0  0  0  0  0  0  0  0
   -3.0820   -0.4218    0.2992 H   0  0  0  0  0  0  0  0  0  0  0  0
   -1.0240   -0.1468    0.7262 C   0  0  1  0  0  0  0  0  0  0  0  0
   -0.3583   -0.6100    1.4558 H   0  0  0  0  0  0  0  0  0  0  0  0
   -0.3739   -0.2459   -0.6675 C   0  0  0  0  0  0  0  0  0  0  0  0
   -0.9144    0.4129   -1.3502 H   0  0  0  0  0  0  0  0  0  0  0  0
    0.6592    0.0991   -0.6078 H   0  0  0  0  0  0  0  0  0  0  0  0
   -0.4004   -1.6672   -1.2511 C   0  0  0  0  0  0  0  0  0  0  0  0
   -1.4329   -2.0033   -1.3496 H   0  0  0  0  0  0  0  0  0  0  0  0
    0.0684   -1.6592   -2.2369 H   0  0  0  0  0  0  0  0  0  0  0  0
    0.3525   -2.6460   -0.3429 C   0  0  0  0  0  0  0  0  0  0  0  0
    1.3862   -2.3185   -0.2283 H   0  0  0  0  0  0  0  0  0  0  0  0
   -0.1267   -2.6754    0.6361 H   0  0  0  0  0  0  0  0  0  0  0  0
    0.3321   -4.0440   -0.9578 C   0  0  0  0  0  0  0  0  0  0  0  0
   -0.6987   -4.3808   -1.0560 H   0  0  0  0  0  0  0  0  0  0  0  0
    0.7943   -4.0130   -1.9431 H   0  0  0  0  0  0  0  0  0  0  0  0
    1.0657   -5.0030   -0.1238 N   0  0  0  0  0  0  0  0  0  0  0  0
    1.0200   -5.9161   -0.5518 H   0  0  0  0  0  0  0  0  0  0  0  0
    2.0307   -4.7125   -0.0556 H   0  0  0  0  0  0  0  0  0  0  0  0
   -1.2712    1.3099    1.1517 C   0  0  0  0  0  0  0  0  0  0  0  0
   -2.2039    1.9448    0.6639 O   0  0  0  0  0  0  0  0  0  0  0  0
   -0.4306    1.8354    2.0503 N   0  0  0  0  0  0  0  0  0  0  0  0
    0.3001    1.2459    2.4139 H   0  0  0  0  0  0  0  0  0  0  0  0
   -0.5192    3.2082    2.5456 C   0  0  0  0  0  0  0  0  0  0  0  0
   -1.5166    3.3903    2.9518 H   0  0  0  0  0  0  0  0  0  0  0  0
    0.2240    3.3791    3.3257 H   0  0  0  0  0  0  0  0  0  0  0  0
   -0.3477    3.9067    1.7239 H   0  0  0  0  0  0  0  0  0  0  0  0
  5  6  2  0  0  0  0
  5  7  1  0  0  0  0
  2  3  1  0  0  0  0
  2  4  1  0  0  0  0
  2  5  1  0  0  0  0
  1  2  1  0  0  0  0
 26 27  2  0  0  0  0
 26 28  1  0  0  0  0
 23 24  1  0  0  0  0
 23 25  1  0  0  0  0
 20 21  1  0  0  0  0
 20 22  1  0  0  0  0
 20 23  1  0  0  0  0
 17 18  1  0  0  0  0
 17 19  1  0  0  0  0
 17 20  1  0  0  0  0
 14 15  1  0  0  0  0
 14 16  1  0  0  0  0
 14 17  1  0  0  0  0
 11 12  1  0  0  0  0
 11 13  1  0  0  0  0
 11 14  1  0  0  0  0
  9 10  1  0  0  0  0
  9 11  1  0  0  0  0
  9 26  1  0  0  0  0
  7  8  1  0  0  0  0
  7  9  1  0  0  0  0
 30 31  1  0  0  0  0
 30 32  1  0  0  0  0
 30 33  1  0  0  0  0
 28 29  1  0  0  0  0
 28 30  1  0  0  0  0
M  END
$$$$
default_name
  -OEChem-02102213163D

 33 32  0     1  0  0  0  0  0999 V2000
   -3.8420   -3.6918    1.5562 H   0  0  0  0  0  0  0  0  0  0  0  0
   -3.8430   -2.7008    1.1032 C   0  0  0  0  0  0  0  0  0  0  0  0
   -4.5510   -2.0608    1.6242 H   0  0  0  0  0  0  0  0  0  0  0  0
   -4.1140   -2.7798    0.0522 H   0  0  0  0  0  0  0  0  0  0  0  0
   -2.4570   -2.1098    1.2172 C   0  0  0  0  0  0  0  0  0  0  0  0
   -1.5600   -2.7438    1.7572 O   0  0  0  0  0  0  0  0  0  0  0  0
   -2.2870   -0.8898    0.7102 N   0  0  0  0  0  0  0  0  0  0  0  0
   -3.0820   -0.4218    0.2992 H   0  0  0  0  0  0  0  0  0  0  0  0
   -1.0240   -0.1468    0.7262 C   0  0  1  0  0  0  0  0  0  0  0  0
   -0.3583   -0.6100    1.4558 H   0  0  0  0  0  0  0  0  0  0  0  0
   -0.3739   -0.2459   -0.6675 C   0  0  0  0  0  0  0  0  0  0  0  0
   -0.9144    0.4129   -1.3502 H   0  0  0  0  0  0  0  0  0  0  0  0
    0.6592    0.0991   -0.6078 H   0  0  0  0  0  0  0  0  0  0  0  0
   -0.4004   -1.6672   -1.2511 C   0  0  0  0  0  0  0  0  0  0  0  0
   -1.4075   -1.9023   -1.5966 H   0  0  0  0  0  0  0  0  0  0  0  0
    0.2890   -1.7213   -2.0957 H   0  0  0  0  0  0  0  0  0  0  0  0
    0.0129   -2.6998   -0.1963 C   0  0  0  0  0  0  0  0  0  0  0  0
    1.0164   -2.4731    0.1650 H   0  0  0  0  0  0  0  0  0  0  0  0
   -0.6870   -2.6662    0.6391 H   0  0  0  0  0  0  0  0  0  0  0  0
    0.0020   -4.0991   -0.8087 C   0  0  0  0  0  0  0  0  0  0  0  0
   -1.0034   -4.3350   -1.1536 H   0  0  0  0  0  0  0  0  0  0  0  0
    0.6872   -4.1296   -1.6543 H   0  0  0  0  0  0  0  0  0  0  0  0
    0.4164   -5.1114    0.1695 N   0  0  0  0  0  0  0  0  0  0  0  0
    0.3843   -6.0226   -0.2638 H   0  0  0  0  0  0  0  0  0  0  0  0
    1.3610   -4.9155    0.4691 H   0  0  0  0  0  0  0  0  0  0  0  0
   -1.2712    1.3099    1.1517 C   0  0  0  0  0  0  0  0  0  0  0  0
   -2.2039    1.9448    0.6639 O   0  0  0  0  0  0  0  0  0  0  0  0
   -0.4306    1.8354    2.0503 N   0  0  0  0  0  0  0  0  0  0  0  0
    0.3001    1.2459    2.4139 H   0  0  0  0  0  0  0  0  0  0  0  0
   -0.5192    3.2082    2.5456 C   0  0  0  0  0  0  0  0  0  0  0  0
   -1.5166    3.3903    2.9518 H   0  0  0  0  0  0  0  0  0  0  0  0
    0.2240    3.3791    3.3257 H   0  0  0  0  0  0  0  0  0  0  0  0
   -0.3477    3.9067    1.7239 H   0  0  0  0  0  0  0  0  0  0  0  0
  5  6  2  0  0  0  0
  5  7  1  0  0  0  0
  2  3  1  0  0  0  0
  2  4  1  0  0  0  0
  2  5  1  0  0  0  0
  1  2  1  0  0  0  0
 26 27  2  0  0  0  0
 26 28  1  0  0  0  0
 23 24  1  0  0  0  0
 23 25  1  0  0  0  0
 20 21  1  0  0  0  0
 20 22  1  0  0  0  0
 20 23  1  0  0  0  0
 17 18  1  0  0  0  0
 17 19  1  0  0  0  0
 17 20  1  0  0  0  0
 14 15  1  0  0  0  0
 14 16  1  0  0  0  0
 14 17  1  0  0  0  0
 11 12  1  0  0  0  0
 11 13  1  0  0  0  0
 11 14  1  0  0  0  0
  9 10  1  0  0  0  0
  9 11  1  0  0  0  0
  9 26  1  0  0  0  0
  7  8  1  0  0  0  0
  7  9  1  0  0  0  0
 30 31  1  0  0  0  0
 30 32  1  0  0  0  0
 30 33  1  0  0  0  0
 28 29  1  0  0  0  0
 28 30  1  0  0  0  0
M  END
$$$$
default_name
  -OEChem-02102213163D

 33 32  0     1  0  0  0  0  0999 V2000
   -3.8420   -3.6918    1.5562 H   0  0  0  0  0  0  0  0  0  0  0  0
   -3.8430   -2.7008    1.1032 C   0  0  0  0  0  0  0  0  0  0  0  0
   -4.5510   -2.0608    1.6242 H   0  0  0  0  0  0  0  0  0  0  0  0
   -4.1140   -2.7798    0.0522 H   0  0  0  0  0  0  0  0  0  0  0  0
   -2.4570   -2.1098    1.2172 C   0  0  0  0  0  0  0  0  0  0  0  0
   -1.5600   -2.7438    1.7572 O   0  0  0  0  0  0  0  0  0  0  0  0
   -2.2870   -0.8898    0.7102 N   0  0  0  0  0  0  0  0  0  0  0  0
   -3.0820   -0.4218    0.2992 H   0  0  0  0  0  0  0  0  0  0  0  0
   -1.0240   -0.1468    0.7262 C   0  0  1  0  0  0  0  0  0  0  0  0
   -0.3583   -0.6100    1.4558 H   0  0  0  0  0  0  0  0  0  0  0  0
   -0.3739   -0.2459   -0.6675 C   0  0  0  0  0  0  0  0  0  0  0  0
   -0.9144    0.4129   -1.3502 H   0  0  0  0  0  0  0  0  0  0  0  0
    0.6592    0.0991   -0.6078 H   0  0  0  0  0  0  0  0  0  0  0  0
   -0.4004   -1.6672   -1.2511 C   0  0  0  0  0  0  0  0  0  0  0  0
   -1.3138   -1.8084   -1.8296 H   0  0  0  0  0  0  0  0  0  0  0  0
    0.4621   -1.8023   -1.9063 H   0  0  0  0  0  0  0  0  0  0  0  0
   -0.3556   -2.7178   -0.1358 C   0  0  0  0  0  0  0  0  0  0  0  0
    0.5497   -2.5844    0.4571 H   0  0  0  0  0  0  0  0  0  0  0  0
   -1.2281   -2.6022    0.5078 H   0  0  0  0  0  0  0  0  0  0  0  0
   -0.3579   -4.1192   -0.7434 C   0  0  0  0  0  0  0  0  0  0  0  0
   -1.2699   -4.2613   -1.3209 H   0  0  0  0  0  0  0  0  0  0  0  0
    0.5032   -4.2304   -1.4004 H   0  0  0  0  0  0  0  0  0  0  0  0
   -0.2916   -5.1510    0.2979 N   0  0  0  0  0  0  0  0  0  0  0  0
   -0.3091   -6.0616   -0.1373 H   0  0  0  0  0  0  0  0  0  0  0  0
    0.5685   -5.0435    0.8166 H   0  0  0  0  0  0  0  0  0  0  0  0
   -1.2712    1.3099    1.1517 C   0  0  0  0  0  0  0  0  0  0  0  0
   -2.2039    1.9448    0.6639 O   0  0  0  0  0  0  0  0  0  0  0  0
   -0.4306    1.8354    2.0503 N   0  0  0  0  0  0  0  0  0  0  0  0
    0.3001    1.2459    2.4139 H   0  0  0  0  0  0  0  0  0  0  0  0
   -0.5192    3.2082    2.5456 C   0  0  0  0  0  0  0  0  0  0  0  0
   -1.5166    3.3903    2.9518 H   0  0  0  0  0  0  0  0  0  0  0  0
    0.2240    3.3791    3.3257 H   0  0  0  0  0  0  0  0  0  0  0  0
   -0.3477    3.9067    1.7239 H   0  0  0  0  0  0  0  0  0  0  0  0
  5  6  2  0  0  0  0
  5  7  1  0  0  0  0
  2  3  1  0  0  0  0
  2  4  1  0  0  0  0
  2  5  1  0  0  0  0
  1  2  1  0  0  0  0
 26 27  2  0  0  0  0
 26 28  1  0  0  0  0
 23 24  1  0  0  0  0
 23 25  1  0  0  0  0
 20 21  1  0  0  0  0
 20 22  1  0  0  0  0
 20 23  1  0  0  0  0
 17 18  1  0  0  0  0
 17 19  1  0  0  0  0
 17 20  1  0  0  0  0
 14 15  1  0  0  0  0
 14 16  1  0  0  0  0
 14 17  1  0  0  0  0
 11 12  1  0  0  0  0
 11 13  1  0  0  0  0
 11 14  1  0  0  0  0
  9 10  1  0  0  0  0
  9 11  1  0  0  0  0
  9 26  1  0  0  0  0
  7  8  1  0  0  0  0
  7  9  1  0  0  0  0
 30 31  1  0  0  0  0
 30 32  1  0  0  0  0
 30 33  1  0  0  0  0
 28 29  1  0  0  0  0
 28 30  1  0  0  0  0
M  END
$$$$
default_name
  -OEChem-02102213163D

 33 32  0     1  0  0  0  0  0999 V2000
   -3.8420   -3.6918    1.5562 H   0  0  0  0  0  0  0  0  0  0  0  0
   -3.8430   -2.7008    1.1032 C   0  0  0  0  0  0  0  0  0  0  0  0
   -4.5510   -2.0608    1.6242 H   0  0  0  0  0  0  0  0  0  0  0  0
   -4.1140   -2.7798    0.0522 H   0  0  0  0  0  0  0  0  0  0  0  0
   -2.4570   -2.1098    1.2172 C   0  0  0  0  0  0  0  0  0  0  0  0
   -1.5600   -2.7438    1.7572 O   0  0  0  0  0  0  0  0  0  0  0  0
   -2.2870   -0.8898    0.7102 N   0  0  0  0  0  0  0  0  0  0  0  0
   -3.0820   -0.4218    0.2992 H   0  0  0  0  0  0  0  0  0  0  0  0
   -1.0240   -0.1468    0.7262 C   0  0  1  0  0  0  0  0  0  0  0  0
   -0.3583   -0.6100    1.4558 H   0  0  0  0  0  0  0  0  0  0  0  0
   -0.3739   -0.2459   -0.6675 C   0  0  0  0  0  0  0  0  0  0  0  0
   -0.9144    0.4129   -1.3502 H   0  0  0  0  0  0  0  0  0  0  0  0
    0.6592    0.0991   -0.6078 H   0  0  0  0  0  0  0  0  0  0  0  0
   -0.4004   -1.6672   -1.2511 C   0  0  0  0  0  0  0  0  0  0  0  0
   -1.1583   -1.7279   -2.0327 H   0  0  0  0  0  0  0  0  0  0  0  0
    0.5761   -1.8967   -1.6816 H   0  0  0  0  0  0  0  0  0  0  0  0
   -0.7277   -2.6987   -0.1655 C   0  0  0  0  0  0  0  0  0  0  0  0
    0.0182   -2.6447    0.6281 H   0  0  0  0  0  0  0  0  0  0  0  0
   -1.7130   -2.4878    0.2512 H   0  0  0  0  0  0  0  0  0  0  0  0
   -0.7231   -4.1030   -0.7665 C   0  0  0  0  0  0  0  0  0  0  0  0
   -1.4800   -4.1647   -1.5467 H   0  0  0  0  0  0  0  0  0  0  0  0
    0.2547   -4.3086   -1.1989 H   0  0  0  0  0  0  0  0  0  0  0  0
   -1.0102   -5.1190    0.2526 N   0  0  0  0  0  0  0  0  0  0  0  0
   -1.0130   -6.0306   -0.1809 H   0  0  0  0  0  0  0  0  0  0  0  0
   -0.2928   -5.0876    0.9631 H   0  0  0  0  0  0  0  0  0  0  0  0
   -1.2712    1.3099    1.1517 C   0  0  0  0  0  0  0  0  0  0  0  0
   -2.2039    1.9448    0.6639 O   0  0  0  0  0  0  0  0  0  0  0  0
   -0.4306    1.8354    2.0503 N   0  0  0  0  0  0  0  0  0  0  0  0
    0.3001    1.2459    2.4139 H   0  0  0  0  0  0  0  0  0  0  0  0
   -0.5192    3.2082    2.5456 C   0  0  0  0  0  0  0  0  0  0  0  0
   -1.5166    3.3903    2.9518 H   0  0  0  0  0  0  0  0  0  0  0  0
    0.2240    3.3791    3.3257 H   0  0  0  0  0  0  0  0  0  0  0  0
   -0.3477    3.9067    1.7239 H   0  0  0  0  0  0  0  0  0  0  0  0
  5  6  2  0  0  0  0
  5  7  1  0  0  0  0
  2  3  1  0  0  0  0
  2  4  1  0  0  0  0
  2  5  1  0  0  0  0
  1  2  1  0  0  0  0
 26 27  2  0  0  0  0
 26 28  1  0  0  0  0
 23 24  1  0  0  0  0
 23 25  1  0  0  0  0
 20 21  1  0  0  0  0
 20 22  1  0  0  0  0
 20 23  1  0  0  0  0
 17 18  1  0  0  0  0
 17 19  1  0  0  0  0
 17 20  1  0  0  0  0
 14 15  1  0  0  0  0
 14 16  1  0  0  0  0
 14 17  1  0  0  0  0
 11 12  1  0  0  0  0
 11 13  1  0  0  0  0
 11 14  1  0  0  0  0
  9 10  1  0  0  0  0
  9 11  1  0  0  0  0
  9 26  1  0  0  0  0
  7  8  1  0  0  0  0
  7  9  1  0  0  0  0
 30 31  1  0  0  0  0
 30 32  1  0  0  0  0
 30 33  1  0  0  0  0
 28 29  1  0  0  0  0
 28 30  1  0  0  0  0
M  END
$$$$
default_name
  -OEChem-02102213163D

 33 32  0     1  0  0  0  0  0999 V2000
   -3.8420   -3.6918    1.5562 H   0  0  0  0  0  0  0  0  0  0  0  0
   -3.8430   -2.7008    1.1032 C   0  0  0  0  0  0  0  0  0  0  0  0
   -4.5510   -2.0608    1.6242 H   0  0  0  0  0  0  0  0  0  0  0  0
   -4.1140   -2.7798    0.0522 H   0  0  0  0  0  0  0  0  0  0  0  0
   -2.4570   -2.1098    1.2172 C   0  0  0  0  0  0  0  0  0  0  0  0
   -1.5600   -2.7438    1.7572 O   0  0  0  0  0  0  0  0  0  0  0  0
   -2.2870   -0.8898    0.7102 N   0  0  0  0  0  0  0  0  0  0  0  0
   -3.0820   -0.4218    0.2992 H   0  0  0  0  0  0  0  0  0  0  0  0
   -1.0240   -0.1468    0.7262 C   0  0  1  0  0  0  0  0  0  0  0  0
   -0.3583   -0.6100    1.4558 H   0  0  0  0  0  0  0  0  0  0  0  0
   -0.3739   -0.2459   -0.6675 C   0  0  0  0  0  0  0  0  0  0  0  0
   -0.9144    0.4129   -1.3502 H   0  0  0  0  0  0  0  0  0  0  0  0
    0.6592    0.0991   -0.6078 H   0  0  0  0  0  0  0  0  0  0  0  0
   -0.4004   -1.6672   -1.2511 C   0  0  0  0  0  0  0  0  0  0  0  0
   -0.9515   -1.6663   -2.1919 H   0  0  0  0  0  0  0  0  0  0  0  0
    0.6231   -1.9981   -1.4368 H   0  0  0  0  0  0  0  0  0  0  0  0
   -1.0781   -2.6438   -0.2834 C   0  0  0  0  0  0  0  0  0  0  0  0
   -0.5422   -2.6500    0.6662 H   0  0  0  0  0  0  0  0  0  0  0  0
   -2.1087   -2.3307   -0.1133 H   0  0  0  0  0  0  0  0  0  0  0  0
   -1.0688   -4.0514   -0.8763 C   0  0  0  0  0  0  0  0  0  0  0  0
   -1.6194   -4.0517   -1.8156 H   0  0  0  0  0  0  0  0  0  0  0  0
   -0.0412   -4.3588   -1.0633 H   0  0  0  0  0  0  0  0  0  0  0  0
   -1.6902   -5.0177    0.0367 N   0  0  0  0  0  0  0  0  0  0  0  0
   -1.6794   -5.9316   -0.3917 H   0  0  0  0  0  0  0  0  0  0  0  0
   -1.1641   -5.0449    0.8986 H   0  0  0  0  0  0  0  0  0  0  0  0
   -1.2712    1.3099    1.1517 C   0  0  0  0  0  0  0  0  0  0  0  0
   -2.2039    1.9448    0.6639 O   0  0  0  0  0  0  0  0  0  0  0  0
   -0.4306    1.8354    2.0503 N   0  0  0  0  0  0  0  0  0  0  0  0
    0.3001    1.2459    2.4139 H   0  0  0  0  0  0  0  0  0  0  0  0
   -0.5192    3.2082    2.5456 C   0  0  0  0  0  0  0  0  0  0  0  0
   -1.5166    3.3903    2.9518 H   0  0  0  0  0  0  0  0  0  0  0  0
    0.2240    3.3791    3.3257 H   0  0  0  0  0  0  0  0  0  0  0  0
   -0.3477    3.9067    1.7239 H   0  0  0  0  0  0  0  0  0  0  0  0
  5  6  2  0  0  0  0
  5  7  1  0  0  0  0
  2  3  1  0  0  0  0
  2  4  1  0  0  0  0
  2  5  1  0  0  0  0
  1  2  1  0  0  0  0
 26 27  2  0  0  0  0
 26 28  1  0  0  0  0
 23 24  1  0  0  0  0
 23 25  1  0  0  0  0
 20 21  1  0  0  0  0
 20 22  1  0  0  0  0
 20 23  1  0  0  0  0
 17 18  1  0  0  0  0
 17 19  1  0  0  0  0
 17 20  1  0  0  0  0
 14 15  1  0  0  0  0
 14 16  1  0  0  0  0
 14 17  1  0  0  0  0
 11 12  1  0  0  0  0
 11 13  1  0  0  0  0
 11 14  1  0  0  0  0
  9 10  1  0  0  0  0
  9 11  1  0  0  0  0
  9 26  1  0  0  0  0
  7  8  1  0  0  0  0
  7  9  1  0  0  0  0
 30 31  1  0  0  0  0
 30 32  1  0  0  0  0
 30 33  1  0  0  0  0
 28 29  1  0  0  0  0
 28 30  1  0  0  0  0
M  END
$$$$
default_name
  -OEChem-02102213163D

 33 32  0     1  0  0  0  0  0999 V2000
   -3.8420   -3.6918    1.5562 H   0  0  0  0  0  0  0  0  0  0  0  0
   -3.8430   -2.7008    1.1032 C   0  0  0  0  0  0  0  0  0  0  0  0
   -4.5510   -2.0608    1.6242 H   0  0  0  0  0  0  0  0  0  0  0  0
   -4.1140   -2.7798    0.0522 H   0  0  0  0  0  0  0  0  0  0  0  0
   -2.4570   -2.1098    1.2172 C   0  0  0  0  0  0  0  0  0  0  0  0
   -1.5600   -2.7438    1.7572 O   0  0  0  0  0  0  0  0  0  0  0  0
   -2.2870   -0.8898    0.7102 N   0  0  0  0  0  0  0  0  0  0  0  0
   -3.0820   -0.4218    0.2992 H   0  0  0  0  0  0  0  0  0  0  0  0
   -1.0240   -0.1468    0.7262 C   0  0  1  0  0  0  0  0  0  0  0  0
   -0.3583   -0.6100    1.4558 H   0  0  0  0  0  0  0  0  0  0  0  0
   -0.3739   -0.2459   -0.6675 C   0  0  0  0  0  0  0  0  0  0  0  0
   -0.9144    0.4129   -1.3502 H   0  0  0  0  0  0  0  0  0  0  0  0
    0.6592    0.0991   -0.6078 H   0  0  0  0  0  0  0  0  0  0  0  0
   -0.4004   -1.6672   -1.2511 C   0  0  0  0  0  0  0  0  0  0  0  0
   -0.7077   -1.6279   -2.2965 H   0  0  0  0  0  0  0  0  0  0  0  0
    0.5999   -2.0996   -1.1887 H   0  0  0  0  0  0  0  0  0  0  0  0
   -1.3830   -2.5568   -0.4813 C   0  0  0  0  0  0  0  0  0  0  0  0
   -1.0930   -2.5998    0.5690 H   0  0  0  0  0  0  0  0  0  0  0  0
   -2.3882   -2.1418   -0.5608 H   0  0  0  0  0  0  0  0  0  0  0  0
   -1.3714   -3.9682   -1.0653 C   0  0  0  0  0  0  0  0  0  0  0  0
   -1.6786   -3.9300   -2.1091 H   0  0  0  0  0  0  0  0  0  0  0  0
   -0.3644   -4.3775   -1.0029 H   0  0  0  0  0  0  0  0  0  0  0  0
   -2.2855   -4.8539   -0.3350 N   0  0  0  0  0  0  0  0  0  0  0  0
   -2.2629   -5.7715   -0.7552 H   0  0  0  0  0  0  0  0  0  0  0  0
   -1.9861   -4.9183    0.6275 H   0  0  0  0  0  0  0  0  0  0  0  0
   -1.2712    1.3099    1.1517 C   0  0  0  0  0  0  0  0  0  0  0  0
   -2.2039    1.9448    0.6639 O   0  0  0  0  0  0  0  0  0  0  0  0
   -0.4306    1.8354    2.0503 N   0  0  0  0  0  0  0  0  0  0  0  0
    0.3001    1.2459    2.4139 H   0  0  0  0  0  0  0  0  0  0  0  0
   -0.5192    3.2082    2.5456 C   0  0  0  0  0  0  0  0  0  0  0  0
   -1.5166    3.3903    2.9518 H   0  0  0  0  0  0  0  0  0  0  0  0
    0.2240    3.3791    3.3257 H   0  0  0  0  0  0  0  0  0  0  0  0
   -0.3477    3.9067    1.7239 H   0  0  0  0  0  0  0  0  0  0  0  0
  5  6  2  0  0  0  0
  5  7  1  0  0  0  0
  2  3  1  0  0  0  0
  2  4  1  0  0  0  0
  2  5  1  0  0  0  0
  1  2  1  0  0  0  0
 26 27  2  0  0  0  0
 26 28  1  0  0  0  0
 23 24  1  0  0  0  0
 23 25  1  0  0  0  0
 20 21  1  0  0  0  0
 20 22  1  0  0  0  0
 20 23  1  0  0  0  0
 17 18  1  0  0  0  0
 17 19  1  0  0  0  0
 17 20  1  0  0  0  0
 14 15  1  0  0  0  0
 14 16  1  0  0  0  0
 14 17  1  0  0  0  0
 11 12  1  0  0  0  0
 11 13  1  0  0  0  0
 11 14  1  0  0  0  0
  9 10  1  0  0  0  0
  9 11  1  0  0  0  0
  9 26  1  0  0  0  0
  7  8  1  0  0  0  0
  7  9  1  0  0  0  0
 30 31  1  0  0  0  0
 30 32  1  0  0  0  0
 30 33  1  0  0  0  0
 28 29  1  0  0  0  0
 28 30  1  0  0  0  0
M  END
$$$$
default_name
  -OEChem-02102213163D

 33 32  0     1  0  0  0  0  0999 V2000
   -3.8420   -3.6918    1.5562 H   0  0  0  0  0  0  0  0  0  0  0  0
   -3.8430   -2.7008    1.1032 C   0  0  0  0  0  0  0  0  0  0  0  0
   -4.5510   -2.0608    1.6242 H   0  0  0  0  0  0  0  0  0  0  0  0
   -4.1140   -2.7798    0.0522 H   0  0  0  0  0  0  0  0  0  0  0  0
   -2.4570   -2.1098    1.2172 C   0  0  0  0  0  0  0  0  0  0  0  0
   -1.5600   -2.7438    1.7572 O   0  0  0  0  0  0  0  0  0  0  0  0
   -2.2870   -0.8898    0.7102 N   0  0  0  0  0  0  0  0  0  0  0  0
   -3.0820   -0.4218    0.2992 H   0  0  0  0  0  0  0  0  0  0  0  0
   -1.0240   -0.1468    0.7262 C   0  0  1  0  0  0  0  0  0  0  0  0
   -0.3583   -0.6100    1.4558 H   0  0  0  0  0  0  0  0  0  0  0  0
   -0.3739   -0.2459   -0.6675 C   0  0  0  0  0  0  0  0  0  0  0  0
   -0.9144    0.4129   -1.3502 H   0  0  0  0  0  0  0  0  0  0  0  0
    0.6592    0.0991   -0.6078 H   0  0  0  0  0  0  0  0  0  0  0  0
   -0.4004   -1.6672   -1.2511 C   0  0  0  0  0  0  0  0  0  0  0  0
   -0.4433   -1.6152   -2.3394 H   0  0  0  0  0  0  0  0  0  0  0  0
    0.5082   -2.1942   -0.9540 H   0  0  0  0  0  0  0  0  0  0  0  0
   -1.6216   -2.4437   -0.7459 C   0  0  0  0  0  0  0  0  0  0  0  0
   -1.5969   -2.4975    0.3429 H   0  0  0  0  0  0  0  0  0  0  0  0
   -2.5325   -1.9337   -1.0608 H   0  0  0  0  0  0  0  0  0  0  0  0
   -1.6102   -3.8589   -1.3206 C   0  0  0  0  0  0  0  0  0  0  0  0
   -1.6536   -3.8080   -2.4074 H   0  0  0  0  0  0  0  0  0  0  0  0
   -0.6929   -4.3636   -1.0219 H   0  0  0  0  0  0  0  0  0  0  0  0
   -2.7554   -4.6389   -0.8374 N   0  0  0  0  0  0  0  0  0  0  0  0
   -2.7237   -5.5610   -1.2468 H   0  0  0  0  0  0  0  0  0  0  0  0
   -2.7027   -4.7164    0.1684 H   0  0  0  0  0  0  0  0  0  0  0  0
   -1.2712    1.3099    1.1517 C   0  0  0  0  0  0  0  0  0  0  0  0
   -2.2039    1.9448    0.6639 O   0  0  0  0  0  0  0  0  0  0  0  0
   -0.4306    1.8354    2.0503 N   0  0  0  0  0  0  0  0  0  0  0  0
    0.3001    1.2459    2.4139 H   0  0  0  0  0  0  0  0  0  0  0  0
   -0.5192    3.2082    2.5456 C   0  0  0  0  0  0  0  0  0  0  0  0
   -1.5166    3.3903    2.9518 H   0  0  0  0  0  0  0  0  0  0  0  0
    0.2240    3.3791    3.3257 H   0  0  0  0  0  0  0  0  0  0  0  0
   -0.3477    3.9067    1.7239 H   0  0  0  0  0  0  0  0  0  0  0  0
  5  6  2  0  0  0  0
  5  7  1  0  0  0  0
  2  3  1  0  0  0  0
  2  4  1  0  0  0  0
  2  5  1  0  0  0  0
  1  2  1  0  0  0  0
 26 27  2  0  0  0  0
 26 28  1  0  0  0  0
 23 24  1  0  0  0  0
 23 25  1  0  0  0  0
 20 21  1  0  0  0  0
 20 22  1  0  0  0  0
 20 23  1  0  0  0  0
 17 18  1  0  0  0  0
 17 19  1  0  0  0  0
 17 20  1  0  0  0  0
 14 15  1  0  0  0  0
 14 16  1  0  0  0  0
 14 17  1  0  0  0  0
 11 12  1  0  0  0  0
 11 13  1  0  0  0  0
 11 14  1  0  0  0  0
  9 10  1  0  0  0  0
  9 11  1  0  0  0  0
  9 26  1  0  0  0  0
  7  8  1  0  0  0  0
  7  9  1  0  0  0  0
 30 31  1  0  0  0  0
 30 32  1  0  0  0  0
 30 33  1  0  0  0  0
 28 29  1  0  0  0  0
 28 30  1  0  0  0  0
M  END
$$$$
default_name
  -OEChem-02102213163D

 33 32  0     1  0  0  0  0  0999 V2000
   -3.8420   -3.6918    1.5562 H   0  0  0  0  0  0  0  0  0  0  0  0
   -3.8430   -2.7008    1.1032 C   0  0  0  0  0  0  0  0  0  0  0  0
   -4.5510   -2.0608    1.6242 H   0  0  0  0  0  0  0  0  0  0  0  0
   -4.1140   -2.7798    0.0522 H   0  0  0  0  0  0  0  0  0  0  0  0
   -2.4570   -2.1098    1.2172 C   0  0  0  0  0  0  0  0  0  0  0  0
   -1.5600   -2.7438    1.7572 O   0  0  0  0  0  0  0  0  0  0  0  0
   -2.2870   -0.8898    0.7102 N   0  0  0  0  0  0  0  0  0  0  0  0
   -3.0820   -0.4218    0.2992 H   0  0  0  0  0  0  0  0  0  0  0  0
   -1.0240   -0.1468    0.7262 C   0  0  1  0  0  0  0  0  0  0  0  0
   -0.3583   -0.6100    1.4558 H   0  0  0  0  0  0  0  0  0  0  0  0
   -0.3739   -0.2459   -0.6675 C   0  0  0  0  0  0  0  0  0  0  0  0
   -0.9144    0.4129   -1.3502 H   0  0  0  0  0  0  0  0  0  0  0  0
    0.6592    0.0991   -0.6078 H   0  0  0  0  0  0  0  0  0  0  0  0
   -0.4004   -1.6672   -1.2511 C   0  0  0  0  0  0  0  0  0  0  0  0
   -0.1765   -1.6291   -2.3176 H   0  0  0  0  0  0  0  0  0  0  0  0
    0.3541   -2.2755   -0.7490 H   0  0  0  0  0  0  0  0  0  0  0  0
   -1.7776   -2.3122   -1.0591 C   0  0  0  0  0  0  0  0  0  0  0  0
   -2.0195   -2.3503    0.0035 H   0  0  0  0  0  0  0  0  0  0  0  0
   -2.5317   -1.7209   -1.5792 H   0  0  0  0  0  0  0  0  0  0  0  0
   -1.7690   -3.7309   -1.6250 C   0  0  0  0  0  0  0  0  0  0  0  0
   -1.5460   -3.6940   -2.6900 H   0  0  0  0  0  0  0  0  0  0  0  0
   -1.0043   -4.3180   -1.1190 H   0  0  0  0  0  0  0  0  0  0  0  0
   -3.0679   -4.3872   -1.4360 N   0  0  0  0  0  0  0  0  0  0  0  0
   -3.0305   -5.3146   -1.8329 H   0  0  0  0  0  0  0  0  0  0  0  0
   -3.2652   -4.4530   -0.4476 H   0  0  0  0  0  0  0  0  0  0  0  0
   -1.2712    1.3099    1.1517 C   0  0  0  0  0  0  0  0  0  0  0  0
   -2.2039    1.9448    0.6639 O   0  0  0  0  0  0  0  0  0  0  0  0
   -0.4306    1.8354    2.0503 N   0  0  0  0  0  0  0  0  0  0  0  0
    0.3001    1.2459    2.4139 H   0  0  0  0  0  0  0  0  0  0  0  0
   -0.5192    3.2082    2.5456 C   0  0  0  0  0  0  0  0  0  0  0  0
   -1.5166    3.3903    2.9518 H   0  0  0  0  0  0  0  0  0  0  0  0
    0.2240    3.3791    3.3257 H   0  0  0  0  0  0  0  0  0  0  0  0
   -0.3477    3.9067    1.7239 H   0  0  0  0  0  0  0  0  0  0  0  0
  5  6  2  0  0  0  0
  5  7  1  0  0  0  0
  2  3  1  0  0  0  0
  2  4  1  0  0  0  0
  2  5  1  0  0  0  0
  1  2  1  0  0  0  0
 26 27  2  0  0  0  0
 26 28  1  0  0  0  0
 23 24  1  0  0  0  0
 23 25  1  0  0  0  0
 20 21  1  0  0  0  0
 20 22  1  0  0  0  0
 20 23  1  0  0  0  0
 17 18  1  0  0  0  0
 17 19  1  0  0  0  0
 17 20  1  0  0  0  0
 14 15  1  0  0  0  0
 14 16  1  0  0  0  0
 14 17  1  0  0  0  0
 11 12  1  0  0  0  0
 11 13  1  0  0  0  0
 11 14  1  0  0  0  0
  9 10  1  0  0  0  0
  9 11  1  0  0  0  0
  9 26  1  0  0  0  0
  7  8  1  0  0  0  0
  7  9  1  0  0  0  0
 30 31  1  0  0  0  0
 30 32  1  0  0  0  0
 30 33  1  0  0  0  0
 28 29  1  0  0  0  0
 28 30  1  0  0  0  0
M  END
$$$$
default_name
  -OEChem-02102213163D

 33 32  0     1  0  0  0  0  0999 V2000
   -3.8420   -3.6918    1.5562 H   0  0  0  0  0  0  0  0  0  0  0  0
   -3.8430   -2.7008    1.1032 C   0  0  0  0  0  0  0  0  0  0  0  0
   -4.5510   -2.0608    1.6242 H   0  0  0  0  0  0  0  0  0  0  0  0
   -4.1140   -2.7798    0.0522 H   0  0  0  0  0  0  0  0  0  0  0  0
   -2.4570   -2.1098    1.2172 C   0  0  0  0  0  0  0  0  0  0  0  0
   -1.5600   -2.7438    1.7572 O   0  0  0  0  0  0  0  0  0  0  0  0
   -2.2870   -0.8898    0.7102 N   0  0  0  0  0  0  0  0  0  0  0  0
   -3.0820   -0.4218    0.2992 H   0  0  0  0  0  0  0  0  0  0  0  0
   -1.0240   -0.1468    0.7262 C   0  0  1  0  0  0  0  0  0  0  0  0
   -0.3583   -0.6100    1.4558 H   0  0  0  0  0  0  0  0  0  0  0  0
   -0.3739   -0.2459   -0.6675 C   0  0  0  0  0  0  0  0  0  0  0  0
   -0.9144    0.4129   -1.3502 H   0  0  0  0  0  0  0  0  0  0  0  0
    0.6592    0.0991   -0.6078 H   0  0  0  0  0  0  0  0  0  0  0  0
   -0.4004   -1.6672   -1.2511 C   0  0  0  0  0  0  0  0  0  0  0  0
    0.0747   -1.6687   -2.2325 H   0  0  0  0  0  0  0  0  0  0  0  0
    0.1481   -2.3381   -0.5874 H   0  0  0  0  0  0  0  0  0  0  0  0
   -1.8404   -2.1712   -1.3995 C   0  0  0  0  0  0  0  0  0  0  0  0
   -2.3319   -2.1680   -0.4262 H   0  0  0  0  0  0  0  0  0  0  0  0
   -2.3860   -1.5176   -2.0807 H   0  0  0  0  0  0  0  0  0  0  0  0
   -1.8370   -3.5931   -1.9575 C   0  0  0  0  0  0  0  0  0  0  0  0
   -1.3632   -3.5956   -2.9378 H   0  0  0  0  0  0  0  0  0  0  0  0
   -1.2774   -4.2437   -1.2874 H   0  0  0  0  0  0  0  0  0  0  0  0
   -3.2016   -4.1161   -2.0902 N   0  0  0  0  0  0  0  0  0  0  0  0
   -3.1624   -5.0491   -2.4735 H   0  0  0  0  0  0  0  0  0  0  0  0
   -3.6352   -4.1460   -1.1784 H   0  0  0  0  0  0  0  0  0  0  0  0
   -1.2712    1.3099    1.1517 C   0  0  0  0  0  0  0  0  0  0  0  0
   -2.2039    1.9448    0.6639 O   0  0  0  0  0  0  0  0  0  0  0  0
   -0.4306    1.8354    2.0503 N   0  0  0  0  0  0  0  0  0  0  0  0
    0.3001    1.2459    2.4139 H   0  0  0  0  0  0  0  0  0  0  0  0
   -0.5192    3.2082    2.5456 C   0  0  0  0  0  0  0  0  0  0  0  0
   -1.5166    3.3903    2.9518 H   0  0  0  0  0  0  0  0  0  0  0  0
    0.2240    3.3791    3.3257 H   0  0  0  0  0  0  0  0  0  0  0  0
   -0.3477    3.9067    1.7239 H   0  0  0  0  0  0  0  0  0  0  0  0
  5  6  2  0  0  0  0
  5  7  1  0  0  0  0
  2  3  1  0  0  0  0
  2  4  1  0  0  0  0
  2  5  1  0  0  0  0
  1  2  1  0  0  0  0
 26 27  2  0  0  0  0
 26 28  1  0  0  0  0
 23 24  1  0  0  0  0
 23 25  1  0  0  0  0
 20 21  1  0  0  0  0
 20 22  1  0  0  0  0
 20 23  1  0  0  0  0
 17 18  1  0  0  0  0
 17 19  1  0  0  0  0
 17 20  1  0  0  0  0
 14 15  1  0  0  0  0
 14 16  1  0  0  0  0
 14 17  1  0  0  0  0
 11 12  1  0  0  0  0
 11 13  1  0  0  0  0
 11 14  1  0  0  0  0
  9 10  1  0  0  0  0
  9 11  1  0  0  0  0
  9 26  1  0  0  0  0
  7  8  1  0  0  0  0
  7  9  1  0  0  0  0
 30 31  1  0  0  0  0
 30 32  1  0  0  0  0
 30 33  1  0  0  0  0
 28 29  1  0  0  0  0
 28 30  1  0  0  0  0
M  END
$$$$
default_name
  -OEChem-02102213163D

 33 32  0     1  0  0  0  0  0999 V2000
   -3.8420   -3.6918    1.5562 H   0  0  0  0  0  0  0  0  0  0  0  0
   -3.8430   -2.7008    1.1032 C   0  0  0  0  0  0  0  0  0  0  0  0
   -4.5510   -2.0608    1.6242 H   0  0  0  0  0  0  0  0  0  0  0  0
   -4.1140   -2.7798    0.0522 H   0  0  0  0  0  0  0  0  0  0  0  0
   -2.4570   -2.1098    1.2172 C   0  0  0  0  0  0  0  0  0  0  0  0
   -1.5600   -2.7438    1.7572 O   0  0  0  0  0  0  0  0  0  0  0  0
   -2.2870   -0.8898    0.7102 N   0  0  0  0  0  0  0  0  0  0  0  0
   -3.0820   -0.4218    0.2992 H   0  0  0  0  0  0  0  0  0  0  0  0
   -1.0240   -0.1468    0.7262 C   0  0  1  0  0  0  0  0  0  0  0  0
   -0.3583   -0.6100    1.4558 H   0  0  0  0  0  0  0  0  0  0  0  0
   -0.3739   -0.2459   -0.6675 C   0  0  0  0  0  0  0  0  0  0  0  0
   -0.9144    0.4129   -1.3502 H   0  0  0  0  0  0  0  0  0  0  0  0
    0.6592    0.0991   -0.6078 H   0  0  0  0  0  0  0  0  0  0  0  0
   -0.4004   -1.6672   -1.2511 C   0  0  0  0  0  0  0  0  0  0  0  0
    0.2931   -1.7313   -2.0901 H   0  0  0  0  0  0  0  0  0  0  0  0
   -0.0956   -2.3775   -0.4804 H   0  0  0  0  0  0  0  0  0  0  0  0
   -1.8057   -2.0304   -1.7440 C   0  0  0  0  0  0  0  0  0  0  0  0
   -2.5129   -1.9632   -0.9168 H   0  0  0  0  0  0  0  0  0  0  0  0
   -2.1052   -1.3379   -2.5312 H   0  0  0  0  0  0  0  0  0  0  0  0
   -1.8095   -3.4548   -2.2956 C   0  0  0  0  0  0  0  0  0  0  0  0
   -1.1176   -3.5197   -3.1338 H   0  0  0  0  0  0  0  0  0  0  0  0
   -1.4935   -4.1459   -1.5159 H   0  0  0  0  0  0  0  0  0  0  0  0
   -3.1476   -3.8439   -2.7554 N   0  0  0  0  0  0  0  0  0  0  0  0
   -3.1102   -4.7825   -3.1251 H   0  0  0  0  0  0  0  0  0  0  0  0
   -3.7874   -3.8163   -1.9742 H   0  0  0  0  0  0  0  0  0  0  0  0
   -1.2712    1.3099    1.1517 C   0  0  0  0  0  0  0  0  0  0  0  0
   -2.2039    1.9448    0.6639 O   0  0  0  0  0  0  0  0  0  0  0  0
   -0.4306    1.8354    2.0503 N   0  0  0  0  0  0  0  0  0  0  0  0
    0.3001    1.2459    2.4139 H   0  0  0  0  0  0  0  0  0  0  0  0
   -0.5192    3.2082    2.5456 C   0  0  0  0  0  0  0  0  0  0  0  0
   -1.5166    3.3903    2.9518 H   0  0  0  0  0  0  0  0  0  0  0  0
    0.2240    3.3791    3.3257 H   0  0  0  0  0  0  0  0  0  0  0  0
   -0.3477    3.9067    1.7239 H   0  0  0  0  0  0  0  0  0  0  0  0
  5  6  2  0  0  0  0
  5  7  1  0  0  0  0
  2  3  1  0  0  0  0
  2  4  1  0  0  0  0
  2  5  1  0  0  0  0
  1  2  1  0  0  0  0
 26 27  2  0  0  0  0
 26 28  1  0  0  0  0
 23 24  1  0  0  0  0
 23 25  1  0  0  0  0
 20 21  1  0  0  0  0
 20 22  1  0  0  0  0
 20 23  1  0  0  0  0
 17 18  1  0  0  0  0
 17 19  1  0  0  0  0
 17 20  1  0  0  0  0
 14 15  1  0  0  0  0
 14 16  1  0  0  0  0
 14 17  1  0  0  0  0
 11 12  1  0  0  0  0
 11 13  1  0  0  0  0
 11 14  1  0  0  0  0
  9 10  1  0  0  0  0
  9 11  1  0  0  0  0
  9 26  1  0  0  0  0
  7  8  1  0  0  0  0
  7  9  1  0  0  0  0
 30 31  1  0  0  0  0
 30 32  1  0  0  0  0
 30 33  1  0  0  0  0
 28 29  1  0  0  0  0
 28 30  1  0  0  0  0
M  END
$$$$
default_name
  -OEChem-02102213163D

 33 32  0     1  0  0  0  0  0999 V2000
   -3.8420   -3.6918    1.5562 H   0  0  0  0  0  0  0  0  0  0  0  0
   -3.8430   -2.7008    1.1032 C   0  0  0  0  0  0  0  0  0  0  0  0
   -4.5510   -2.0608    1.6242 H   0  0  0  0  0  0  0  0  0  0  0  0
   -4.1140   -2.7798    0.0522 H   0  0  0  0  0  0  0  0  0  0  0  0
   -2.4570   -2.1098    1.2172 C   0  0  0  0  0  0  0  0  0  0  0  0
   -1.5600   -2.7438    1.7572 O   0  0  0  0  0  0  0  0  0  0  0  0
   -2.2870   -0.8898    0.7102 N   0  0  0  0  0  0  0  0  0  0  0  0
   -3.0820   -0.4218    0.2992 H   0  0  0  0  0  0  0  0  0  0  0  0
   -1.0240   -0.1468    0.7262 C   0  0  1  0  0  0  0  0  0  0  0  0
   -0.3583   -0.6100    1.4558 H   0  0  0  0  0  0  0  0  0  0  0  0
   -0.3739   -0.2459   -0.6675 C   0  0  0  0  0  0  0  0  0  0  0  0
   -0.9144    0.4129   -1.3502 H   0  0  0  0  0  0  0  0  0  0  0  0
    0.6592    0.0991   -0.6078 H   0  0  0  0  0  0  0  0  0  0  0  0
   -0.4004   -1.6672   -1.2511 C   0  0  0  0  0  0  0  0  0  0  0  0
    0.4638   -1.8126   -1.9000 H   0  0  0  0  0  0  0  0  0  0  0  0
   -0.3605   -2.3911   -0.4352 H   0  0  0  0  0  0  0  0  0  0  0  0
   -1.6758   -1.8993   -2.0691 C   0  0  0  0  0  0  0  0  0  0  0  0
   -2.5502   -1.7497   -1.4349 H   0  0  0  0  0  0  0  0  0  0  0  0
   -1.7084   -1.1938   -2.8999 H   0  0  0  0  0  0  0  0  0  0  0  0
   -1.6884   -3.3254   -2.6162 C   0  0  0  0  0  0  0  0  0  0  0  0
   -0.8260   -3.4714   -3.2647 H   0  0  0  0  0  0  0  0  0  0  0  0
   -1.6380   -4.0311   -1.7887 H   0  0  0  0  0  0  0  0  0  0  0  0
   -2.9094   -3.5893   -3.3861 N   0  0  0  0  0  0  0  0  0  0  0  0
   -2.8777   -4.5330   -3.7431 H   0  0  0  0  0  0  0  0  0  0  0  0
   -3.7115   -3.4865   -2.7808 H   0  0  0  0  0  0  0  0  0  0  0  0
   -1.2712    1.3099    1.1517 C   0  0  0  0  0  0  0  0  0  0  0  0
   -2.2039    1.9448    0.6639 O   0  0  0  0  0  0  0  0  0  0  0  0
   -0.4306    1.8354    2.0503 N   0  0  0  0  0  0  0  0  0  0  0  0
    0.3001    1.2459    2.4139 H   0  0  0  0  0  0  0  0  0  0  0  0
   -0.5192    3.2082    2.5456 C   0  0  0  0  0  0  0  0  0  0  0  0
   -1.5166    3.3903    2.9518 H   0  0  0  0  0  0  0  0  0  0  0  0
    0.2240    3.3791    3.3257 H   0  0  0  0  0  0  0  0  0  0  0  0
   -0.3477    3.9067    1.7239 H   0  0  0  0  0  0  0  0  0  0  0  0
  5  6  2  0  0  0  0
  5  7  1  0  0  0  0
  2  3  1  0  0  0  0
  2  4  1  0  0  0  0
  2  5  1  0  0  0  0
  1  2  1  0  0  0  0
 26 27  2  0  0  0  0
 26 28  1  0  0  0  0
 23 24  1  0  0  0  0
 23 25  1  0  0  0  0
 20 21  1  0  0  0  0
 20 22  1  0  0  0  0
 20 23  1  0  0  0  0
 17 18  1  0  0  0  0
 17 19  1  0  0  0  0
 17 20  1  0  0  0  0
 14 15  1  0  0  0  0
 14 16  1  0  0  0  0
 14 17  1  0  0  0  0
 11 12  1  0  0  0  0
 11 13  1  0  0  0  0
 11 14  1  0  0  0  0
  9 10  1  0  0  0  0
  9 11  1  0  0  0  0
  9 26  1  0  0  0  0
  7  8  1  0  0  0  0
  7  9  1  0  0  0  0
 30 31  1  0  0  0  0
 30 32  1  0  0  0  0
 30 33  1  0  0  0  0
 28 29  1  0  0  0  0
 28 30  1  0  0  0  0
M  END
$$$$
default_name
  -OEChem-02102213163D

 33 32  0     1  0  0  0  0  0999 V2000
   -3.8420   -3.6918    1.5562 H   0  0  0  0  0  0  0  0  0  0  0  0
   -3.8430   -2.7008    1.1032 C   0  0  0  0  0  0  0  0  0  0  0  0
   -4.5510   -2.0608    1.6242 H   0  0  0  0  0  0  0  0  0  0  0  0
   -4.1140   -2.7798    0.0522 H   0  0  0  0  0  0  0  0  0  0  0  0
   -2.4570   -2.1098    1.2172 C   0  0  0  0  0  0  0  0  0  0  0  0
   -1.5600   -2.7438    1.7572 O   0  0  0  0  0  0  0  0  0  0  0  0
   -2.2870   -0.8898    0.7102 N   0  0  0  0  0  0  0  0  0  0  0  0
   -3.0820   -0.4218    0.2992 H   0  0  0  0  0  0  0  0  0  0  0  0
   -1.0240   -0.1468    0.7262 C   0  0  1  0  0  0  0  0  0  0  0  0
   -0.3583   -0.6100    1.4558 H   0  0  0  0  0  0  0  0  0  0  0  0
   -0.3739   -0.2459   -0.6675 C   0  0  0  0  0  0  0  0  0  0  0  0
   -0.9144    0.4129   -1.3502 H   0  0  0  0  0  0  0  0  0  0  0  0
    0.6592    0.0991   -0.6078 H   0  0  0  0  0  0  0  0  0  0  0  0
   -0.4004   -1.6672   -1.2511 C   0  0  0  0  0  0  0  0  0  0  0  0
    0.5751   -1.9070   -1.6751 H   0  0  0  0  0  0  0  0  0  0  0  0
   -0.6286   -2.3780   -0.4549 H   0  0  0  0  0  0  0  0  0  0  0  0
   -1.4597   -1.7869   -2.3526 C   0  0  0  0  0  0  0  0  0  0  0  0
   -2.4412   -1.5421   -1.9453 H   0  0  0  0  0  0  0  0  0  0  0  0
   -1.2228   -1.0954   -3.1616 H   0  0  0  0  0  0  0  0  0  0  0  0
   -1.4820   -3.2137   -2.8975 C   0  0  0  0  0  0  0  0  0  0  0  0
   -0.5083   -3.4539   -3.3215 H   0  0  0  0  0  0  0  0  0  0  0  0
   -1.7009   -3.9073   -2.0874 H   0  0  0  0  0  0  0  0  0  0  0  0
   -2.5034   -3.3696   -3.9395 N   0  0  0  0  0  0  0  0  0  0  0  0
   -2.4806   -4.3176   -4.2856 H   0  0  0  0  0  0  0  0  0  0  0  0
   -3.4127   -3.1789   -3.5433 H   0  0  0  0  0  0  0  0  0  0  0  0
   -1.2712    1.3099    1.1517 C   0  0  0  0  0  0  0  0  0  0  0  0
   -2.2039    1.9448    0.6639 O   0  0  0  0  0  0  0  0  0  0  0  0
   -0.4306    1.8354    2.0503 N   0  0  0  0  0  0  0  0  0  0  0  0
    0.3001    1.2459    2.4139 H   0  0  0  0  0  0  0  0  0  0  0  0
   -0.5192    3.2082    2.5456 C   0  0  0  0  0  0  0  0  0  0  0  0
   -1.5166    3.3903    2.9518 H   0  0  0  0  0  0  0  0  0  0  0  0
    0.2240    3.3791    3.3257 H   0  0  0  0  0  0  0  0  0  0  0  0
   -0.3477    3.9067    1.7239 H   0  0  0  0  0  0  0  0  0  0  0  0
  5  6  2  0  0  0  0
  5  7  1  0  0  0  0
  2  3  1  0  0  0  0
  2  4  1  0  0  0  0
  2  5  1  0  0  0  0
  1  2  1  0  0  0  0
 26 27  2  0  0  0  0
 26 28  1  0  0  0  0
 23 24  1  0  0  0  0
 23 25  1  0  0  0  0
 20 21  1  0  0  0  0
 20 22  1  0  0  0  0
 20 23  1  0  0  0  0
 17 18  1  0  0  0  0
 17 19  1  0  0  0  0
 17 20  1  0  0  0  0
 14 15  1  0  0  0  0
 14 16  1  0  0  0  0
 14 17  1  0  0  0  0
 11 12  1  0  0  0  0
 11 13  1  0  0  0  0
 11 14  1  0  0  0  0
  9 10  1  0  0  0  0
  9 11  1  0  0  0  0
  9 26  1  0  0  0  0
  7  8  1  0  0  0  0
  7  9  1  0  0  0  0
 30 31  1  0  0  0  0
 30 32  1  0  0  0  0
 30 33  1  0  0  0  0
 28 29  1  0  0  0  0
 28 30  1  0  0  0  0
M  END
$$$$
default_name
  -OEChem-02102213163D

 33 32  0     1  0  0  0  0  0999 V2000
   -3.8420   -3.6918    1.5562 H   0  0  0  0  0  0  0  0  0  0  0  0
   -3.8430   -2.7008    1.1032 C   0  0  0  0  0  0  0  0  0  0  0  0
   -4.5510   -2.0608    1.6242 H   0  0  0  0  0  0  0  0  0  0  0  0
   -4.1140   -2.7798    0.0522 H   0  0  0  0  0  0  0  0  0  0  0  0
   -2.4570   -2.1098    1.2172 C   0  0  0  0  0  0  0  0  0  0  0  0
   -1.5600   -2.7438    1.7572 O   0  0  0  0  0  0  0  0  0  0  0  0
   -2.2870   -0.8898    0.7102 N   0  0  0  0  0  0  0  0  0  0  0  0
   -3.0820   -0.4218    0.2992 H   0  0  0  0  0  0  0  0  0  0  0  0
   -1.0240   -0.1468    0.7262 C   0  0  1  0  0  0  0  0  0  0  0  0
   -0.3583   -0.6100    1.4558 H   0  0  0  0  0  0  0  0  0  0  0  0
   -0.3739   -0.2459   -0.6675 C   0  0  0  0  0  0  0  0  0  0  0  0
   -0.9144    0.4129   -1.3502 H   0  0  0  0  0  0  0  0  0  0  0  0
    0.6592    0.0991   -0.6078 H   0  0  0  0  0  0  0  0  0  0  0  0
   -0.4004   -1.6672   -1.2511 C   0  0  0  0  0  0  0  0  0  0  0  0
    0.6196   -2.0081   -1.4308 H   0  0  0  0  0  0  0  0  0  0  0  0
   -0.8815   -2.3391   -0.5381 H   0  0  0  0  0  0  0  0  0  0  0  0
   -1.1721   -1.7009   -2.5752 C   0  0  0  0  0  0  0  0  0  0  0  0
   -2.1933   -1.3546   -2.4131 H   0  0  0  0  0  0  0  0  0  0  0  0
   -0.6813   -1.0492   -3.2987 H   0  0  0  0  0  0  0  0  0  0  0  0
   -1.2043   -3.1274   -3.1203 C   0  0  0  0  0  0  0  0  0  0  0  0
   -0.1861   -3.4686   -3.3004 H   0  0  0  0  0  0  0  0  0  0  0  0
   -1.6781   -3.7829   -2.3914 H   0  0  0  0  0  0  0  0  0  0  0  0
   -1.9571   -3.1998   -4.3778 N   0  0  0  0  0  0  0  0  0  0  0  0
   -1.9460   -4.1511   -4.7155 H   0  0  0  0  0  0  0  0  0  0  0  0
   -2.9114   -2.9146   -4.2096 H   0  0  0  0  0  0  0  0  0  0  0  0
   -1.2712    1.3099    1.1517 C   0  0  0  0  0  0  0  0  0  0  0  0
   -2.2039    1.9448    0.6639 O   0  0  0  0  0  0  0  0  0  0  0  0
   -0.4306    1.8354    2.0503 N   0  0  0  0  0  0  0  0  0  0  0  0
    0.3001    1.2459    2.4139 H   0  0  0  0  0  0  0  0  0  0  0  0
   -0.5192    3.2082    2.5456 C   0  0  0  0  0  0  0  0  0  0  0  0
   -1.5166    3.3903    2.9518 H   0  0  0  0  0  0  0  0  0  0  0  0
    0.2240    3.3791    3.3257 H   0  0  0  0  0  0  0  0  0  0  0  0
   -0.3477    3.9067    1.7239 H   0  0  0  0  0  0  0  0  0  0  0  0
  5  6  2  0  0  0  0
  5  7  1  0  0  0  0
  2  3  1  0  0  0  0
  2  4  1  0  0  0  0
  2  5  1  0  0  0  0
  1  2  1  0  0  0  0
 26 27  2  0  0  0  0
 26 28  1  0  0  0  0
 23 24  1  0  0  0  0
 23 25  1  0  0  0  0
 20 21  1  0  0  0  0
 20 22  1  0  0  0  0
 20 23  1  0  0  0  0
 17 18  1  0  0  0  0
 17 19  1  0  0  0  0
 17 20  1  0  0  0  0
 14 15  1  0  0  0  0
 14 16  1  0  0  0  0
 14 17  1  0  0  0  0
 11 12  1  0  0  0  0
 11 13  1  0  0  0  0
 11 14  1  0  0  0  0
  9 10  1  0  0  0  0
  9 11  1  0  0  0  0
  9 26  1  0  0  0  0
  7  8  1  0  0  0  0
  7  9  1  0  0  0  0
 30 31  1  0  0  0  0
 30 32  1  0  0  0  0
 30 33  1  0  0  0  0
 28 29  1  0  0  0  0
 28 30  1  0  0  0  0
M  END
$$$$
default_name
  -OEChem-02102213163D

 33 32  0     1  0  0  0  0  0999 V2000
   -3.8420   -3.6918    1.5562 H   0  0  0  0  0  0  0  0  0  0  0  0
   -3.8430   -2.7008    1.1032 C   0  0  0  0  0  0  0  0  0  0  0  0
   -4.5510   -2.0608    1.6242 H   0  0  0  0  0  0  0  0  0  0  0  0
   -4.1140   -2.7798    0.0522 H   0  0  0  0  0  0  0  0  0  0  0  0
   -2.4570   -2.1098    1.2172 C   0  0  0  0  0  0  0  0  0  0  0  0
   -1.5600   -2.7438    1.7572 O   0  0  0  0  0  0  0  0  0  0  0  0
   -2.2870   -0.8898    0.7102 N   0  0  0  0  0  0  0  0  0  0  0  0
   -3.0820   -0.4218    0.2992 H   0  0  0  0  0  0  0  0  0  0  0  0
   -1.0240   -0.1468    0.7262 C   0  0  1  0  0  0  0  0  0  0  0  0
   -0.3583   -0.6100    1.4558 H   0  0  0  0  0  0  0  0  0  0  0  0
   -0.3739   -0.2459   -0.6675 C   0  0  0  0  0  0  0  0  0  0  0  0
   -0.9144    0.4129   -1.3502 H   0  0  0  0  0  0  0  0  0  0  0  0
    0.6592    0.0991   -0.6078 H   0  0  0  0  0  0  0  0  0  0  0  0
   -0.4004   -1.6672   -1.2511 C   0  0  0  0  0  0  0  0  0  0  0  0
    0.5941   -2.1091   -1.1837 H   0  0  0  0  0  0  0  0  0  0  0  0
   -1.1021   -2.2771   -0.6792 H   0  0  0  0  0  0  0  0  0  0  0  0
   -0.8324   -1.6470   -2.7217 C   0  0  0  0  0  0  0  0  0  0  0  0
   -1.8234   -1.2000   -2.8065 H   0  0  0  0  0  0  0  0  0  0  0  0
   -0.1210   -1.0584   -3.3017 H   0  0  0  0  0  0  0  0  0  0  0  0
   -0.8742   -3.0723   -3.2694 C   0  0  0  0  0  0  0  0  0  0  0  0
    0.1186   -3.5143   -3.2029 H   0  0  0  0  0  0  0  0  0  0  0  0
   -1.5710   -3.6663   -2.6802 H   0  0  0  0  0  0  0  0  0  0  0  0
   -1.3078   -3.0914   -4.6711 N   0  0  0  0  0  0  0  0  0  0  0  0
   -1.3104   -4.0446   -5.0035 H   0  0  0  0  0  0  0  0  0  0  0  0
   -2.2416   -2.7116   -4.7343 H   0  0  0  0  0  0  0  0  0  0  0  0
   -1.2712    1.3099    1.1517 C   0  0  0  0  0  0  0  0  0  0  0  0
   -2.2039    1.9448    0.6639 O   0  0  0  0  0  0  0  0  0  0  0  0
   -0.4306    1.8354    2.0503 N   0  0  0  0  0  0  0  0  0  0  0  0
    0.3001    1.2459    2.4139 H   0  0  0  0  0  0  0  0  0  0  0  0
   -0.5192    3.2082    2.5456 C   0  0  0  0  0  0  0  0  0  0  0  0
   -1.5166    3.3903    2.9518 H   0  0  0  0  0  0  0  0  0  0  0  0
    0.2240    3.3791    3.3257 H   0  0  0  0  0  0  0  0  0  0  0  0
   -0.3477    3.9067    1.7239 H   0  0  0  0  0  0  0  0  0  0  0  0
  5  6  2  0  0  0  0
  5  7  1  0  0  0  0
  2  3  1  0  0  0  0
  2  4  1  0  0  0  0
  2  5  1  0  0  0  0
  1  2  1  0  0  0  0
 26 27  2  0  0  0  0
 26 28  1  0  0  0  0
 23 24  1  0  0  0  0
 23 25  1  0  0  0  0
 20 21  1  0  0  0  0
 20 22  1  0  0  0  0
 20 23  1  0  0  0  0
 17 18  1  0  0  0  0
 17 19  1  0  0  0  0
 17 20  1  0  0  0  0
 14 15  1  0  0  0  0
 14 16  1  0  0  0  0
 14 17  1  0  0  0  0
 11 12  1  0  0  0  0
 11 13  1  0  0  0  0
 11 14  1  0  0  0  0
  9 10  1  0  0  0  0
  9 11  1  0  0  0  0
  9 26  1  0  0  0  0
  7  8  1  0  0  0  0
  7  9  1  0  0  0  0
 30 31  1  0  0  0  0
 30 32  1  0  0  0  0
 30 33  1  0  0  0  0
 28 29  1  0  0  0  0
 28 30  1  0  0  0  0
M  END
$$$$
default_name
  -OEChem-02102213163D

 33 32  0     1  0  0  0  0  0999 V2000
   -3.8420   -3.6918    1.5562 H   0  0  0  0  0  0  0  0  0  0  0  0
   -3.8430   -2.7008    1.1032 C   0  0  0  0  0  0  0  0  0  0  0  0
   -4.5510   -2.0608    1.6242 H   0  0  0  0  0  0  0  0  0  0  0  0
   -4.1140   -2.7798    0.0522 H   0  0  0  0  0  0  0  0  0  0  0  0
   -2.4570   -2.1098    1.2172 C   0  0  0  0  0  0  0  0  0  0  0  0
   -1.5600   -2.7438    1.7572 O   0  0  0  0  0  0  0  0  0  0  0  0
   -2.2870   -0.8898    0.7102 N   0  0  0  0  0  0  0  0  0  0  0  0
   -3.0820   -0.4218    0.2992 H   0  0  0  0  0  0  0  0  0  0  0  0
   -1.0240   -0.1468    0.7262 C   0  0  1  0  0  0  0  0  0  0  0  0
   -0.3583   -0.6100    1.4558 H   0  0  0  0  0  0  0  0  0  0  0  0
   -0.3739   -0.2459   -0.6675 C   0  0  0  0  0  0  0  0  0  0  0  0
   -0.9144    0.4129   -1.3502 H   0  0  0  0  0  0  0  0  0  0  0  0
    0.6592    0.0991   -0.6078 H   0  0  0  0  0  0  0  0  0  0  0  0
   -0.4004   -1.6672   -1.2511 C   0  0  0  0  0  0  0  0  0  0  0  0
    0.5004   -2.2031   -0.9507 H   0  0  0  0  0  0  0  0  0  0  0  0
   -1.2752   -2.1961   -0.8686 H   0  0  0  0  0  0  0  0  0  0  0  0
   -0.4640   -1.6290   -2.7822 C   0  0  0  0  0  0  0  0  0  0  0  0
   -1.3568   -1.0887   -3.0986 H   0  0  0  0  0  0  0  0  0  0  0  0
    0.4201   -1.1224   -3.1703 H   0  0  0  0  0  0  0  0  0  0  0  0
   -0.5143   -3.0522   -3.3346 C   0  0  0  0  0  0  0  0  0  0  0  0
    0.3851   -3.5880   -3.0355 H   0  0  0  0  0  0  0  0  0  0  0  0
   -1.3869   -3.5654   -2.9341 H   0  0  0  0  0  0  0  0  0  0  0  0
   -0.5998   -3.0519   -4.7995 N   0  0  0  0  0  0  0  0  0  0  0  0
   -0.6170   -4.0056   -5.1300 H   0  0  0  0  0  0  0  0  0  0  0  0
   -1.4491   -2.5837   -5.0818 H   0  0  0  0  0  0  0  0  0  0  0  0
   -1.2712    1.3099    1.1517 C   0  0  0  0  0  0  0  0  0  0  0  0
   -2.2039    1.9448    0.6639 O   0  0  0  0  0  0  0  0  0  0  0  0
   -0.4306    1.8354    2.0503 N   0  0  0  0  0  0  0  0  0  0  0  0
    0.3001    1.2459    2.4139 H   0  0  0  0  0  0  0  0  0  0  0  0
   -0.5192    3.2082    2.5456 C   0  0  0  0  0  0  0  0  0  0  0  0
   -1.5166    3.3903    2.9518 H   0  0  0  0  0  0  0  0  0  0  0  0
    0.2240    3.3791    3.3257 H   0  0  0  0  0  0  0  0  0  0  0  0
   -0.3477    3.9067    1.7239 H   0  0  0  0  0  0  0  0  0  0  0  0
  5  6  2  0  0  0  0
  5  7  1  0  0  0  0
  2  3  1  0  0  0  0
  2  4  1  0  0  0  0
  2  5  1  0  0  0  0
  1  2  1  0  0  0  0
 26 27  2  0  0  0  0
 26 28  1  0  0  0  0
 23 24  1  0  0  0  0
 23 25  1  0  0  0  0
 20 21  1  0  0  0  0
 20 22  1  0  0  0  0
 20 23  1  0  0  0  0
 17 18  1  0  0  0  0
 17 19  1  0  0  0  0
 17 20  1  0  0  0  0
 14 15  1  0  0  0  0
 14 16  1  0  0  0  0
 14 17  1  0  0  0  0
 11 12  1  0  0  0  0
 11 13  1  0  0  0  0
 11 14  1  0  0  0  0
  9 10  1  0  0  0  0
  9 11  1  0  0  0  0
  9 26  1  0  0  0  0
  7  8  1  0  0  0  0
  7  9  1  0  0  0  0
 30 31  1  0  0  0  0
 30 32  1  0  0  0  0
 30 33  1  0  0  0  0
 28 29  1  0  0  0  0
 28 30  1  0  0  0  0
M  END
$$$$
default_name
  -OEChem-02102213163D

 33 32  0     1  0  0  0  0  0999 V2000
   -3.8420   -3.6918    1.5562 H   0  0  0  0  0  0  0  0  0  0  0  0
   -3.8430   -2.7008    1.1032 C   0  0  0  0  0  0  0  0  0  0  0  0
   -4.5510   -2.0608    1.6242 H   0  0  0  0  0  0  0  0  0  0  0  0
   -4.1140   -2.7798    0.0522 H   0  0  0  0  0  0  0  0  0  0  0  0
   -2.4570   -2.1098    1.2172 C   0  0  0  0  0  0  0  0  0  0  0  0
   -1.5600   -2.7438    1.7572 O   0  0  0  0  0  0  0  0  0  0  0  0
   -2.2870   -0.8898    0.7102 N   0  0  0  0  0  0  0  0  0  0  0  0
   -3.0820   -0.4218    0.2992 H   0  0  0  0  0  0  0  0  0  0  0  0
   -1.0240   -0.1468    0.7262 C   0  0  1  0  0  0  0  0  0  0  0  0
   -0.3583   -0.6100    1.4558 H   0  0  0  0  0  0  0  0  0  0  0  0
   -0.3739   -0.2459   -0.6675 C   0  0  0  0  0  0  0  0  0  0  0  0
   -0.9144    0.4129   -1.3502 H   0  0  0  0  0  0  0  0  0  0  0  0
    0.6592    0.0991   -0.6078 H   0  0  0  0  0  0  0  0  0  0  0  0
   -0.4004   -1.6672   -1.2511 C   0  0  0  0  0  0  0  0  0  0  0  0
    0.3449   -2.2836   -0.7477 H   0  0  0  0  0  0  0  0  0  0  0  0
   -1.3892   -2.1017   -1.0934 H   0  0  0  0  0  0  0  0  0  0  0  0
   -0.0919   -1.6481   -2.7526 C   0  0  0  0  0  0  0  0  0  0  0  0
   -0.8252   -1.0284   -3.2695 H   0  0  0  0  0  0  0  0  0  0  0  0
    0.9050   -1.2368   -2.9137 H   0  0  0  0  0  0  0  0  0  0  0  0
   -0.1490   -3.0685   -3.3116 C   0  0  0  0  0  0  0  0  0  0  0  0
    0.5952   -3.6847   -2.8097 H   0  0  0  0  0  0  0  0  0  0  0  0
   -1.1385   -3.4873   -3.1356 H   0  0  0  0  0  0  0  0  0  0  0  0
    0.1188   -3.0839   -4.7543 N   0  0  0  0  0  0  0  0  0  0  0  0
    0.0869   -4.0366   -5.0863 H   0  0  0  0  0  0  0  0  0  0  0  0
   -0.5879   -2.5395   -5.2283 H   0  0  0  0  0  0  0  0  0  0  0  0
   -1.2712    1.3099    1.1517 C   0  0  0  0  0  0  0  0  0  0  0  0
   -2.2039    1.9448    0.6639 O   0  0  0  0  0  0  0  0  0  0  0  0
   -0.4306    1.8354    2.0503 N   0  0  0  0  0  0  0  0  0  0  0  0
    0.3001    1.2459    2.4139 H   0  0  0  0  0  0  0  0  0  0  0  0
   -0.5192    3.2082    2.5456 C   0  0  0  0  0  0  0  0  0  0  0  0
   -1.5166    3.3903    2.9518 H   0  0  0  0  0  0  0  0  0  0  0  0
    0.2240    3.3791    3.3257 H   0  0  0  0  0  0  0  0  0  0  0  0
   -0.3477    3.9067    1.7239 H   0  0  0  0  0  0  0  0  0  0  0  0
  5  6  2  0  0  0  0
  5  7  1  0  0  0  0
  2  3  1  0  0  0  0
  2  4  1  0  0  0  0
  2  5  1  0  0  0  0
  1  2  1  0  0  0  0
 26 27  2  0  0  0  0
 26 28  1  0  0  0  0
 23 24  1  0  0  0  0
 23 25  1  0  0  0  0
 20 21  1  0  0  0  0
 20 22  1  0  0  0  0
 20 23  1  0  0  0  0
 17 18  1  0  0  0  0
 17 19  1  0  0  0  0
 17 20  1  0  0  0  0
 14 15  1  0  0  0  0
 14 16  1  0  0  0  0
 14 17  1  0  0  0  0
 11 12  1  0  0  0  0
 11 13  1  0  0  0  0
 11 14  1  0  0  0  0
  9 10  1  0  0  0  0
  9 11  1  0  0  0  0
  9 26  1  0  0  0  0
  7  8  1  0  0  0  0
  7  9  1  0  0  0  0
 30 31  1  0  0  0  0
 30 32  1  0  0  0  0
 30 33  1  0  0  0  0
 28 29  1  0  0  0  0
 28 30  1  0  0  0  0
M  END
$$$$
default_name
  -OEChem-02102213163D

 33 32  0     1  0  0  0  0  0999 V2000
   -3.8420   -3.6918    1.5562 H   0  0  0  0  0  0  0  0  0  0  0  0
   -3.8430   -2.7008    1.1032 C   0  0  0  0  0  0  0  0  0  0  0  0
   -4.5510   -2.0608    1.6242 H   0  0  0  0  0  0  0  0  0  0  0  0
   -4.1140   -2.7798    0.0522 H   0  0  0  0  0  0  0  0  0  0  0  0
   -2.4570   -2.1098    1.2172 C   0  0  0  0  0  0  0  0  0  0  0  0
   -1.5600   -2.7438    1.7572 O   0  0  0  0  0  0  0  0  0  0  0  0
   -2.2870   -0.8898    0.7102 N   0  0  0  0  0  0  0  0  0  0  0  0
   -3.0820   -0.4218    0.2992 H   0  0  0  0  0  0  0  0  0  0  0  0
   -1.0240   -0.1468    0.7262 C   0  0  1  0  0  0  0  0  0  0  0  0
   -0.3583   -0.6100    1.4558 H   0  0  0  0  0  0  0  0  0  0  0  0
   -0.3739   -0.2459   -0.6675 C   0  0  0  0  0  0  0  0  0  0  0  0
   -0.7254    0.5908   -1.2747 H   0  0  0  0  0  0  0  0  0  0  0  0
    0.7090   -0.1618   -0.5661 H   0  0  0  0  0  0  0  0  0  0  0  0
   -0.7137   -1.5502   -1.4056 C   0  0  0  0  0  0  0  0  0  0  0  0
   -0.3679   -2.4027   -0.8204 H   0  0  0  0  0  0  0  0  0  0  0  0
   -1.7956   -1.6192   -1.5329 H   0  0  0  0  0  0  0  0  0  0  0  0
   -0.0406   -1.5913   -2.7822 C   0  0  0  0  0  0  0  0  0  0  0  0
   -0.3709   -0.7394   -3.3773 H   0  0  0  0  0  0  0  0  0  0  0  0
    1.0419   -1.5467   -2.6590 H   0  0  0  0  0  0  0  0  0  0  0  0
   -0.4143   -2.8849   -3.5035 C   0  0  0  0  0  0  0  0  0  0  0  0
   -0.0689   -3.7368   -2.9200 H   0  0  0  0  0  0  0  0  0  0  0  0
   -1.4963   -2.9396   -3.6115 H   0  0  0  0  0  0  0  0  0  0  0  0
    0.1955   -2.9461   -4.8368 N   0  0  0  0  0  0  0  0  0  0  0  0
   -0.0604   -3.8174   -5.2777 H   0  0  0  0  0  0  0  0  0  0  0  0
   -0.1463   -2.1754   -5.3932 H   0  0  0  0  0  0  0  0  0  0  0  0
   -1.2712    1.3099    1.1517 C   0  0  0  0  0  0  0  0  0  0  0  0
   -2.2039    1.9448    0.6639 O   0  0  0  0  0  0  0  0  0  0  0  0
   -0.4306    1.8354    2.0503 N   0  0  0  0  0  0  0  0  0  0  0  0
    0.3001    1.2459    2.4139 H   0  0  0  0  0  0  0  0  0  0  0  0
   -0.5192    3.2082    2.5456 C   0  0  0  0  0  0  0  0  0  0  0  0
   -1.5166    3.3903    2.9518 H   0  0  0  0  0  0  0  0  0  0  0  0
    0.2240    3.3791    3.3257 H   0  0  0  0  0  0  0  0  0  0  0  0
   -0.3477    3.9067    1.7239 H   0  0  0  0  0  0  0  0  0  0  0  0
  5  6  2  0  0  0  0
  5  7  1  0  0  0  0
  2  3  1  0  0  0  0
  2  4  1  0  0  0  0
  2  5  1  0  0  0  0
  1  2  1  0  0  0  0
 26 27  2  0  0  0  0
 26 28  1  0  0  0  0
 23 24  1  0  0  0  0
 23 25  1  0  0  0  0
 20 21  1  0  0  0  0
 20 22  1  0  0  0  0
 20 23  1  0  0  0  0
 17 18  1  0  0  0  0
 17 19  1  0  0  0  0
 17 20  1  0  0  0  0
 14 15  1  0  0  0  0
 14 16  1  0  0  0  0
 14 17  1  0  0  0  0
 11 12  1  0  0  0  0
 11 13  1  0  0  0  0
 11 14  1  0  0  0  0
  9 10  1  0  0  0  0
  9 11  1  0  0  0  0
  9 26  1  0  0  0  0
  7  8  1  0  0  0  0
  7  9  1  0  0  0  0
 30 31  1  0  0  0  0
 30 32  1  0  0  0  0
 30 33  1  0  0  0  0
 28 29  1  0  0  0  0
 28 30  1  0  0  0  0
M  END
$$$$
default_name
  -OEChem-02102213163D

 33 32  0     1  0  0  0  0  0999 V2000
   -3.8420   -3.6918    1.5562 H   0  0  0  0  0  0  0  0  0  0  0  0
   -3.8430   -2.7008    1.1032 C   0  0  0  0  0  0  0  0  0  0  0  0
   -4.5510   -2.0608    1.6242 H   0  0  0  0  0  0  0  0  0  0  0  0
   -4.1140   -2.7798    0.0522 H   0  0  0  0  0  0  0  0  0  0  0  0
   -2.4570   -2.1098    1.2172 C   0  0  0  0  0  0  0  0  0  0  0  0
   -1.5600   -2.7438    1.7572 O   0  0  0  0  0  0  0  0  0  0  0  0
   -2.2870   -0.8898    0.7102 N   0  0  0  0  0  0  0  0  0  0  0  0
   -3.0820   -0.4218    0.2992 H   0  0  0  0  0  0  0  0  0  0  0  0
   -1.0240   -0.1468    0.7262 C   0  0  1  0  0  0  0  0  0  0  0  0
   -0.3583   -0.6100    1.4558 H   0  0  0  0  0  0  0  0  0  0  0  0
   -0.3739   -0.2459   -0.6675 C   0  0  0  0  0  0  0  0  0  0  0  0
   -0.7254    0.5908   -1.2747 H   0  0  0  0  0  0  0  0  0  0  0  0
    0.7090   -0.1618   -0.5661 H   0  0  0  0  0  0  0  0  0  0  0  0
   -0.7137   -1.5502   -1.4056 C   0  0  0  0  0  0  0  0  0  0  0  0
   -0.6170   -2.3937   -0.7216 H   0  0  0  0  0  0  0  0  0  0  0  0
   -1.7420   -1.5000   -1.7682 H   0  0  0  0  0  0  0  0  0  0  0  0
    0.2296   -1.7682   -2.5940 C   0  0  0  0  0  0  0  0  0  0  0  0
    0.1500   -0.9278   -3.2842 H   0  0  0  0  0  0  0  0  0  0  0  0
    1.2563   -1.8429   -2.2343 H   0  0  0  0  0  0  0  0  0  0  0  0
   -0.1452   -3.0567   -3.3238 C   0  0  0  0  0  0  0  0  0  0  0  0
   -0.0485   -3.8997   -2.6416 H   0  0  0  0  0  0  0  0  0  0  0  0
   -1.1759   -2.9909   -3.6682 H   0  0  0  0  0  0  0  0  0  0  0  0
    0.7249   -3.2840   -4.4834 N   0  0  0  0  0  0  0  0  0  0  0  0
    0.4587   -4.1482   -4.9321 H   0  0  0  0  0  0  0  0  0  0  0  0
    0.6151   -2.5200   -5.1349 H   0  0  0  0  0  0  0  0  0  0  0  0
   -1.2712    1.3099    1.1517 C   0  0  0  0  0  0  0  0  0  0  0  0
   -2.2039    1.9448    0.6639 O   0  0  0  0  0  0  0  0  0  0  0  0
   -0.4306    1.8354    2.0503 N   0  0  0  0  0  0  0  0  0  0  0  0
    0.3001    1.2459    2.4139 H   0  0  0  0  0  0  0  0  0  0  0  0
   -0.5192    3.2082    2.5456 C   0  0  0  0  0  0  0  0  0  0  0  0
   -1.5166    3.3903    2.9518 H   0  0  0  0  0  0  0  0  0  0  0  0
    0.2240    3.3791    3.3257 H   0  0  0  0  0  0  0  0  0  0  0  0
   -0.3477    3.9067    1.7239 H   0  0  0  0  0  0  0  0  0  0  0  0
  5  6  2  0  0  0  0
  5  7  1  0  0  0  0
  2  3  1  0  0  0  0
  2  4  1  0  0  0  0
  2  5  1  0  0  0  0
  1  2  1  0  0  0  0
 26 27  2  0  0  0  0
 26 28  1  0  0  0  0
 23 24  1  0  0  0  0
 23 25  1  0  0  0  0
 20 21  1  0  0  0  0
 20 22  1  0  0  0  0
 20 23  1  0  0  0  0
 17 18  1  0  0  0  0
 17 19  1  0  0  0  0
 17 20  1  0  0  0  0
 14 15  1  0  0  0  0
 14 16  1  0  0  0  0
 14 17  1  0  0  0  0
 11 12  1  0  0  0  0
 11 13  1  0  0  0  0
 11 14  1  0  0  0  0
  9 10  1  0  0  0  0
  9 11  1  0  0  0  0
  9 26  1  0  0  0  0
  7  8  1  0  0  0  0
  7  9  1  0  0  0  0
 30 31  1  0  0  0  0
 30 32  1  0  0  0  0
 30 33  1  0  0  0  0
 28 29  1  0  0  0  0
 28 30  1  0  0  0  0
M  END
$$$$
default_name
  -OEChem-02102213163D

 33 32  0     1  0  0  0  0  0999 V2000
   -3.8420   -3.6918    1.5562 H   0  0  0  0  0  0  0  0  0  0  0  0
   -3.8430   -2.7008    1.1032 C   0  0  0  0  0  0  0  0  0  0  0  0
   -4.5510   -2.0608    1.6242 H   0  0  0  0  0  0  0  0  0  0  0  0
   -4.1140   -2.7798    0.0522 H   0  0  0  0  0  0  0  0  0  0  0  0
   -2.4570   -2.1098    1.2172 C   0  0  0  0  0  0  0  0  0  0  0  0
   -1.5600   -2.7438    1.7572 O   0  0  0  0  0  0  0  0  0  0  0  0
   -2.2870   -0.8898    0.7102 N   0  0  0  0  0  0  0  0  0  0  0  0
   -3.0820   -0.4218    0.2992 H   0  0  0  0  0  0  0  0  0  0  0  0
   -1.0240   -0.1468    0.7262 C   0  0  1  0  0  0  0  0  0  0  0  0
   -0.3583   -0.6100    1.4558 H   0  0  0  0  0  0  0  0  0  0  0  0
   -0.3739   -0.2459   -0.6675 C   0  0  0  0  0  0  0  0  0  0  0  0
   -0.7254    0.5908   -1.2747 H   0  0  0  0  0  0  0  0  0  0  0  0
    0.7090   -0.1618   -0.5661 H   0  0  0  0  0  0  0  0  0  0  0  0
   -0.7137   -1.5502   -1.4056 C   0  0  0  0  0  0  0  0  0  0  0  0
   -0.8782   -2.3484   -0.6814 H   0  0  0  0  0  0  0  0  0  0  0  0
   -1.6238   -1.4050   -1.9905 H   0  0  0  0  0  0  0  0  0  0  0  0
    0.4273   -1.9619   -2.3428 C   0  0  0  0  0  0  0  0  0  0  0  0
    0.6092   -1.1692   -3.0691 H   0  0  0  0  0  0  0  0  0  0  0  0
    1.3332   -2.1314   -1.7600 H   0  0  0  0  0  0  0  0  0  0  0  0
    0.0539   -3.2458   -3.0813 C   0  0  0  0  0  0  0  0  0  0  0  0
   -0.1101   -4.0437   -2.3588 H   0  0  0  0  0  0  0  0  0  0  0  0
   -0.8604   -3.0836   -3.6497 H   0  0  0  0  0  0  0  0  0  0  0  0
    1.1166   -3.6560   -4.0063 N   0  0  0  0  0  0  0  0  0  0  0  0
    0.8430   -4.5125   -4.4653 H   0  0  0  0  0  0  0  0  0  0  0  0
    1.2509   -2.9327   -4.6984 H   0  0  0  0  0  0  0  0  0  0  0  0
   -1.2712    1.3099    1.1517 C   0  0  0  0  0  0  0  0  0  0  0  0
   -2.2039    1.9448    0.6639 O   0  0  0  0  0  0  0  0  0  0  0  0
   -0.4306    1.8354    2.0503 N   0  0  0  0  0  0  0  0  0  0  0  0
    0.3001    1.2459    2.4139 H   0  0  0  0  0  0  0  0  0  0  0  0
   -0.5192    3.2082    2.5456 C   0  0  0  0  0  0  0  0  0  0  0  0
   -1.5166    3.3903    2.9518 H   0  0  0  0  0  0  0  0  0  0  0  0
    0.2240    3.3791    3.3257 H   0  0  0  0  0  0  0  0  0  0  0  0
   -0.3477    3.9067    1.7239 H   0  0  0  0  0  0  0  0  0  0  0  0
  5  6  2  0  0  0  0
  5  7  1  0  0  0  0
  2  3  1  0  0  0  0
  2  4  1  0  0  0  0
  2  5  1  0  0  0  0
  1  2  1  0  0  0  0
 26 27  2  0  0  0  0
 26 28  1  0  0  0  0
 23 24  1  0  0  0  0
 23 25  1  0  0  0  0
 20 21  1  0  0  0  0
 20 22  1  0  0  0  0
 20 23  1  0  0  0  0
 17 18  1  0  0  0  0
 17 19  1  0  0  0  0
 17 20  1  0  0  0  0
 14 15  1  0  0  0  0
 14 16  1  0  0  0  0
 14 17  1  0  0  0  0
 11 12  1  0  0  0  0
 11 13  1  0  0  0  0
 11 14  1  0  0  0  0
  9 10  1  0  0  0  0
  9 11  1  0  0  0  0
  9 26  1  0  0  0  0
  7  8  1  0  0  0  0
  7  9  1  0  0  0  0
 30 31  1  0  0  0  0
 30 32  1  0  0  0  0
 30 33  1  0  0  0  0
 28 29  1  0  0  0  0
 28 30  1  0  0  0  0
M  END
$$$$
default_name
  -OEChem-02102213163D

 33 32  0     1  0  0  0  0  0999 V2000
   -3.8420   -3.6918    1.5562 H   0  0  0  0  0  0  0  0  0  0  0  0
   -3.8430   -2.7008    1.1032 C   0  0  0  0  0  0  0  0  0  0  0  0
   -4.5510   -2.0608    1.6242 H   0  0  0  0  0  0  0  0  0  0  0  0
   -4.1140   -2.7798    0.0522 H   0  0  0  0  0  0  0  0  0  0  0  0
   -2.4570   -2.1098    1.2172 C   0  0  0  0  0  0  0  0  0  0  0  0
   -1.5600   -2.7438    1.7572 O   0  0  0  0  0  0  0  0  0  0  0  0
   -2.2870   -0.8898    0.7102 N   0  0  0  0  0  0  0  0  0  0  0  0
   -3.0820   -0.4218    0.2992 H   0  0  0  0  0  0  0  0  0  0  0  0
   -1.0240   -0.1468    0.7262 C   0  0  1  0  0  0  0  0  0  0  0  0
   -0.3583   -0.6100    1.4558 H   0  0  0  0  0  0  0  0  0  0  0  0
   -0.3739   -0.2459   -0.6675 C   0  0  0  0  0  0  0  0  0  0  0  0
   -0.7254    0.5908   -1.2747 H   0  0  0  0  0  0  0  0  0  0  0  0
    0.7090   -0.1618   -0.5661 H   0  0  0  0  0  0  0  0  0  0  0  0
   -0.7137   -1.5502   -1.4056 C   0  0  0  0  0  0  0  0  0  0  0  0
   -1.1337   -2.2699   -0.7025 H   0  0  0  0  0  0  0  0  0  0  0  0
   -1.4490   -1.3406   -2.1846 H   0  0  0  0  0  0  0  0  0  0  0  0
    0.5390   -2.1592   -2.0456 C   0  0  0  0  0  0  0  0  0  0  0  0
    0.9756   -1.4471   -2.7466 H   0  0  0  0  0  0  0  0  0  0  0  0
    1.2675   -2.3924   -1.2685 H   0  0  0  0  0  0  0  0  0  0  0  0
    0.1694   -3.4393   -2.7925 C   0  0  0  0  0  0  0  0  0  0  0  0
   -0.2497   -4.1589   -2.0910 H   0  0  0  0  0  0  0  0  0  0  0  0
   -0.5713   -3.2113   -3.5572 H   0  0  0  0  0  0  0  0  0  0  0  0
    1.3439   -4.0368   -3.4382 N   0  0  0  0  0  0  0  0  0  0  0  0
    1.0664   -4.8854   -3.9091 H   0  0  0  0  0  0  0  0  0  0  0  0
    1.7180   -3.3854   -4.1135 H   0  0  0  0  0  0  0  0  0  0  0  0
   -1.2712    1.3099    1.1517 C   0  0  0  0  0  0  0  0  0  0  0  0
   -2.2039    1.9448    0.6639 O   0  0  0  0  0  0  0  0  0  0  0  0
   -0.4306    1.8354    2.0503 N   0  0  0  0  0  0  0  0  0  0  0  0
    0.3001    1.2459    2.4139 H   0  0  0  0  0  0  0  0  0  0  0  0
   -0.5192    3.2082    2.5456 C   0  0  0  0  0  0  0  0  0  0  0  0
   -1.5166    3.3903    2.9518 H   0  0  0  0  0  0  0  0  0  0  0  0
    0.2240    3.3791    3.3257 H   0  0  0  0  0  0  0  0  0  0  0  0
   -0.3477    3.9067    1.7239 H   0  0  0  0  0  0  0  0  0  0  0  0
  5  6  2  0  0  0  0
  5  7  1  0  0  0  0
  2  3  1  0  0  0  0
  2  4  1  0  0  0  0
  2  5  1  0  0  0  0
  1  2  1  0  0  0  0
 26 27  2  0  0  0  0
 26 28  1  0  0  0  0
 23 24  1  0  0  0  0
 23 25  1  0  0  0  0
 20 21  1  0  0  0  0
 20 22  1  0  0  0  0
 20 23  1  0  0  0  0
 17 18  1  0  0  0  0
 17 19  1  0  0  0  0
 17 20  1  0  0  0  0
 14 15  1  0  0  0  0
 14 16  1  0  0  0  0
 14 17  1  0  0  0  0
 11 12  1  0  0  0  0
 11 13  1  0  0  0  0
 11 14  1  0  0  0  0
  9 10  1  0  0  0  0
  9 11  1  0  0  0  0
  9 26  1  0  0  0  0
  7  8  1  0  0  0  0
  7  9  1  0  0  0  0
 30 31  1  0  0  0  0
 30 32  1  0  0  0  0
 30 33  1  0  0  0  0
 28 29  1  0  0  0  0
 28 30  1  0  0  0  0
M  END
$$$$
default_name
  -OEChem-02102213163D

 33 32  0     1  0  0  0  0  0999 V2000
   -3.8420   -3.6918    1.5562 H   0  0  0  0  0  0  0  0  0  0  0  0
   -3.8430   -2.7008    1.1032 C   0  0  0  0  0  0  0  0  0  0  0  0
   -4.5510   -2.0608    1.6242 H   0  0  0  0  0  0  0  0  0  0  0  0
   -4.1140   -2.7798    0.0522 H   0  0  0  0  0  0  0  0  0  0  0  0
   -2.4570   -2.1098    1.2172 C   0  0  0  0  0  0  0  0  0  0  0  0
   -1.5600   -2.7438    1.7572 O   0  0  0  0  0  0  0  0  0  0  0  0
   -2.2870   -0.8898    0.7102 N   0  0  0  0  0  0  0  0  0  0  0  0
   -3.0820   -0.4218    0.2992 H   0  0  0  0  0  0  0  0  0  0  0  0
   -1.0240   -0.1468    0.7262 C   0  0  1  0  0  0  0  0  0  0  0  0
   -0.3583   -0.6100    1.4558 H   0  0  0  0  0  0  0  0  0  0  0  0
   -0.3739   -0.2459   -0.6675 C   0  0  0  0  0  0  0  0  0  0  0  0
   -0.7254    0.5908   -1.2747 H   0  0  0  0  0  0  0  0  0  0  0  0
    0.7090   -0.1618   -0.5661 H   0  0  0  0  0  0  0  0  0  0  0  0
   -0.7137   -1.5502   -1.4056 C   0  0  0  0  0  0  0  0  0  0  0  0
   -1.3661   -2.1635   -0.7835 H   0  0  0  0  0  0  0  0  0  0  0  0
   -1.2295   -1.3113   -2.3375 H   0  0  0  0  0  0  0  0  0  0  0  0
    0.5571   -2.3466   -1.7227 C   0  0  0  0  0  0  0  0  0  0  0  0
    1.2240   -1.7427   -2.3387 H   0  0  0  0  0  0  0  0  0  0  0  0
    1.0636   -2.6083   -0.7932 H   0  0  0  0  0  0  0  0  0  0  0  0
    0.1935   -3.6241   -2.4771 C   0  0  0  0  0  0  0  0  0  0  0  0
   -0.4576   -4.2375   -1.8564 H   0  0  0  0  0  0  0  0  0  0  0  0
   -0.3282   -3.3653   -3.3970 H   0  0  0  0  0  0  0  0  0  0  0  0
    1.3913   -4.4003   -2.8177 N   0  0  0  0  0  0  0  0  0  0  0  0
    1.1136   -5.2416   -3.3015 H   0  0  0  0  0  0  0  0  0  0  0  0
    1.9843   -3.8472   -3.4200 H   0  0  0  0  0  0  0  0  0  0  0  0
   -1.2712    1.3099    1.1517 C   0  0  0  0  0  0  0  0  0  0  0  0
   -2.2039    1.9448    0.6639 O   0  0  0  0  0  0  0  0  0  0  0  0
   -0.4306    1.8354    2.0503 N   0  0  0  0  0  0  0  0  0  0  0  0
    0.3001    1.2459    2.4139 H   0  0  0  0  0  0  0  0  0  0  0  0
   -0.5192    3.2082    2.5456 C   0  0  0  0  0  0  0  0  0  0  0  0
   -1.5166    3.3903    2.9518 H   0  0  0  0  0  0  0  0  0  0  0  0
    0.2240    3.3791    3.3257 H   0  0  0  0  0  0  0  0  0  0  0  0
   -0.3477    3.9067    1.7239 H   0  0  0  0  0  0  0  0  0  0  0  0
  5  6  2  0  0  0  0
  5  7  1  0  0  0  0
  2  3  1  0  0  0  0
  2  4  1  0  0  0  0
  2  5  1  0  0  0  0
  1  2  1  0  0  0  0
 26 27  2  0  0  0  0
 26 28  1  0  0  0  0
 23 24  1  0  0  0  0
 23 25  1  0  0  0  0
 20 21  1  0  0  0  0
 20 22  1  0  0  0  0
 20 23  1  0  0  0  0
 17 18  1  0  0  0  0
 17 19  1  0  0  0  0
 17 20  1  0  0  0  0
 14 15  1  0  0  0  0
 14 16  1  0  0  0  0
 14 17  1  0  0  0  0
 11 12  1  0  0  0  0
 11 13  1  0  0  0  0
 11 14  1  0  0  0  0
  9 10  1  0  0  0  0
  9 11  1  0  0  0  0
  9 26  1  0  0  0  0
  7  8  1  0  0  0  0
  7  9  1  0  0  0  0
 30 31  1  0  0  0  0
 30 32  1  0  0  0  0
 30 33  1  0  0  0  0
 28 29  1  0  0  0  0
 28 30  1  0  0  0  0
M  END
$$$$
default_name
  -OEChem-02102213163D

 33 32  0     1  0  0  0  0  0999 V2000
   -3.8420   -3.6918    1.5562 H   0  0  0  0  0  0  0  0  0  0  0  0
   -3.8430   -2.7008    1.1032 C   0  0  0  0  0  0  0  0  0  0  0  0
   -4.5510   -2.0608    1.6242 H   0  0  0  0  0  0  0  0  0  0  0  0
   -4.1140   -2.7798    0.0522 H   0  0  0  0  0  0  0  0  0  0  0  0
   -2.4570   -2.1098    1.2172 C   0  0  0  0  0  0  0  0  0  0  0  0
   -1.5600   -2.7438    1.7572 O   0  0  0  0  0  0  0  0  0  0  0  0
   -2.2870   -0.8898    0.7102 N   0  0  0  0  0  0  0  0  0  0  0  0
   -3.0820   -0.4218    0.2992 H   0  0  0  0  0  0  0  0  0  0  0  0
   -1.0240   -0.1468    0.7262 C   0  0  1  0  0  0  0  0  0  0  0  0
   -0.3583   -0.6100    1.4558 H   0  0  0  0  0  0  0  0  0  0  0  0
   -0.3739   -0.2459   -0.6675 C   0  0  0  0  0  0  0  0  0  0  0  0
   -0.7254    0.5908   -1.2747 H   0  0  0  0  0  0  0  0  0  0  0  0
    0.7090   -0.1618   -0.5661 H   0  0  0  0  0  0  0  0  0  0  0  0
   -0.7137   -1.5502   -1.4056 C   0  0  0  0  0  0  0  0  0  0  0  0
   -1.5595   -2.0365   -0.9189 H   0  0  0  0  0  0  0  0  0  0  0  0
   -0.9802   -1.3191   -2.4386 H   0  0  0  0  0  0  0  0  0  0  0  0
    0.4803   -2.5115   -1.3961 C   0  0  0  0  0  0  0  0  0  0  0  0
    1.3376   -2.0357   -1.8732 H   0  0  0  0  0  0  0  0  0  0  0  0
    0.7353   -2.7642   -0.3666 H   0  0  0  0  0  0  0  0  0  0  0  0
    0.1245   -3.7875   -2.1565 C   0  0  0  0  0  0  0  0  0  0  0  0
   -0.7198   -4.2742   -1.6710 H   0  0  0  0  0  0  0  0  0  0  0  0
   -0.1477   -3.5351   -3.1801 H   0  0  0  0  0  0  0  0  0  0  0  0
    1.2556   -4.7218   -2.1872 N   0  0  0  0  0  0  0  0  0  0  0  0
    0.9815   -5.5568   -2.6838 H   0  0  0  0  0  0  0  0  0  0  0  0
    2.0319   -4.2868   -2.6652 H   0  0  0  0  0  0  0  0  0  0  0  0
   -1.2712    1.3099    1.1517 C   0  0  0  0  0  0  0  0  0  0  0  0
   -2.2039    1.9448    0.6639 O   0  0  0  0  0  0  0  0  0  0  0  0
   -0.4306    1.8354    2.0503 N   0  0  0  0  0  0  0  0  0  0  0  0
    0.3001    1.2459    2.4139 H   0  0  0  0  0  0  0  0  0  0  0  0
   -0.5192    3.2082    2.5456 C   0  0  0  0  0  0  0  0  0  0  0  0
   -1.5166    3.3903    2.9518 H   0  0  0  0  0  0  0  0  0  0  0  0
    0.2240    3.3791    3.3257 H   0  0  0  0  0  0  0  0  0  0  0  0
   -0.3477    3.9067    1.7239 H   0  0  0  0  0  0  0  0  0  0  0  0
  5  6  2  0  0  0  0
  5  7  1  0  0  0  0
  2  3  1  0  0  0  0
  2  4  1  0  0  0  0
  2  5  1  0  0  0  0
  1  2  1  0  0  0  0
 26 27  2  0  0  0  0
 26 28  1  0  0  0  0
 23 24  1  0  0  0  0
 23 25  1  0  0  0  0
 20 21  1  0  0  0  0
 20 22  1  0  0  0  0
 20 23  1  0  0  0  0
 17 18  1  0  0  0  0
 17 19  1  0  0  0  0
 17 20  1  0  0  0  0
 14 15  1  0  0  0  0
 14 16  1  0  0  0  0
 14 17  1  0  0  0  0
 11 12  1  0  0  0  0
 11 13  1  0  0  0  0
 11 14  1  0  0  0  0
  9 10  1  0  0  0  0
  9 11  1  0  0  0  0
  9 26  1  0  0  0  0
  7  8  1  0  0  0  0
  7  9  1  0  0  0  0
 30 31  1  0  0  0  0
 30 32  1  0  0  0  0
 30 33  1  0  0  0  0
 28 29  1  0  0  0  0
 28 30  1  0  0  0  0
M  END
$$$$
default_name
  -OEChem-02102213163D

 33 32  0     1  0  0  0  0  0999 V2000
   -3.8420   -3.6918    1.5562 H   0  0  0  0  0  0  0  0  0  0  0  0
   -3.8430   -2.7008    1.1032 C   0  0  0  0  0  0  0  0  0  0  0  0
   -4.5510   -2.0608    1.6242 H   0  0  0  0  0  0  0  0  0  0  0  0
   -4.1140   -2.7798    0.0522 H   0  0  0  0  0  0  0  0  0  0  0  0
   -2.4570   -2.1098    1.2172 C   0  0  0  0  0  0  0  0  0  0  0  0
   -1.5600   -2.7438    1.7572 O   0  0  0  0  0  0  0  0  0  0  0  0
   -2.2870   -0.8898    0.7102 N   0  0  0  0  0  0  0  0  0  0  0  0
   -3.0820   -0.4218    0.2992 H   0  0  0  0  0  0  0  0  0  0  0  0
   -1.0240   -0.1468    0.7262 C   0  0  1  0  0  0  0  0  0  0  0  0
   -0.3583   -0.6100    1.4558 H   0  0  0  0  0  0  0  0  0  0  0  0
   -0.3739   -0.2459   -0.6675 C   0  0  0  0  0  0  0  0  0  0  0  0
   -0.7254    0.5908   -1.2747 H   0  0  0  0  0  0  0  0  0  0  0  0
    0.7090   -0.1618   -0.5661 H   0  0  0  0  0  0  0  0  0  0  0  0
   -0.7137   -1.5502   -1.4056 C   0  0  0  0  0  0  0  0  0  0  0  0
   -1.7008   -1.8975   -1.0995 H   0  0  0  0  0  0  0  0  0  0  0  0
   -0.7182   -1.3633   -2.4810 H   0  0  0  0  0  0  0  0  0  0  0  0
    0.3139   -2.6424   -1.0881 C   0  0  0  0  0  0  0  0  0  0  0  0
    1.3087   -2.3062   -1.3819 H   0  0  0  0  0  0  0  0  0  0  0  0
    0.3052   -2.8497   -0.0176 H   0  0  0  0  0  0  0  0  0  0  0  0
   -0.0329   -3.9184   -1.8527 C   0  0  0  0  0  0  0  0  0  0  0  0
   -1.0184   -4.2664   -1.5473 H   0  0  0  0  0  0  0  0  0  0  0  0
   -0.0421   -3.7091   -2.9212 H   0  0  0  0  0  0  0  0  0  0  0  0
    0.9461   -4.9794   -1.5895 N   0  0  0  0  0  0  0  0  0  0  0  0
    0.6789   -5.8094   -2.0982 H   0  0  0  0  0  0  0  0  0  0  0  0
    1.8573   -4.6740   -1.9006 H   0  0  0  0  0  0  0  0  0  0  0  0
   -1.2712    1.3099    1.1517 C   0  0  0  0  0  0  0  0  0  0  0  0
   -2.2039    1.9448    0.6639 O   0  0  0  0  0  0  0  0  0  0  0  0
   -0.4306    1.8354    2.0503 N   0  0  0  0  0  0  0  0  0  0  0  0
    0.3001    1.2459    2.4139 H   0  0  0  0  0  0  0  0  0  0  0  0
   -0.5192    3.2082    2.5456 C   0  0  0  0  0  0  0  0  0  0  0  0
   -1.5166    3.3903    2.9518 H   0  0  0  0  0  0  0  0  0  0  0  0
    0.2240    3.3791    3.3257 H   0  0  0  0  0  0  0  0  0  0  0  0
   -0.3477    3.9067    1.7239 H   0  0  0  0  0  0  0  0  0  0  0  0
  5  6  2  0  0  0  0
  5  7  1  0  0  0  0
  2  3  1  0  0  0  0
  2  4  1  0  0  0  0
  2  5  1  0  0  0  0
  1  2  1  0  0  0  0
 26 27  2  0  0  0  0
 26 28  1  0  0  0  0
 23 24  1  0  0  0  0
 23 25  1  0  0  0  0
 20 21  1  0  0  0  0
 20 22  1  0  0  0  0
 20 23  1  0  0  0  0
 17 18  1  0  0  0  0
 17 19  1  0  0  0  0
 17 20  1  0  0  0  0
 14 15  1  0  0  0  0
 14 16  1  0  0  0  0
 14 17  1  0  0  0  0
 11 12  1  0  0  0  0
 11 13  1  0  0  0  0
 11 14  1  0  0  0  0
  9 10  1  0  0  0  0
  9 11  1  0  0  0  0
  9 26  1  0  0  0  0
  7  8  1  0  0  0  0
  7  9  1  0  0  0  0
 30 31  1  0  0  0  0
 30 32  1  0  0  0  0
 30 33  1  0  0  0  0
 28 29  1  0  0  0  0
 28 30  1  0  0  0  0
M  END
$$$$
default_name
  -OEChem-02102213163D

 33 32  0     1  0  0  0  0  0999 V2000
   -3.8420   -3.6918    1.5562 H   0  0  0  0  0  0  0  0  0  0  0  0
   -3.8430   -2.7008    1.1032 C   0  0  0  0  0  0  0  0  0  0  0  0
   -4.5510   -2.0608    1.6242 H   0  0  0  0  0  0  0  0  0  0  0  0
   -4.1140   -2.7798    0.0522 H   0  0  0  0  0  0  0  0  0  0  0  0
   -2.4570   -2.1098    1.2172 C   0  0  0  0  0  0  0  0  0  0  0  0
   -1.5600   -2.7438    1.7572 O   0  0  0  0  0  0  0  0  0  0  0  0
   -2.2870   -0.8898    0.7102 N   0  0  0  0  0  0  0  0  0  0  0  0
   -3.0820   -0.4218    0.2992 H   0  0  0  0  0  0  0  0  0  0  0  0
   -1.0240   -0.1468    0.7262 C   0  0  1  0  0  0  0  0  0  0  0  0
   -0.3583   -0.6100    1.4558 H   0  0  0  0  0  0  0  0  0  0  0  0
   -0.3739   -0.2459   -0.6675 C   0  0  0  0  0  0  0  0  0  0  0  0
   -0.7254    0.5908   -1.2747 H   0  0  0  0  0  0  0  0  0  0  0  0
    0.7090   -0.1618   -0.5661 H   0  0  0  0  0  0  0  0  0  0  0  0
   -0.7137   -1.5502   -1.4056 C   0  0  0  0  0  0  0  0  0  0  0  0
   -1.7804   -1.7560   -1.3129 H   0  0  0  0  0  0  0  0  0  0  0  0
   -0.4613   -1.4410   -2.4619 H   0  0  0  0  0  0  0  0  0  0  0  0
    0.0692   -2.7306   -0.8197 C   0  0  0  0  0  0  0  0  0  0  0  0
    1.1392   -2.5358   -0.8982 H   0  0  0  0  0  0  0  0  0  0  0  0
   -0.1976   -2.8587    0.2298 H   0  0  0  0  0  0  0  0  0  0  0  0
   -0.2679   -4.0080   -1.5864 C   0  0  0  0  0  0  0  0  0  0  0  0
   -1.3329   -4.2146   -1.4939 H   0  0  0  0  0  0  0  0  0  0  0  0
   -0.0186   -3.8755   -2.6379 H   0  0  0  0  0  0  0  0  0  0  0  0
    0.4838   -5.1555   -1.0655 N   0  0  0  0  0  0  0  0  0  0  0  0
    0.2267   -5.9823   -1.5845 H   0  0  0  0  0  0  0  0  0  0  0  0
    1.4726   -4.9827   -1.1781 H   0  0  0  0  0  0  0  0  0  0  0  0
   -1.2712    1.3099    1.1517 C   0  0  0  0  0  0  0  0  0  0  0  0
   -2.2039    1.9448    0.6639 O   0  0  0  0  0  0  0  0  0  0  0  0
   -0.4306    1.8354    2.0503 N   0  0  0  0  0  0  0  0  0  0  0  0
    0.3001    1.2459    2.4139 H   0  0  0  0  0  0  0  0  0  0  0  0
   -0.5192    3.2082    2.5456 C   0  0  0  0  0  0  0  0  0  0  0  0
   -1.5166    3.3903    2.9518 H   0  0  0  0  0  0  0  0  0  0  0  0
    0.2240    3.3791    3.3257 H   0  0  0  0  0  0  0  0  0  0  0  0
   -0.3477    3.9067    1.7239 H   0  0  0  0  0  0  0  0  0  0  0  0
  5  6  2  0  0  0  0
  5  7  1  0  0  0  0
  2  3  1  0  0  0  0
  2  4  1  0  0  0  0
  2  5  1  0  0  0  0
  1  2  1  0  0  0  0
 26 27  2  0  0  0  0
 26 28  1  0  0  0  0
 23 24  1  0  0  0  0
 23 25  1  0  0  0  0
 20 21  1  0  0  0  0
 20 22  1  0  0  0  0
 20 23  1  0  0  0  0
 17 18  1  0  0  0  0
 17 19  1  0  0  0  0
 17 20  1  0  0  0  0
 14 15  1  0  0  0  0
 14 16  1  0  0  0  0
 14 17  1  0  0  0  0
 11 12  1  0  0  0  0
 11 13  1  0  0  0  0
 11 14  1  0  0  0  0
  9 10  1  0  0  0  0
  9 11  1  0  0  0  0
  9 26  1  0  0  0  0
  7  8  1  0  0  0  0
  7  9  1  0  0  0  0
 30 31  1  0  0  0  0
 30 32  1  0  0  0  0
 30 33  1  0  0  0  0
 28 29  1  0  0  0  0
 28 30  1  0  0  0  0
M  END
$$$$
default_name
  -OEChem-02102213163D

 33 32  0     1  0  0  0  0  0999 V2000
   -3.8420   -3.6918    1.5562 H   0  0  0  0  0  0  0  0  0  0  0  0
   -3.8430   -2.7008    1.1032 C   0  0  0  0  0  0  0  0  0  0  0  0
   -4.5510   -2.0608    1.6242 H   0  0  0  0  0  0  0  0  0  0  0  0
   -4.1140   -2.7798    0.0522 H   0  0  0  0  0  0  0  0  0  0  0  0
   -2.4570   -2.1098    1.2172 C   0  0  0  0  0  0  0  0  0  0  0  0
   -1.5600   -2.7438    1.7572 O   0  0  0  0  0  0  0  0  0  0  0  0
   -2.2870   -0.8898    0.7102 N   0  0  0  0  0  0  0  0  0  0  0  0
   -3.0820   -0.4218    0.2992 H   0  0  0  0  0  0  0  0  0  0  0  0
   -1.0240   -0.1468    0.7262 C   0  0  1  0  0  0  0  0  0  0  0  0
   -0.3583   -0.6100    1.4558 H   0  0  0  0  0  0  0  0  0  0  0  0
   -0.3739   -0.2459   -0.6675 C   0  0  0  0  0  0  0  0  0  0  0  0
   -0.7254    0.5908   -1.2747 H   0  0  0  0  0  0  0  0  0  0  0  0
    0.7090   -0.1618   -0.5661 H   0  0  0  0  0  0  0  0  0  0  0  0
   -0.7137   -1.5502   -1.4056 C   0  0  0  0  0  0  0  0  0  0  0  0
   -1.7928   -1.6217   -1.5445 H   0  0  0  0  0  0  0  0  0  0  0  0
   -0.2269   -1.5470   -2.3826 H   0  0  0  0  0  0  0  0  0  0  0  0
   -0.2371   -2.7700   -0.6091 C   0  0  0  0  0  0  0  0  0  0  0  0
    0.8407   -2.7089   -0.4550 H   0  0  0  0  0  0  0  0  0  0  0  0
   -0.7387   -2.7908    0.3589 H   0  0  0  0  0  0  0  0  0  0  0  0
   -0.5646   -4.0500   -1.3756 C   0  0  0  0  0  0  0  0  0  0  0  0
   -1.6421   -4.1225   -1.5144 H   0  0  0  0  0  0  0  0  0  0  0  0
   -0.0789   -4.0230   -2.3497 H   0  0  0  0  0  0  0  0  0  0  0  0
   -0.0998   -5.2382   -0.6508 N   0  0  0  0  0  0  0  0  0  0  0  0
   -0.3445   -6.0637   -1.1777 H   0  0  0  0  0  0  0  0  0  0  0  0
    0.9039   -5.1916   -0.5472 H   0  0  0  0  0  0  0  0  0  0  0  0
   -1.2712    1.3099    1.1517 C   0  0  0  0  0  0  0  0  0  0  0  0
   -2.2039    1.9448    0.6639 O   0  0  0  0  0  0  0  0  0  0  0  0
   -0.4306    1.8354    2.0503 N   0  0  0  0  0  0  0  0  0  0  0  0
    0.3001    1.2459    2.4139 H   0  0  0  0  0  0  0  0  0  0  0  0
   -0.5192    3.2082    2.5456 C   0  0  0  0  0  0  0  0  0  0  0  0
   -1.5166    3.3903    2.9518 H   0  0  0  0  0  0  0  0  0  0  0  0
    0.2240    3.3791    3.3257 H   0  0  0  0  0  0  0  0  0  0  0  0
   -0.3477    3.9067    1.7239 H   0  0  0  0  0  0  0  0  0  0  0  0
  5  6  2  0  0  0  0
  5  7  1  0  0  0  0
  2  3  1  0  0  0  0
  2  4  1  0  0  0  0
  2  5  1  0  0  0  0
  1  2  1  0  0  0  0
 26 27  2  0  0  0  0
 26 28  1  0  0  0  0
 23 24  1  0  0  0  0
 23 25  1  0  0  0  0
 20 21  1  0  0  0  0
 20 22  1  0  0  0  0
 20 23  1  0  0  0  0
 17 18  1  0  0  0  0
 17 19  1  0  0  0  0
 17 20  1  0  0  0  0
 14 15  1  0  0  0  0
 14 16  1  0  0  0  0
 14 17  1  0  0  0  0
 11 12  1  0  0  0  0
 11 13  1  0  0  0  0
 11 14  1  0  0  0  0
  9 10  1  0  0  0  0
  9 11  1  0  0  0  0
  9 26  1  0  0  0  0
  7  8  1  0  0  0  0
  7  9  1  0  0  0  0
 30 31  1  0  0  0  0
 30 32  1  0  0  0  0
 30 33  1  0  0  0  0
 28 29  1  0  0  0  0
 28 30  1  0  0  0  0
M  END
$$$$
default_name
  -OEChem-02102213163D

 33 32  0     1  0  0  0  0  0999 V2000
   -3.8420   -3.6918    1.5562 H   0  0  0  0  0  0  0  0  0  0  0  0
   -3.8430   -2.7008    1.1032 C   0  0  0  0  0  0  0  0  0  0  0  0
   -4.5510   -2.0608    1.6242 H   0  0  0  0  0  0  0  0  0  0  0  0
   -4.1140   -2.7798    0.0522 H   0  0  0  0  0  0  0  0  0  0  0  0
   -2.4570   -2.1098    1.2172 C   0  0  0  0  0  0  0  0  0  0  0  0
   -1.5600   -2.7438    1.7572 O   0  0  0  0  0  0  0  0  0  0  0  0
   -2.2870   -0.8898    0.7102 N   0  0  0  0  0  0  0  0  0  0  0  0
   -3.0820   -0.4218    0.2992 H   0  0  0  0  0  0  0  0  0  0  0  0
   -1.0240   -0.1468    0.7262 C   0  0  1  0  0  0  0  0  0  0  0  0
   -0.3583   -0.6100    1.4558 H   0  0  0  0  0  0  0  0  0  0  0  0
   -0.3739   -0.2459   -0.6675 C   0  0  0  0  0  0  0  0  0  0  0  0
   -0.7254    0.5908   -1.2747 H   0  0  0  0  0  0  0  0  0  0  0  0
    0.7090   -0.1618   -0.5661 H   0  0  0  0  0  0  0  0  0  0  0  0
   -0.7137   -1.5502   -1.4056 C   0  0  0  0  0  0  0  0  0  0  0  0
   -1.7371   -1.5036   -1.7788 H   0  0  0  0  0  0  0  0  0  0  0  0
   -0.0312   -1.6739   -2.2485 H   0  0  0  0  0  0  0  0  0  0  0  0
   -0.5841   -2.7580   -0.4706 C   0  0  0  0  0  0  0  0  0  0  0  0
    0.4335   -2.8135   -0.0826 H   0  0  0  0  0  0  0  0  0  0  0  0
   -1.2813   -2.6505    0.3608 H   0  0  0  0  0  0  0  0  0  0  0  0
   -0.9027   -4.0416   -1.2348 C   0  0  0  0  0  0  0  0  0  0  0  0
   -1.9247   -3.9962   -1.6074 H   0  0  0  0  0  0  0  0  0  0  0  0
   -0.2187   -4.1414   -2.0760 H   0  0  0  0  0  0  0  0  0  0  0  0
   -0.7649   -5.2218   -0.3737 N   0  0  0  0  0  0  0  0  0  0  0  0
   -0.9957   -6.0480   -0.9057 H   0  0  0  0  0  0  0  0  0  0  0  0
    0.1900   -5.2866   -0.0507 H   0  0  0  0  0  0  0  0  0  0  0  0
   -1.2712    1.3099    1.1517 C   0  0  0  0  0  0  0  0  0  0  0  0
   -2.2039    1.9448    0.6639 O   0  0  0  0  0  0  0  0  0  0  0  0
   -0.4306    1.8354    2.0503 N   0  0  0  0  0  0  0  0  0  0  0  0
    0.3001    1.2459    2.4139 H   0  0  0  0  0  0  0  0  0  0  0  0
   -0.5192    3.2082    2.5456 C   0  0  0  0  0  0  0  0  0  0  0  0
   -1.5166    3.3903    2.9518 H   0  0  0  0  0  0  0  0  0  0  0  0
    0.2240    3.3791    3.3257 H   0  0  0  0  0  0  0  0  0  0  0  0
   -0.3477    3.9067    1.7239 H   0  0  0  0  0  0  0  0  0  0  0  0
  5  6  2  0  0  0  0
  5  7  1  0  0  0  0
  2  3  1  0  0  0  0
  2  4  1  0  0  0  0
  2  5  1  0  0  0  0
  1  2  1  0  0  0  0
 26 27  2  0  0  0  0
 26 28  1  0  0  0  0
 23 24  1  0  0  0  0
 23 25  1  0  0  0  0
 20 21  1  0  0  0  0
 20 22  1  0  0  0  0
 20 23  1  0  0  0  0
 17 18  1  0  0  0  0
 17 19  1  0  0  0  0
 17 20  1  0  0  0  0
 14 15  1  0  0  0  0
 14 16  1  0  0  0  0
 14 17  1  0  0  0  0
 11 12  1  0  0  0  0
 11 13  1  0  0  0  0
 11 14  1  0  0  0  0
  9 10  1  0  0  0  0
  9 11  1  0  0  0  0
  9 26  1  0  0  0  0
  7  8  1  0  0  0  0
  7  9  1  0  0  0  0
 30 31  1  0  0  0  0
 30 32  1  0  0  0  0
 30 33  1  0  0  0  0
 28 29  1  0  0  0  0
 28 30  1  0  0  0  0
M  END
$$$$
default_name
  -OEChem-02102213163D

 33 32  0     1  0  0  0  0  0999 V2000
   -3.8420   -3.6918    1.5562 H   0  0  0  0  0  0  0  0  0  0  0  0
   -3.8430   -2.7008    1.1032 C   0  0  0  0  0  0  0  0  0  0  0  0
   -4.5510   -2.0608    1.6242 H   0  0  0  0  0  0  0  0  0  0  0  0
   -4.1140   -2.7798    0.0522 H   0  0  0  0  0  0  0  0  0  0  0  0
   -2.4570   -2.1098    1.2172 C   0  0  0  0  0  0  0  0  0  0  0  0
   -1.5600   -2.7438    1.7572 O   0  0  0  0  0  0  0  0  0  0  0  0
   -2.2870   -0.8898    0.7102 N   0  0  0  0  0  0  0  0  0  0  0  0
   -3.0820   -0.4218    0.2992 H   0  0  0  0  0  0  0  0  0  0  0  0
   -1.0240   -0.1468    0.7262 C   0  0  1  0  0  0  0  0  0  0  0  0
   -0.3583   -0.6100    1.4558 H   0  0  0  0  0  0  0  0  0  0  0  0
   -0.3739   -0.2459   -0.6675 C   0  0  0  0  0  0  0  0  0  0  0  0
   -0.7254    0.5908   -1.2747 H   0  0  0  0  0  0  0  0  0  0  0  0
    0.7090   -0.1618   -0.5661 H   0  0  0  0  0  0  0  0  0  0  0  0
   -0.7137   -1.5502   -1.4056 C   0  0  0  0  0  0  0  0  0  0  0  0
   -1.6173   -1.4099   -1.9995 H   0  0  0  0  0  0  0  0  0  0  0  0
    0.1126   -1.8131   -2.0686 H   0  0  0  0  0  0  0  0  0  0  0  0
   -0.9482   -2.6952   -0.4139 C   0  0  0  0  0  0  0  0  0  0  0  0
   -0.0547   -2.8427    0.1936 H   0  0  0  0  0  0  0  0  0  0  0  0
   -1.7884   -2.4475    0.2355 H   0  0  0  0  0  0  0  0  0  0  0  0
   -1.2591   -3.9834   -1.1735 C   0  0  0  0  0  0  0  0  0  0  0  0
   -2.1616   -3.8445   -1.7665 H   0  0  0  0  0  0  0  0  0  0  0  0
   -0.4287   -4.2228   -1.8356 H   0  0  0  0  0  0  0  0  0  0  0  0
   -1.4661   -5.1074   -0.2530 N   0  0  0  0  0  0  0  0  0  0  0  0
   -1.6825   -5.9364   -0.7868 H   0  0  0  0  0  0  0  0  0  0  0  0
   -0.6205   -5.2612    0.2775 H   0  0  0  0  0  0  0  0  0  0  0  0
   -1.2712    1.3099    1.1517 C   0  0  0  0  0  0  0  0  0  0  0  0
   -2.2039    1.9448    0.6639 O   0  0  0  0  0  0  0  0  0  0  0  0
   -0.4306    1.8354    2.0503 N   0  0  0  0  0  0  0  0  0  0  0  0
    0.3001    1.2459    2.4139 H   0  0  0  0  0  0  0  0  0  0  0  0
   -0.5192    3.2082    2.5456 C   0  0  0  0  0  0  0  0  0  0  0  0
   -1.5166    3.3903    2.9518 H   0  0  0  0  0  0  0  0  0  0  0  0
    0.2240    3.3791    3.3257 H   0  0  0  0  0  0  0  0  0  0  0  0
   -0.3477    3.9067    1.7239 H   0  0  0  0  0  0  0  0  0  0  0  0
  5  6  2  0  0  0  0
  5  7  1  0  0  0  0
  2  3  1  0  0  0  0
  2  4  1  0  0  0  0
  2  5  1  0  0  0  0
  1  2  1  0  0  0  0
 26 27  2  0  0  0  0
 26 28  1  0  0  0  0
 23 24  1  0  0  0  0
 23 25  1  0  0  0  0
 20 21  1  0  0  0  0
 20 22  1  0  0  0  0
 20 23  1  0  0  0  0
 17 18  1  0  0  0  0
 17 19  1  0  0  0  0
 17 20  1  0  0  0  0
 14 15  1  0  0  0  0
 14 16  1  0  0  0  0
 14 17  1  0  0  0  0
 11 12  1  0  0  0  0
 11 13  1  0  0  0  0
 11 14  1  0  0  0  0
  9 10  1  0  0  0  0
  9 11  1  0  0  0  0
  9 26  1  0  0  0  0
  7  8  1  0  0  0  0
  7  9  1  0  0  0  0
 30 31  1  0  0  0  0
 30 32  1  0  0  0  0
 30 33  1  0  0  0  0
 28 29  1  0  0  0  0
 28 30  1  0  0  0  0
M  END
$$$$
default_name
  -OEChem-02102213163D

 33 32  0     1  0  0  0  0  0999 V2000
   -3.8420   -3.6918    1.5562 H   0  0  0  0  0  0  0  0  0  0  0  0
   -3.8430   -2.7008    1.1032 C   0  0  0  0  0  0  0  0  0  0  0  0
   -4.5510   -2.0608    1.6242 H   0  0  0  0  0  0  0  0  0  0  0  0
   -4.1140   -2.7798    0.0522 H   0  0  0  0  0  0  0  0  0  0  0  0
   -2.4570   -2.1098    1.2172 C   0  0  0  0  0  0  0  0  0  0  0  0
   -1.5600   -2.7438    1.7572 O   0  0  0  0  0  0  0  0  0  0  0  0
   -2.2870   -0.8898    0.7102 N   0  0  0  0  0  0  0  0  0  0  0  0
   -3.0820   -0.4218    0.2992 H   0  0  0  0  0  0  0  0  0  0  0  0
   -1.0240   -0.1468    0.7262 C   0  0  1  0  0  0  0  0  0  0  0  0
   -0.3583   -0.6100    1.4558 H   0  0  0  0  0  0  0  0  0  0  0  0
   -0.3739   -0.2459   -0.6675 C   0  0  0  0  0  0  0  0  0  0  0  0
   -0.7254    0.5908   -1.2747 H   0  0  0  0  0  0  0  0  0  0  0  0
    0.7090   -0.1618   -0.5661 H   0  0  0  0  0  0  0  0  0  0  0  0
   -0.7137   -1.5502   -1.4056 C   0  0  0  0  0  0  0  0  0  0  0  0
   -1.4413   -1.3469   -2.1918 H   0  0  0  0  0  0  0  0  0  0  0  0
    0.1947   -1.9552   -1.8553 H   0  0  0  0  0  0  0  0  0  0  0  0
   -1.3045   -2.5861   -0.4426 C   0  0  0  0  0  0  0  0  0  0  0  0
   -0.5905   -2.7943    0.3548 H   0  0  0  0  0  0  0  0  0  0  0  0
   -2.2254   -2.1955   -0.0086 H   0  0  0  0  0  0  0  0  0  0  0  0
   -1.6097   -3.8794   -1.1959 C   0  0  0  0  0  0  0  0  0  0  0  0
   -2.3366   -3.6775   -1.9810 H   0  0  0  0  0  0  0  0  0  0  0  0
   -0.6943   -4.2615   -1.6449 H   0  0  0  0  0  0  0  0  0  0  0  0
   -2.1558   -4.9028   -0.2971 N   0  0  0  0  0  0  0  0  0  0  0  0
   -2.3582   -5.7363   -0.8293 H   0  0  0  0  0  0  0  0  0  0  0  0
   -1.4722   -5.1172    0.4150 H   0  0  0  0  0  0  0  0  0  0  0  0
   -1.2712    1.3099    1.1517 C   0  0  0  0  0  0  0  0  0  0  0  0
   -2.2039    1.9448    0.6639 O   0  0  0  0  0  0  0  0  0  0  0  0
   -0.4306    1.8354    2.0503 N   0  0  0  0  0  0  0  0  0  0  0  0
    0.3001    1.2459    2.4139 H   0  0  0  0  0  0  0  0  0  0  0  0
   -0.5192    3.2082    2.5456 C   0  0  0  0  0  0  0  0  0  0  0  0
   -1.5166    3.3903    2.9518 H   0  0  0  0  0  0  0  0  0  0  0  0
    0.2240    3.3791    3.3257 H   0  0  0  0  0  0  0  0  0  0  0  0
   -0.3477    3.9067    1.7239 H   0  0  0  0  0  0  0  0  0  0  0  0
  5  6  2  0  0  0  0
  5  7  1  0  0  0  0
  2  3  1  0  0  0  0
  2  4  1  0  0  0  0
  2  5  1  0  0  0  0
  1  2  1  0  0  0  0
 26 27  2  0  0  0  0
 26 28  1  0  0  0  0
 23 24  1  0  0  0  0
 23 25  1  0  0  0  0
 20 21  1  0  0  0  0
 20 22  1  0  0  0  0
 20 23  1  0  0  0  0
 17 18  1  0  0  0  0
 17 19  1  0  0  0  0
 17 20  1  0  0  0  0
 14 15  1  0  0  0  0
 14 16  1  0  0  0  0
 14 17  1  0  0  0  0
 11 12  1  0  0  0  0
 11 13  1  0  0  0  0
 11 14  1  0  0  0  0
  9 10  1  0  0  0  0
  9 11  1  0  0  0  0
  9 26  1  0  0  0  0
  7  8  1  0  0  0  0
  7  9  1  0  0  0  0
 30 31  1  0  0  0  0
 30 32  1  0  0  0  0
 30 33  1  0  0  0  0
 28 29  1  0  0  0  0
 28 30  1  0  0  0  0
M  END
$$$$
default_name
  -OEChem-02102213163D

 33 32  0     1  0  0  0  0  0999 V2000
   -3.8420   -3.6918    1.5562 H   0  0  0  0  0  0  0  0  0  0  0  0
   -3.8430   -2.7008    1.1032 C   0  0  0  0  0  0  0  0  0  0  0  0
   -4.5510   -2.0608    1.6242 H   0  0  0  0  0  0  0  0  0  0  0  0
   -4.1140   -2.7798    0.0522 H   0  0  0  0  0  0  0  0  0  0  0  0
   -2.4570   -2.1098    1.2172 C   0  0  0  0  0  0  0  0  0  0  0  0
   -1.5600   -2.7438    1.7572 O   0  0  0  0  0  0  0  0  0  0  0  0
   -2.2870   -0.8898    0.7102 N   0  0  0  0  0  0  0  0  0  0  0  0
   -3.0820   -0.4218    0.2992 H   0  0  0  0  0  0  0  0  0  0  0  0
   -1.0240   -0.1468    0.7262 C   0  0  1  0  0  0  0  0  0  0  0  0
   -0.3583   -0.6100    1.4558 H   0  0  0  0  0  0  0  0  0  0  0  0
   -0.3739   -0.2459   -0.6675 C   0  0  0  0  0  0  0  0  0  0  0  0
   -0.7254    0.5908   -1.2747 H   0  0  0  0  0  0  0  0  0  0  0  0
    0.7090   -0.1618   -0.5661 H   0  0  0  0  0  0  0  0  0  0  0  0
   -0.7137   -1.5502   -1.4056 C   0  0  0  0  0  0  0  0  0  0  0  0
   -1.2213   -1.3190   -2.3425 H   0  0  0  0  0  0  0  0  0  0  0  0
    0.2095   -2.0905   -1.6232 H   0  0  0  0  0  0  0  0  0  0  0  0
   -1.6288   -2.4381   -0.5549 C   0  0  0  0  0  0  0  0  0  0  0  0
   -1.1375   -2.6718    0.3901 H   0  0  0  0  0  0  0  0  0  0  0  0
   -2.5626   -1.9117   -0.3548 H   0  0  0  0  0  0  0  0  0  0  0  0
   -1.9304   -3.7366   -1.3005 C   0  0  0  0  0  0  0  0  0  0  0  0
   -2.4378   -3.5068   -2.2361 H   0  0  0  0  0  0  0  0  0  0  0  0
   -0.9977   -4.2550   -1.5168 H   0  0  0  0  0  0  0  0  0  0  0  0
   -2.7868   -4.6219   -0.5029 N   0  0  0  0  0  0  0  0  0  0  0  0
   -2.9766   -5.4615   -1.0302 H   0  0  0  0  0  0  0  0  0  0  0  0
   -2.3073   -4.8642    0.3525 H   0  0  0  0  0  0  0  0  0  0  0  0
   -1.2712    1.3099    1.1517 C   0  0  0  0  0  0  0  0  0  0  0  0
   -2.2039    1.9448    0.6639 O   0  0  0  0  0  0  0  0  0  0  0  0
   -0.4306    1.8354    2.0503 N   0  0  0  0  0  0  0  0  0  0  0  0
    0.3001    1.2459    2.4139 H   0  0  0  0  0  0  0  0  0  0  0  0
   -0.5192    3.2082    2.5456 C   0  0  0  0  0  0  0  0  0  0  0  0
   -1.5166    3.3903    2.9518 H   0  0  0  0  0  0  0  0  0  0  0  0
    0.2240    3.3791    3.3257 H   0  0  0  0  0  0  0  0  0  0  0  0
   -0.3477    3.9067    1.7239 H   0  0  0  0  0  0  0  0  0  0  0  0
  5  6  2  0  0  0  0
  5  7  1  0  0  0  0
  2  3  1  0  0  0  0
  2  4  1  0  0  0  0
  2  5  1  0  0  0  0
  1  2  1  0  0  0  0
 26 27  2  0  0  0  0
 26 28  1  0  0  0  0
 23 24  1  0  0  0  0
 23 25  1  0  0  0  0
 20 21  1  0  0  0  0
 20 22  1  0  0  0  0
 20 23  1  0  0  0  0
 17 18  1  0  0  0  0
 17 19  1  0  0  0  0
 17 20  1  0  0  0  0
 14 15  1  0  0  0  0
 14 16  1  0  0  0  0
 14 17  1  0  0  0  0
 11 12  1  0  0  0  0
 11 13  1  0  0  0  0
 11 14  1  0  0  0  0
  9 10  1  0  0  0  0
  9 11  1  0  0  0  0
  9 26  1  0  0  0  0
  7  8  1  0  0  0  0
  7  9  1  0  0  0  0
 30 31  1  0  0  0  0
 30 32  1  0  0  0  0
 30 33  1  0  0  0  0
 28 29  1  0  0  0  0
 28 30  1  0  0  0  0
M  END
$$$$
default_name
  -OEChem-02102213163D

 33 32  0     1  0  0  0  0  0999 V2000
   -3.8420   -3.6918    1.5562 H   0  0  0  0  0  0  0  0  0  0  0  0
   -3.8430   -2.7008    1.1032 C   0  0  0  0  0  0  0  0  0  0  0  0
   -4.5510   -2.0608    1.6242 H   0  0  0  0  0  0  0  0  0  0  0  0
   -4.1140   -2.7798    0.0522 H   0  0  0  0  0  0  0  0  0  0  0  0
   -2.4570   -2.1098    1.2172 C   0  0  0  0  0  0  0  0  0  0  0  0
   -1.5600   -2.7438    1.7572 O   0  0  0  0  0  0  0  0  0  0  0  0
   -2.2870   -0.8898    0.7102 N   0  0  0  0  0  0  0  0  0  0  0  0
   -3.0820   -0.4218    0.2992 H   0  0  0  0  0  0  0  0  0  0  0  0
   -1.0240   -0.1468    0.7262 C   0  0  1  0  0  0  0  0  0  0  0  0
   -0.3583   -0.6100    1.4558 H   0  0  0  0  0  0  0  0  0  0  0  0
   -0.3739   -0.2459   -0.6675 C   0  0  0  0  0  0  0  0  0  0  0  0
   -0.7254    0.5908   -1.2747 H   0  0  0  0  0  0  0  0  0  0  0  0
    0.7090   -0.1618   -0.5661 H   0  0  0  0  0  0  0  0  0  0  0  0
   -0.7137   -1.5502   -1.4056 C   0  0  0  0  0  0  0  0  0  0  0  0
   -0.9722   -1.3279   -2.4413 H   0  0  0  0  0  0  0  0  0  0  0  0
    0.1559   -2.2096   -1.3879 H   0  0  0  0  0  0  0  0  0  0  0  0
   -1.8991   -2.2612   -0.7430 C   0  0  0  0  0  0  0  0  0  0  0  0
   -1.6583   -2.4834    0.2970 H   0  0  0  0  0  0  0  0  0  0  0  0
   -2.7769   -1.6155   -0.7796 H   0  0  0  0  0  0  0  0  0  0  0  0
   -2.1995   -3.5648   -1.4802 C   0  0  0  0  0  0  0  0  0  0  0  0
   -2.4583   -3.3439   -2.5145 H   0  0  0  0  0  0  0  0  0  0  0  0
   -1.3180   -4.2036   -1.4601 H   0  0  0  0  0  0  0  0  0  0  0  0
   -3.3161   -4.2840   -0.8563 N   0  0  0  0  0  0  0  0  0  0  0  0
   -3.4956   -5.1307   -1.3758 H   0  0  0  0  0  0  0  0  0  0  0  0
   -3.0687   -4.5197    0.0942 H   0  0  0  0  0  0  0  0  0  0  0  0
   -1.2712    1.3099    1.1517 C   0  0  0  0  0  0  0  0  0  0  0  0
   -2.2039    1.9448    0.6639 O   0  0  0  0  0  0  0  0  0  0  0  0
   -0.4306    1.8354    2.0503 N   0  0  0  0  0  0  0  0  0  0  0  0
    0.3001    1.2459    2.4139 H   0  0  0  0  0  0  0  0  0  0  0  0
   -0.5192    3.2082    2.5456 C   0  0  0  0  0  0  0  0  0  0  0  0
   -1.5166    3.3903    2.9518 H   0  0  0  0  0  0  0  0  0  0  0  0
    0.2240    3.3791    3.3257 H   0  0  0  0  0  0  0  0  0  0  0  0
   -0.3477    3.9067    1.7239 H   0  0  0  0  0  0  0  0  0  0  0  0
  5  6  2  0  0  0  0
  5  7  1  0  0  0  0
  2  3  1  0  0  0  0
  2  4  1  0  0  0  0
  2  5  1  0  0  0  0
  1  2  1  0  0  0  0
 26 27  2  0  0  0  0
 26 28  1  0  0  0  0
 23 24  1  0  0  0  0
 23 25  1  0  0  0  0
 20 21  1  0  0  0  0
 20 22  1  0  0  0  0
 20 23  1  0  0  0  0
 17 18  1  0  0  0  0
 17 19  1  0  0  0  0
 17 20  1  0  0  0  0
 14 15  1  0  0  0  0
 14 16  1  0  0  0  0
 14 17  1  0  0  0  0
 11 12  1  0  0  0  0
 11 13  1  0  0  0  0
 11 14  1  0  0  0  0
  9 10  1  0  0  0  0
  9 11  1  0  0  0  0
  9 26  1  0  0  0  0
  7  8  1  0  0  0  0
  7  9  1  0  0  0  0
 30 31  1  0  0  0  0
 30 32  1  0  0  0  0
 30 33  1  0  0  0  0
 28 29  1  0  0  0  0
 28 30  1  0  0  0  0
M  END
$$$$
default_name
  -OEChem-02102213163D

 33 32  0     1  0  0  0  0  0999 V2000
   -3.8420   -3.6918    1.5562 H   0  0  0  0  0  0  0  0  0  0  0  0
   -3.8430   -2.7008    1.1032 C   0  0  0  0  0  0  0  0  0  0  0  0
   -4.5510   -2.0608    1.6242 H   0  0  0  0  0  0  0  0  0  0  0  0
   -4.1140   -2.7798    0.0522 H   0  0  0  0  0  0  0  0  0  0  0  0
   -2.4570   -2.1098    1.2172 C   0  0  0  0  0  0  0  0  0  0  0  0
   -1.5600   -2.7438    1.7572 O   0  0  0  0  0  0  0  0  0  0  0  0
   -2.2870   -0.8898    0.7102 N   0  0  0  0  0  0  0  0  0  0  0  0
   -3.0820   -0.4218    0.2992 H   0  0  0  0  0  0  0  0  0  0  0  0
   -1.0240   -0.1468    0.7262 C   0  0  1  0  0  0  0  0  0  0  0  0
   -0.3583   -0.6100    1.4558 H   0  0  0  0  0  0  0  0  0  0  0  0
   -0.3739   -0.2459   -0.6675 C   0  0  0  0  0  0  0  0  0  0  0  0
   -0.7254    0.5908   -1.2747 H   0  0  0  0  0  0  0  0  0  0  0  0
    0.7090   -0.1618   -0.5661 H   0  0  0  0  0  0  0  0  0  0  0  0
   -0.7137   -1.5502   -1.4056 C   0  0  0  0  0  0  0  0  0  0  0  0
   -0.7111   -1.3732   -2.4815 H   0  0  0  0  0  0  0  0  0  0  0  0
    0.0377   -2.3047   -1.1656 H   0  0  0  0  0  0  0  0  0  0  0  0
   -2.0967   -2.0675   -0.9943 C   0  0  0  0  0  0  0  0  0  0  0  0
   -2.1176   -2.2421    0.0819 H   0  0  0  0  0  0  0  0  0  0  0  0
   -2.8539   -1.3270   -1.2539 H   0  0  0  0  0  0  0  0  0  0  0  0
   -2.3986   -3.3757   -1.7227 C   0  0  0  0  0  0  0  0  0  0  0  0
   -2.3966   -3.1999   -2.7973 H   0  0  0  0  0  0  0  0  0  0  0  0
   -1.6335   -4.1109   -1.4786 H   0  0  0  0  0  0  0  0  0  0  0  0
   -3.7078   -3.9120   -1.3334 N   0  0  0  0  0  0  0  0  0  0  0  0
   -3.8799   -4.7664   -1.8426 H   0  0  0  0  0  0  0  0  0  0  0  0
   -3.7046   -4.1070   -0.3423 H   0  0  0  0  0  0  0  0  0  0  0  0
   -1.2712    1.3099    1.1517 C   0  0  0  0  0  0  0  0  0  0  0  0
   -2.2039    1.9448    0.6639 O   0  0  0  0  0  0  0  0  0  0  0  0
   -0.4306    1.8354    2.0503 N   0  0  0  0  0  0  0  0  0  0  0  0
    0.3001    1.2459    2.4139 H   0  0  0  0  0  0  0  0  0  0  0  0
   -0.5192    3.2082    2.5456 C   0  0  0  0  0  0  0  0  0  0  0  0
   -1.5166    3.3903    2.9518 H   0  0  0  0  0  0  0  0  0  0  0  0
    0.2240    3.3791    3.3257 H   0  0  0  0  0  0  0  0  0  0  0  0
   -0.3477    3.9067    1.7239 H   0  0  0  0  0  0  0  0  0  0  0  0
  5  6  2  0  0  0  0
  5  7  1  0  0  0  0
  2  3  1  0  0  0  0
  2  4  1  0  0  0  0
  2  5  1  0  0  0  0
  1  2  1  0  0  0  0
 26 27  2  0  0  0  0
 26 28  1  0  0  0  0
 23 24  1  0  0  0  0
 23 25  1  0  0  0  0
 20 21  1  0  0  0  0
 20 22  1  0  0  0  0
 20 23  1  0  0  0  0
 17 18  1  0  0  0  0
 17 19  1  0  0  0  0
 17 20  1  0  0  0  0
 14 15  1  0  0  0  0
 14 16  1  0  0  0  0
 14 17  1  0  0  0  0
 11 12  1  0  0  0  0
 11 13  1  0  0  0  0
 11 14  1  0  0  0  0
  9 10  1  0  0  0  0
  9 11  1  0  0  0  0
  9 26  1  0  0  0  0
  7  8  1  0  0  0  0
  7  9  1  0  0  0  0
 30 31  1  0  0  0  0
 30 32  1  0  0  0  0
 30 33  1  0  0  0  0
 28 29  1  0  0  0  0
 28 30  1  0  0  0  0
M  END
$$$$
default_name
  -OEChem-02102213163D

 33 32  0     1  0  0  0  0  0999 V2000
   -3.8420   -3.6918    1.5562 H   0  0  0  0  0  0  0  0  0  0  0  0
   -3.8430   -2.7008    1.1032 C   0  0  0  0  0  0  0  0  0  0  0  0
   -4.5510   -2.0608    1.6242 H   0  0  0  0  0  0  0  0  0  0  0  0
   -4.1140   -2.7798    0.0522 H   0  0  0  0  0  0  0  0  0  0  0  0
   -2.4570   -2.1098    1.2172 C   0  0  0  0  0  0  0  0  0  0  0  0
   -1.5600   -2.7438    1.7572 O   0  0  0  0  0  0  0  0  0  0  0  0
   -2.2870   -0.8898    0.7102 N   0  0  0  0  0  0  0  0  0  0  0  0
   -3.0820   -0.4218    0.2992 H   0  0  0  0  0  0  0  0  0  0  0  0
   -1.0240   -0.1468    0.7262 C   0  0  1  0  0  0  0  0  0  0  0  0
   -0.3583   -0.6100    1.4558 H   0  0  0  0  0  0  0  0  0  0  0  0
   -0.3739   -0.2459   -0.6675 C   0  0  0  0  0  0  0  0  0  0  0  0
   -0.7254    0.5908   -1.2747 H   0  0  0  0  0  0  0  0  0  0  0  0
    0.7090   -0.1618   -0.5661 H   0  0  0  0  0  0  0  0  0  0  0  0
   -0.7137   -1.5502   -1.4056 C   0  0  0  0  0  0  0  0  0  0  0  0
   -0.4556   -1.4517   -2.4604 H   0  0  0  0  0  0  0  0  0  0  0  0
   -0.1371   -2.3690   -0.9714 H   0  0  0  0  0  0  0  0  0  0  0  0
   -2.2084   -1.8702   -1.2915 C   0  0  0  0  0  0  0  0  0  0  0  0
   -2.4839   -1.9641   -0.2406 H   0  0  0  0  0  0  0  0  0  0  0  0
   -2.7881   -1.0660   -1.7454 H   0  0  0  0  0  0  0  0  0  0  0  0
   -2.5141   -3.1822   -2.0115 C   0  0  0  0  0  0  0  0  0  0  0  0
   -2.2571   -3.0847   -3.0651 H   0  0  0  0  0  0  0  0  0  0  0  0
   -1.9227   -3.9832   -1.5711 H   0  0  0  0  0  0  0  0  0  0  0  0
   -3.9351   -3.5312   -1.9015 N   0  0  0  0  0  0  0  0  0  0  0  0
   -4.1033   -4.3934   -2.3988 H   0  0  0  0  0  0  0  0  0  0  0  0
   -4.1716   -3.6543   -0.9272 H   0  0  0  0  0  0  0  0  0  0  0  0
   -1.2712    1.3099    1.1517 C   0  0  0  0  0  0  0  0  0  0  0  0
   -2.2039    1.9448    0.6639 O   0  0  0  0  0  0  0  0  0  0  0  0
   -0.4306    1.8354    2.0503 N   0  0  0  0  0  0  0  0  0  0  0  0
    0.3001    1.2459    2.4139 H   0  0  0  0  0  0  0  0  0  0  0  0
   -0.5192    3.2082    2.5456 C   0  0  0  0  0  0  0  0  0  0  0  0
   -1.5166    3.3903    2.9518 H   0  0  0  0  0  0  0  0  0  0  0  0
    0.2240    3.3791    3.3257 H   0  0  0  0  0  0  0  0  0  0  0  0
   -0.3477    3.9067    1.7239 H   0  0  0  0  0  0  0  0  0  0  0  0
  5  6  2  0  0  0  0
  5  7  1  0  0  0  0
  2  3  1  0  0  0  0
  2  4  1  0  0  0  0
  2  5  1  0  0  0  0
  1  2  1  0  0  0  0
 26 27  2  0  0  0  0
 26 28  1  0  0  0  0
 23 24  1  0  0  0  0
 23 25  1  0  0  0  0
 20 21  1  0  0  0  0
 20 22  1  0  0  0  0
 20 23  1  0  0  0  0
 17 18  1  0  0  0  0
 17 19  1  0  0  0  0
 17 20  1  0  0  0  0
 14 15  1  0  0  0  0
 14 16  1  0  0  0  0
 14 17  1  0  0  0  0
 11 12  1  0  0  0  0
 11 13  1  0  0  0  0
 11 14  1  0  0  0  0
  9 10  1  0  0  0  0
  9 11  1  0  0  0  0
  9 26  1  0  0  0  0
  7  8  1  0  0  0  0
  7  9  1  0  0  0  0
 30 31  1  0  0  0  0
 30 32  1  0  0  0  0
 30 33  1  0  0  0  0
 28 29  1  0  0  0  0
 28 30  1  0  0  0  0
M  END
$$$$
default_name
  -OEChem-02102213163D

 33 32  0     1  0  0  0  0  0999 V2000
   -3.8420   -3.6918    1.5562 H   0  0  0  0  0  0  0  0  0  0  0  0
   -3.8430   -2.7008    1.1032 C   0  0  0  0  0  0  0  0  0  0  0  0
   -4.5510   -2.0608    1.6242 H   0  0  0  0  0  0  0  0  0  0  0  0
   -4.1140   -2.7798    0.0522 H   0  0  0  0  0  0  0  0  0  0  0  0
   -2.4570   -2.1098    1.2172 C   0  0  0  0  0  0  0  0  0  0  0  0
   -1.5600   -2.7438    1.7572 O   0  0  0  0  0  0  0  0  0  0  0  0
   -2.2870   -0.8898    0.7102 N   0  0  0  0  0  0  0  0  0  0  0  0
   -3.0820   -0.4218    0.2992 H   0  0  0  0  0  0  0  0  0  0  0  0
   -1.0240   -0.1468    0.7262 C   0  0  1  0  0  0  0  0  0  0  0  0
   -0.3583   -0.6100    1.4558 H   0  0  0  0  0  0  0  0  0  0  0  0
   -0.3739   -0.2459   -0.6675 C   0  0  0  0  0  0  0  0  0  0  0  0
   -0.7254    0.5908   -1.2747 H   0  0  0  0  0  0  0  0  0  0  0  0
    0.7090   -0.1618   -0.5661 H   0  0  0  0  0  0  0  0  0  0  0  0
   -0.7137   -1.5502   -1.4056 C   0  0  0  0  0  0  0  0  0  0  0  0
   -0.2232   -1.5581   -2.3794 H   0  0  0  0  0  0  0  0  0  0  0  0
   -0.3566   -2.3983   -0.8186 H   0  0  0  0  0  0  0  0  0  0  0  0
   -2.2265   -1.6828   -1.6144 C   0  0  0  0  0  0  0  0  0  0  0  0
   -2.7324   -1.6686   -0.6485 H   0  0  0  0  0  0  0  0  0  0  0  0
   -2.5842   -0.8501   -2.2207 H   0  0  0  0  0  0  0  0  0  0  0  0
   -2.5382   -2.9974   -2.3269 C   0  0  0  0  0  0  0  0  0  0  0  0
   -2.0491   -3.0061   -3.2997 H   0  0  0  0  0  0  0  0  0  0  0  0
   -2.1658   -3.8293   -1.7313 H   0  0  0  0  0  0  0  0  0  0  0  0
   -3.9826   -3.1677   -2.5220 N   0  0  0  0  0  0  0  0  0  0  0  0
   -4.1506   -4.0372   -3.0064 H   0  0  0  0  0  0  0  0  0  0  0  0
   -4.4379   -3.1925   -1.6207 H   0  0  0  0  0  0  0  0  0  0  0  0
   -1.2712    1.3099    1.1517 C   0  0  0  0  0  0  0  0  0  0  0  0
   -2.2039    1.9448    0.6639 O   0  0  0  0  0  0  0  0  0  0  0  0
   -0.4306    1.8354    2.0503 N   0  0  0  0  0  0  0  0  0  0  0  0
    0.3001    1.2459    2.4139 H   0  0  0  0  0  0  0  0  0  0  0  0
   -0.5192    3.2082    2.5456 C   0  0  0  0  0  0  0  0  0  0  0  0
   -1.5166    3.3903    2.9518 H   0  0  0  0  0  0  0  0  0  0  0  0
    0.2240    3.3791    3.3257 H   0  0  0  0  0  0  0  0  0  0  0  0
   -0.3477    3.9067    1.7239 H   0  0  0  0  0  0  0  0  0  0  0  0
  5  6  2  0  0  0  0
  5  7  1  0  0  0  0
  2  3  1  0  0  0  0
  2  4  1  0  0  0  0
  2  5  1  0  0  0  0
  1  2  1  0  0  0  0
 26 27  2  0  0  0  0
 26 28  1  0  0  0  0
 23 24  1  0  0  0  0
 23 25  1  0  0  0  0
 20 21  1  0  0  0  0
 20 22  1  0  0  0  0
 20 23  1  0  0  0  0
 17 18  1  0  0  0  0
 17 19  1  0  0  0  0
 17 20  1  0  0  0  0
 14 15  1  0  0  0  0
 14 16  1  0  0  0  0
 14 17  1  0  0  0  0
 11 12  1  0  0  0  0
 11 13  1  0  0  0  0
 11 14  1  0  0  0  0
  9 10  1  0  0  0  0
  9 11  1  0  0  0  0
  9 26  1  0  0  0  0
  7  8  1  0  0  0  0
  7  9  1  0  0  0  0
 30 31  1  0  0  0  0
 30 32  1  0  0  0  0
 30 33  1  0  0  0  0
 28 29  1  0  0  0  0
 28 30  1  0  0  0  0
M  END
$$$$
default_name
  -OEChem-02102213163D

 33 32  0     1  0  0  0  0  0999 V2000
   -3.8420   -3.6918    1.5562 H   0  0  0  0  0  0  0  0  0  0  0  0
   -3.8430   -2.7008    1.1032 C   0  0  0  0  0  0  0  0  0  0  0  0
   -4.5510   -2.0608    1.6242 H   0  0  0  0  0  0  0  0  0  0  0  0
   -4.1140   -2.7798    0.0522 H   0  0  0  0  0  0  0  0  0  0  0  0
   -2.4570   -2.1098    1.2172 C   0  0  0  0  0  0  0  0  0  0  0  0
   -1.5600   -2.7438    1.7572 O   0  0  0  0  0  0  0  0  0  0  0  0
   -2.2870   -0.8898    0.7102 N   0  0  0  0  0  0  0  0  0  0  0  0
   -3.0820   -0.4218    0.2992 H   0  0  0  0  0  0  0  0  0  0  0  0
   -1.0240   -0.1468    0.7262 C   0  0  1  0  0  0  0  0  0  0  0  0
   -0.3583   -0.6100    1.4558 H   0  0  0  0  0  0  0  0  0  0  0  0
   -0.3739   -0.2459   -0.6675 C   0  0  0  0  0  0  0  0  0  0  0  0
   -0.7254    0.5908   -1.2747 H   0  0  0  0  0  0  0  0  0  0  0  0
    0.7090   -0.1618   -0.5661 H   0  0  0  0  0  0  0  0  0  0  0  0
   -0.7137   -1.5502   -1.4056 C   0  0  0  0  0  0  0  0  0  0  0  0
   -0.0297   -1.6851   -2.2440 H   0  0  0  0  0  0  0  0  0  0  0  0
   -0.6059   -2.3906   -0.7175 H   0  0  0  0  0  0  0  0  0  0  0  0
   -2.1497   -1.5180   -1.9409 C   0  0  0  0  0  0  0  0  0  0  0  0
   -2.8460   -1.3755   -1.1140 H   0  0  0  0  0  0  0  0  0  0  0  0
   -2.2560   -0.6942   -2.6473 H   0  0  0  0  0  0  0  0  0  0  0  0
   -2.4692   -2.8340   -2.6475 C   0  0  0  0  0  0  0  0  0  0  0  0
   -1.7869   -2.9694   -3.4852 H   0  0  0  0  0  0  0  0  0  0  0  0
   -2.3463   -3.6595   -1.9483 H   0  0  0  0  0  0  0  0  0  0  0  0
   -3.8469   -2.8462   -3.1525 N   0  0  0  0  0  0  0  0  0  0  0  0
   -4.0184   -3.7221   -3.6241 H   0  0  0  0  0  0  0  0  0  0  0  0
   -4.4855   -2.7529   -2.3755 H   0  0  0  0  0  0  0  0  0  0  0  0
   -1.2712    1.3099    1.1517 C   0  0  0  0  0  0  0  0  0  0  0  0
   -2.2039    1.9448    0.6639 O   0  0  0  0  0  0  0  0  0  0  0  0
   -0.4306    1.8354    2.0503 N   0  0  0  0  0  0  0  0  0  0  0  0
    0.3001    1.2459    2.4139 H   0  0  0  0  0  0  0  0  0  0  0  0
   -0.5192    3.2082    2.5456 C   0  0  0  0  0  0  0  0  0  0  0  0
   -1.5166    3.3903    2.9518 H   0  0  0  0  0  0  0  0  0  0  0  0
    0.2240    3.3791    3.3257 H   0  0  0  0  0  0  0  0  0  0  0  0
   -0.3477    3.9067    1.7239 H   0  0  0  0  0  0  0  0  0  0  0  0
  5  6  2  0  0  0  0
  5  7  1  0  0  0  0
  2  3  1  0  0  0  0
  2  4  1  0  0  0  0
  2  5  1  0  0  0  0
  1  2  1  0  0  0  0
 26 27  2  0  0  0  0
 26 28  1  0  0  0  0
 23 24  1  0  0  0  0
 23 25  1  0  0  0  0
 20 21  1  0  0  0  0
 20 22  1  0  0  0  0
 20 23  1  0  0  0  0
 17 18  1  0  0  0  0
 17 19  1  0  0  0  0
 17 20  1  0  0  0  0
 14 15  1  0  0  0  0
 14 16  1  0  0  0  0
 14 17  1  0  0  0  0
 11 12  1  0  0  0  0
 11 13  1  0  0  0  0
 11 14  1  0  0  0  0
  9 10  1  0  0  0  0
  9 11  1  0  0  0  0
  9 26  1  0  0  0  0
  7  8  1  0  0  0  0
  7  9  1  0  0  0  0
 30 31  1  0  0  0  0
 30 32  1  0  0  0  0
 30 33  1  0  0  0  0
 28 29  1  0  0  0  0
 28 30  1  0  0  0  0
M  END
$$$$
default_name
  -OEChem-02102213163D

 33 32  0     1  0  0  0  0  0999 V2000
   -3.8420   -3.6918    1.5562 H   0  0  0  0  0  0  0  0  0  0  0  0
   -3.8430   -2.7008    1.1032 C   0  0  0  0  0  0  0  0  0  0  0  0
   -4.5510   -2.0608    1.6242 H   0  0  0  0  0  0  0  0  0  0  0  0
   -4.1140   -2.7798    0.0522 H   0  0  0  0  0  0  0  0  0  0  0  0
   -2.4570   -2.1098    1.2172 C   0  0  0  0  0  0  0  0  0  0  0  0
   -1.5600   -2.7438    1.7572 O   0  0  0  0  0  0  0  0  0  0  0  0
   -2.2870   -0.8898    0.7102 N   0  0  0  0  0  0  0  0  0  0  0  0
   -3.0820   -0.4218    0.2992 H   0  0  0  0  0  0  0  0  0  0  0  0
   -1.0240   -0.1468    0.7262 C   0  0  1  0  0  0  0  0  0  0  0  0
   -0.3583   -0.6100    1.4558 H   0  0  0  0  0  0  0  0  0  0  0  0
   -0.3739   -0.2459   -0.6675 C   0  0  0  0  0  0  0  0  0  0  0  0
   -0.7254    0.5908   -1.2747 H   0  0  0  0  0  0  0  0  0  0  0  0
    0.7090   -0.1618   -0.5661 H   0  0  0  0  0  0  0  0  0  0  0  0
   -0.7137   -1.5502   -1.4056 C   0  0  0  0  0  0  0  0  0  0  0  0
    0.1116   -1.8241   -2.0634 H   0  0  0  0  0  0  0  0  0  0  0  0
   -0.8679   -2.3464   -0.6751 H   0  0  0  0  0  0  0  0  0  0  0  0
   -1.9833   -1.3870   -2.2489 C   0  0  0  0  0  0  0  0  0  0  0  0
   -2.8171   -1.1050   -1.6053 H   0  0  0  0  0  0  0  0  0  0  0  0
   -1.8258   -0.6088   -2.9963 H   0  0  0  0  0  0  0  0  0  0  0  0
   -2.3118   -2.7031   -2.9513 C   0  0  0  0  0  0  0  0  0  0  0  0
   -1.4884   -2.9773   -3.6088 H   0  0  0  0  0  0  0  0  0  0  0  0
   -2.4518   -3.4854   -2.2072 H   0  0  0  0  0  0  0  0  0  0  0  0
   -3.5373   -2.5886   -3.7502 N   0  0  0  0  0  0  0  0  0  0  0  0
   -3.7159   -3.4694   -4.2098 H   0  0  0  0  0  0  0  0  0  0  0  0
   -4.3109   -2.3656   -3.1401 H   0  0  0  0  0  0  0  0  0  0  0  0
   -1.2712    1.3099    1.1517 C   0  0  0  0  0  0  0  0  0  0  0  0
   -2.2039    1.9448    0.6639 O   0  0  0  0  0  0  0  0  0  0  0  0
   -0.4306    1.8354    2.0503 N   0  0  0  0  0  0  0  0  0  0  0  0
    0.3001    1.2459    2.4139 H   0  0  0  0  0  0  0  0  0  0  0  0
   -0.5192    3.2082    2.5456 C   0  0  0  0  0  0  0  0  0  0  0  0
   -1.5166    3.3903    2.9518 H   0  0  0  0  0  0  0  0  0  0  0  0
    0.2240    3.3791    3.3257 H   0  0  0  0  0  0  0  0  0  0  0  0
   -0.3477    3.9067    1.7239 H   0  0  0  0  0  0  0  0  0  0  0  0
  5  6  2  0  0  0  0
  5  7  1  0  0  0  0
  2  3  1  0  0  0  0
  2  4  1  0  0  0  0
  2  5  1  0  0  0  0
  1  2  1  0  0  0  0
 26 27  2  0  0  0  0
 26 28  1  0  0  0  0
 23 24  1  0  0  0  0
 23 25  1  0  0  0  0
 20 21  1  0  0  0  0
 20 22  1  0  0  0  0
 20 23  1  0  0  0  0
 17 18  1  0  0  0  0
 17 19  1  0  0  0  0
 17 20  1  0  0  0  0
 14 15  1  0  0  0  0
 14 16  1  0  0  0  0
 14 17  1  0  0  0  0
 11 12  1  0  0  0  0
 11 13  1  0  0  0  0
 11 14  1  0  0  0  0
  9 10  1  0  0  0  0
  9 11  1  0  0  0  0
  9 26  1  0  0  0  0
  7  8  1  0  0  0  0
  7  9  1  0  0  0  0
 30 31  1  0  0  0  0
 30 32  1  0  0  0  0
 30 33  1  0  0  0  0
 28 29  1  0  0  0  0
 28 30  1  0  0  0  0
M  END
$$$$
default_name
  -OEChem-02102213163D

 33 32  0     1  0  0  0  0  0999 V2000
   -3.8420   -3.6918    1.5562 H   0  0  0  0  0  0  0  0  0  0  0  0
   -3.8430   -2.7008    1.1032 C   0  0  0  0  0  0  0  0  0  0  0  0
   -4.5510   -2.0608    1.6242 H   0  0  0  0  0  0  0  0  0  0  0  0
   -4.1140   -2.7798    0.0522 H   0  0  0  0  0  0  0  0  0  0  0  0
   -2.4570   -2.1098    1.2172 C   0  0  0  0  0  0  0  0  0  0  0  0
   -1.5600   -2.7438    1.7572 O   0  0  0  0  0  0  0  0  0  0  0  0
   -2.2870   -0.8898    0.7102 N   0  0  0  0  0  0  0  0  0  0  0  0
   -3.0820   -0.4218    0.2992 H   0  0  0  0  0  0  0  0  0  0  0  0
   -1.0240   -0.1468    0.7262 C   0  0  1  0  0  0  0  0  0  0  0  0
   -0.3583   -0.6100    1.4558 H   0  0  0  0  0  0  0  0  0  0  0  0
   -0.3739   -0.2459   -0.6675 C   0  0  0  0  0  0  0  0  0  0  0  0
   -0.7254    0.5908   -1.2747 H   0  0  0  0  0  0  0  0  0  0  0  0
    0.7090   -0.1618   -0.5661 H   0  0  0  0  0  0  0  0  0  0  0  0
   -0.7137   -1.5502   -1.4056 C   0  0  0  0  0  0  0  0  0  0  0  0
    0.1912   -1.9656   -1.8500 H   0  0  0  0  0  0  0  0  0  0  0  0
   -1.1249   -2.2686   -0.6941 H   0  0  0  0  0  0  0  0  0  0  0  0
   -1.7386   -1.2988   -2.5174 C   0  0  0  0  0  0  0  0  0  0  0  0
   -2.6476   -0.8754   -2.0890 H   0  0  0  0  0  0  0  0  0  0  0  0
   -1.3231   -0.5997   -3.2437 H   0  0  0  0  0  0  0  0  0  0  0  0
   -2.0767   -2.6135   -3.2176 C   0  0  0  0  0  0  0  0  0  0  0  0
   -1.1738   -3.0290   -3.6622 H   0  0  0  0  0  0  0  0  0  0  0  0
   -2.4753   -3.3190   -2.4904 H   0  0  0  0  0  0  0  0  0  0  0  0
   -3.0750   -2.4125   -4.2742 N   0  0  0  0  0  0  0  0  0  0  0  0
   -3.2636   -3.2965   -4.7235 H   0  0  0  0  0  0  0  0  0  0  0  0
   -3.9262   -2.0570   -3.8626 H   0  0  0  0  0  0  0  0  0  0  0  0
   -1.2712    1.3099    1.1517 C   0  0  0  0  0  0  0  0  0  0  0  0
   -2.2039    1.9448    0.6639 O   0  0  0  0  0  0  0  0  0  0  0  0
   -0.4306    1.8354    2.0503 N   0  0  0  0  0  0  0  0  0  0  0  0
    0.3001    1.2459    2.4139 H   0  0  0  0  0  0  0  0  0  0  0  0
   -0.5192    3.2082    2.5456 C   0  0  0  0  0  0  0  0  0  0  0  0
   -1.5166    3.3903    2.9518 H   0  0  0  0  0  0  0  0  0  0  0  0
    0.2240    3.3791    3.3257 H   0  0  0  0  0  0  0  0  0  0  0  0
   -0.3477    3.9067    1.7239 H   0  0  0  0  0  0  0  0  0  0  0  0
  5  6  2  0  0  0  0
  5  7  1  0  0  0  0
  2  3  1  0  0  0  0
  2  4  1  0  0  0  0
  2  5  1  0  0  0  0
  1  2  1  0  0  0  0
 26 27  2  0  0  0  0
 26 28  1  0  0  0  0
 23 24  1  0  0  0  0
 23 25  1  0  0  0  0
 20 21  1  0  0  0  0
 20 22  1  0  0  0  0
 20 23  1  0  0  0  0
 17 18  1  0  0  0  0
 17 19  1  0  0  0  0
 17 20  1  0  0  0  0
 14 15  1  0  0  0  0
 14 16  1  0  0  0  0
 14 17  1  0  0  0  0
 11 12  1  0  0  0  0
 11 13  1  0  0  0  0
 11 14  1  0  0  0  0
  9 10  1  0  0  0  0
  9 11  1  0  0  0  0
  9 26  1  0  0  0  0
  7  8  1  0  0  0  0
  7  9  1  0  0  0  0
 30 31  1  0  0  0  0
 30 32  1  0  0  0  0
 30 33  1  0  0  0  0
 28 29  1  0  0  0  0
 28 30  1  0  0  0  0
M  END
$$$$
default_name
  -OEChem-02102213163D

 33 32  0     1  0  0  0  0  0999 V2000
   -3.8420   -3.6918    1.5562 H   0  0  0  0  0  0  0  0  0  0  0  0
   -3.8430   -2.7008    1.1032 C   0  0  0  0  0  0  0  0  0  0  0  0
   -4.5510   -2.0608    1.6242 H   0  0  0  0  0  0  0  0  0  0  0  0
   -4.1140   -2.7798    0.0522 H   0  0  0  0  0  0  0  0  0  0  0  0
   -2.4570   -2.1098    1.2172 C   0  0  0  0  0  0  0  0  0  0  0  0
   -1.5600   -2.7438    1.7572 O   0  0  0  0  0  0  0  0  0  0  0  0
   -2.2870   -0.8898    0.7102 N   0  0  0  0  0  0  0  0  0  0  0  0
   -3.0820   -0.4218    0.2992 H   0  0  0  0  0  0  0  0  0  0  0  0
   -1.0240   -0.1468    0.7262 C   0  0  1  0  0  0  0  0  0  0  0  0
   -0.3583   -0.6100    1.4558 H   0  0  0  0  0  0  0  0  0  0  0  0
   -0.3739   -0.2459   -0.6675 C   0  0  0  0  0  0  0  0  0  0  0  0
   -0.7254    0.5908   -1.2747 H   0  0  0  0  0  0  0  0  0  0  0  0
    0.7090   -0.1618   -0.5661 H   0  0  0  0  0  0  0  0  0  0  0  0
   -0.7137   -1.5502   -1.4056 C   0  0  0  0  0  0  0  0  0  0  0  0
    0.2035   -2.1000   -1.6183 H   0  0  0  0  0  0  0  0  0  0  0  0
   -1.3592   -2.1627   -0.7735 H   0  0  0  0  0  0  0  0  0  0  0  0
   -1.4323   -1.2594   -2.7280 C   0  0  0  0  0  0  0  0  0  0  0  0
   -2.3490   -0.7024   -2.5322 H   0  0  0  0  0  0  0  0  0  0  0  0
   -0.7820   -0.6676   -3.3728 H   0  0  0  0  0  0  0  0  0  0  0  0
   -1.7801   -2.5715   -3.4284 C   0  0  0  0  0  0  0  0  0  0  0  0
   -0.8647   -3.1211   -3.6417 H   0  0  0  0  0  0  0  0  0  0  0  0
   -2.4151   -3.1716   -2.7787 H   0  0  0  0  0  0  0  0  0  0  0  0
   -2.4914   -2.3298   -4.6889 N   0  0  0  0  0  0  0  0  0  0  0  0
   -2.6924   -3.2152   -5.1302 H   0  0  0  0  0  0  0  0  0  0  0  0
   -3.3575   -1.8481   -4.4935 H   0  0  0  0  0  0  0  0  0  0  0  0
   -1.2712    1.3099    1.1517 C   0  0  0  0  0  0  0  0  0  0  0  0
   -2.2039    1.9448    0.6639 O   0  0  0  0  0  0  0  0  0  0  0  0
   -0.4306    1.8354    2.0503 N   0  0  0  0  0  0  0  0  0  0  0  0
    0.3001    1.2459    2.4139 H   0  0  0  0  0  0  0  0  0  0  0  0
   -0.5192    3.2082    2.5456 C   0  0  0  0  0  0  0  0  0  0  0  0
   -1.5166    3.3903    2.9518 H   0  0  0  0  0  0  0  0  0  0  0  0
    0.2240    3.3791    3.3257 H   0  0  0  0  0  0  0  0  0  0  0  0
   -0.3477    3.9067    1.7239 H   0  0  0  0  0  0  0  0  0  0  0  0
  5  6  2  0  0  0  0
  5  7  1  0  0  0  0
  2  3  1  0  0  0  0
  2  4  1  0  0  0  0
  2  5  1  0  0  0  0
  1  2  1  0  0  0  0
 26 27  2  0  0  0  0
 26 28  1  0  0  0  0
 23 24  1  0  0  0  0
 23 25  1  0  0  0  0
 20 21  1  0  0  0  0
 20 22  1  0  0  0  0
 20 23  1  0  0  0  0
 17 18  1  0  0  0  0
 17 19  1  0  0  0  0
 17 20  1  0  0  0  0
 14 15  1  0  0  0  0
 14 16  1  0  0  0  0
 14 17  1  0  0  0  0
 11 12  1  0  0  0  0
 11 13  1  0  0  0  0
 11 14  1  0  0  0  0
  9 10  1  0  0  0  0
  9 11  1  0  0  0  0
  9 26  1  0  0  0  0
  7  8  1  0  0  0  0
  7  9  1  0  0  0  0
 30 31  1  0  0  0  0
 30 32  1  0  0  0  0
 30 33  1  0  0  0  0
 28 29  1  0  0  0  0
 28 30  1  0  0  0  0
M  END
$$$$
default_name
  -OEChem-02102213163D

 33 32  0     1  0  0  0  0  0999 V2000
   -3.8420   -3.6918    1.5562 H   0  0  0  0  0  0  0  0  0  0  0  0
   -3.8430   -2.7008    1.1032 C   0  0  0  0  0  0  0  0  0  0  0  0
   -4.5510   -2.0608    1.6242 H   0  0  0  0  0  0  0  0  0  0  0  0
   -4.1140   -2.7798    0.0522 H   0  0  0  0  0  0  0  0  0  0  0  0
   -2.4570   -2.1098    1.2172 C   0  0  0  0  0  0  0  0  0  0  0  0
   -1.5600   -2.7438    1.7572 O   0  0  0  0  0  0  0  0  0  0  0  0
   -2.2870   -0.8898    0.7102 N   0  0  0  0  0  0  0  0  0  0  0  0
   -3.0820   -0.4218    0.2992 H   0  0  0  0  0  0  0  0  0  0  0  0
   -1.0240   -0.1468    0.7262 C   0  0  1  0  0  0  0  0  0  0  0  0
   -0.3583   -0.6100    1.4558 H   0  0  0  0  0  0  0  0  0  0  0  0
   -0.3739   -0.2459   -0.6675 C   0  0  0  0  0  0  0  0  0  0  0  0
   -0.7254    0.5908   -1.2747 H   0  0  0  0  0  0  0  0  0  0  0  0
    0.7090   -0.1618   -0.5661 H   0  0  0  0  0  0  0  0  0  0  0  0
   -0.7137   -1.5502   -1.4056 C   0  0  0  0  0  0  0  0  0  0  0  0
    0.1479   -2.2180   -1.3841 H   0  0  0  0  0  0  0  0  0  0  0  0
   -1.5549   -2.0358   -0.9076 H   0  0  0  0  0  0  0  0  0  0  0  0
   -1.0853   -1.2715   -2.8664 C   0  0  0  0  0  0  0  0  0  0  0  0
   -1.9418   -0.5977   -2.9045 H   0  0  0  0  0  0  0  0  0  0  0  0
   -0.2394   -0.8079   -3.3747 H   0  0  0  0  0  0  0  0  0  0  0  0
   -1.4420   -2.5799   -3.5693 C   0  0  0  0  0  0  0  0  0  0  0  0
   -0.5820   -3.2474   -3.5487 H   0  0  0  0  0  0  0  0  0  0  0  0
   -2.2752   -3.0531   -3.0523 H   0  0  0  0  0  0  0  0  0  0  0  0
   -1.8264   -2.3462   -4.9660 N   0  0  0  0  0  0  0  0  0  0  0  0
   -2.0412   -3.2308   -5.4023 H   0  0  0  0  0  0  0  0  0  0  0  0
   -2.6436   -1.7531   -4.9900 H   0  0  0  0  0  0  0  0  0  0  0  0
   -1.2712    1.3099    1.1517 C   0  0  0  0  0  0  0  0  0  0  0  0
   -2.2039    1.9448    0.6639 O   0  0  0  0  0  0  0  0  0  0  0  0
   -0.4306    1.8354    2.0503 N   0  0  0  0  0  0  0  0  0  0  0  0
    0.3001    1.2459    2.4139 H   0  0  0  0  0  0  0  0  0  0  0  0
   -0.5192    3.2082    2.5456 C   0  0  0  0  0  0  0  0  0  0  0  0
   -1.5166    3.3903    2.9518 H   0  0  0  0  0  0  0  0  0  0  0  0
    0.2240    3.3791    3.3257 H   0  0  0  0  0  0  0  0  0  0  0  0
   -0.3477    3.9067    1.7239 H   0  0  0  0  0  0  0  0  0  0  0  0
  5  6  2  0  0  0  0
  5  7  1  0  0  0  0
  2  3  1  0  0  0  0
  2  4  1  0  0  0  0
  2  5  1  0  0  0  0
  1  2  1  0  0  0  0
 26 27  2  0  0  0  0
 26 28  1  0  0  0  0
 23 24  1  0  0  0  0
 23 25  1  0  0  0  0
 20 21  1  0  0  0  0
 20 22  1  0  0  0  0
 20 23  1  0  0  0  0
 17 18  1  0  0  0  0
 17 19  1  0  0  0  0
 17 20  1  0  0  0  0
 14 15  1  0  0  0  0
 14 16  1  0  0  0  0
 14 17  1  0  0  0  0
 11 12  1  0  0  0  0
 11 13  1  0  0  0  0
 11 14  1  0  0  0  0
  9 10  1  0  0  0  0
  9 11  1  0  0  0  0
  9 26  1  0  0  0  0
  7  8  1  0  0  0  0
  7  9  1  0  0  0  0
 30 31  1  0  0  0  0
 30 32  1  0  0  0  0
 30 33  1  0  0  0  0
 28 29  1  0  0  0  0
 28 30  1  0  0  0  0
M  END
$$$$
default_name
  -OEChem-02102213163D

 33 32  0     1  0  0  0  0  0999 V2000
   -3.8420   -3.6918    1.5562 H   0  0  0  0  0  0  0  0  0  0  0  0
   -3.8430   -2.7008    1.1032 C   0  0  0  0  0  0  0  0  0  0  0  0
   -4.5510   -2.0608    1.6242 H   0  0  0  0  0  0  0  0  0  0  0  0
   -4.1140   -2.7798    0.0522 H   0  0  0  0  0  0  0  0  0  0  0  0
   -2.4570   -2.1098    1.2172 C   0  0  0  0  0  0  0  0  0  0  0  0
   -1.5600   -2.7438    1.7572 O   0  0  0  0  0  0  0  0  0  0  0  0
   -2.2870   -0.8898    0.7102 N   0  0  0  0  0  0  0  0  0  0  0  0
   -3.0820   -0.4218    0.2992 H   0  0  0  0  0  0  0  0  0  0  0  0
   -1.0240   -0.1468    0.7262 C   0  0  1  0  0  0  0  0  0  0  0  0
   -0.3583   -0.6100    1.4558 H   0  0  0  0  0  0  0  0  0  0  0  0
   -0.3739   -0.2459   -0.6675 C   0  0  0  0  0  0  0  0  0  0  0  0
   -0.7254    0.5908   -1.2747 H   0  0  0  0  0  0  0  0  0  0  0  0
    0.7090   -0.1618   -0.5661 H   0  0  0  0  0  0  0  0  0  0  0  0
   -0.7137   -1.5502   -1.4056 C   0  0  0  0  0  0  0  0  0  0  0  0
    0.0280   -2.3118   -1.1634 H   0  0  0  0  0  0  0  0  0  0  0  0
   -1.6987   -1.8965   -1.0875 H   0  0  0  0  0  0  0  0  0  0  0  0
   -0.7213   -1.3342   -2.9232 C   0  0  0  0  0  0  0  0  0  0  0  0
   -1.4537   -0.5685   -3.1808 H   0  0  0  0  0  0  0  0  0  0  0  0
    0.2677   -1.0109   -3.2494 H   0  0  0  0  0  0  0  0  0  0  0  0
   -1.0855   -2.6381   -3.6305 C   0  0  0  0  0  0  0  0  0  0  0  0
   -0.3451   -3.3991   -3.3896 H   0  0  0  0  0  0  0  0  0  0  0  0
   -2.0653   -2.9718   -3.2927 H   0  0  0  0  0  0  0  0  0  0  0  0
   -1.1251   -2.4606   -5.0867 N   0  0  0  0  0  0  0  0  0  0  0  0
   -1.3544   -3.3425   -5.5211 H   0  0  0  0  0  0  0  0  0  0  0  0
   -1.8332   -1.7785   -5.3182 H   0  0  0  0  0  0  0  0  0  0  0  0
   -1.2712    1.3099    1.1517 C   0  0  0  0  0  0  0  0  0  0  0  0
   -2.2039    1.9448    0.6639 O   0  0  0  0  0  0  0  0  0  0  0  0
   -0.4306    1.8354    2.0503 N   0  0  0  0  0  0  0  0  0  0  0  0
    0.3001    1.2459    2.4139 H   0  0  0  0  0  0  0  0  0  0  0  0
   -0.5192    3.2082    2.5456 C   0  0  0  0  0  0  0  0  0  0  0  0
   -1.5166    3.3903    2.9518 H   0  0  0  0  0  0  0  0  0  0  0  0
    0.2240    3.3791    3.3257 H   0  0  0  0  0  0  0  0  0  0  0  0
   -0.3477    3.9067    1.7239 H   0  0  0  0  0  0  0  0  0  0  0  0
  5  6  2  0  0  0  0
  5  7  1  0  0  0  0
  2  3  1  0  0  0  0
  2  4  1  0  0  0  0
  2  5  1  0  0  0  0
  1  2  1  0  0  0  0
 26 27  2  0  0  0  0
 26 28  1  0  0  0  0
 23 24  1  0  0  0  0
 23 25  1  0  0  0  0
 20 21  1  0  0  0  0
 20 22  1  0  0  0  0
 20 23  1  0  0  0  0
 17 18  1  0  0  0  0
 17 19  1  0  0  0  0
 17 20  1  0  0  0  0
 14 15  1  0  0  0  0
 14 16  1  0  0  0  0
 14 17  1  0  0  0  0
 11 12  1  0  0  0  0
 11 13  1  0  0  0  0
 11 14  1  0  0  0  0
  9 10  1  0  0  0  0
  9 11  1  0  0  0  0
  9 26  1  0  0  0  0
  7  8  1  0  0  0  0
  7  9  1  0  0  0  0
 30 31  1  0  0  0  0
 30 32  1  0  0  0  0
 30 33  1  0  0  0  0
 28 29  1  0  0  0  0
 28 30  1  0  0  0  0
M  END
$$$$
default_name
  -OEChem-02102213163D

 33 32  0     1  0  0  0  0  0999 V2000
   -3.8420   -3.6918    1.5562 H   0  0  0  0  0  0  0  0  0  0  0  0
   -3.8430   -2.7008    1.1032 C   0  0  0  0  0  0  0  0  0  0  0  0
   -4.5510   -2.0608    1.6242 H   0  0  0  0  0  0  0  0  0  0  0  0
   -4.1140   -2.7798    0.0522 H   0  0  0  0  0  0  0  0  0  0  0  0
   -2.4570   -2.1098    1.2172 C   0  0  0  0  0  0  0  0  0  0  0  0
   -1.5600   -2.7438    1.7572 O   0  0  0  0  0  0  0  0  0  0  0  0
   -2.2870   -0.8898    0.7102 N   0  0  0  0  0  0  0  0  0  0  0  0
   -3.0820   -0.4218    0.2992 H   0  0  0  0  0  0  0  0  0  0  0  0
   -1.0240   -0.1468    0.7262 C   0  0  1  0  0  0  0  0  0  0  0  0
   -0.3583   -0.6100    1.4558 H   0  0  0  0  0  0  0  0  0  0  0  0
   -0.3739   -0.2459   -0.6675 C   0  0  0  0  0  0  0  0  0  0  0  0
   -0.7254    0.5908   -1.2747 H   0  0  0  0  0  0  0  0  0  0  0  0
    0.7090   -0.1618   -0.5661 H   0  0  0  0  0  0  0  0  0  0  0  0
   -0.7137   -1.5502   -1.4056 C   0  0  0  0  0  0  0  0  0  0  0  0
   -0.1479   -2.3747   -0.9711 H   0  0  0  0  0  0  0  0  0  0  0  0
   -1.7808   -1.7544   -1.3007 H   0  0  0  0  0  0  0  0  0  0  0  0
   -0.3649   -1.4433   -2.8945 C   0  0  0  0  0  0  0  0  0  0  0  0
   -0.9178   -0.6169   -3.3420 H   0  0  0  0  0  0  0  0  0  0  0  0
    0.7047   -1.2629   -3.0053 H   0  0  0  0  0  0  0  0  0  0  0  0
   -0.7350   -2.7421   -3.6081 C   0  0  0  0  0  0  0  0  0  0  0  0
   -0.1701   -3.5661   -3.1751 H   0  0  0  0  0  0  0  0  0  0  0  0
   -1.7996   -2.9330   -3.4834 H   0  0  0  0  0  0  0  0  0  0  0  0
   -0.4355   -2.6652   -5.0426 N   0  0  0  0  0  0  0  0  0  0  0  0
   -0.6788   -3.5426   -5.4786 H   0  0  0  0  0  0  0  0  0  0  0  0
   -0.9814   -1.9225   -5.4557 H   0  0  0  0  0  0  0  0  0  0  0  0
   -1.2712    1.3099    1.1517 C   0  0  0  0  0  0  0  0  0  0  0  0
   -2.2039    1.9448    0.6639 O   0  0  0  0  0  0  0  0  0  0  0  0
   -0.4306    1.8354    2.0503 N   0  0  0  0  0  0  0  0  0  0  0  0
    0.3001    1.2459    2.4139 H   0  0  0  0  0  0  0  0  0  0  0  0
   -0.5192    3.2082    2.5456 C   0  0  0  0  0  0  0  0  0  0  0  0
   -1.5166    3.3903    2.9518 H   0  0  0  0  0  0  0  0  0  0  0  0
    0.2240    3.3791    3.3257 H   0  0  0  0  0  0  0  0  0  0  0  0
   -0.3477    3.9067    1.7239 H   0  0  0  0  0  0  0  0  0  0  0  0
  5  6  2  0  0  0  0
  5  7  1  0  0  0  0
  2  3  1  0  0  0  0
  2  4  1  0  0  0  0
  2  5  1  0  0  0  0
  1  2  1  0  0  0  0
 26 27  2  0  0  0  0
 26 28  1  0  0  0  0
 23 24  1  0  0  0  0
 23 25  1  0  0  0  0
 20 21  1  0  0  0  0
 20 22  1  0  0  0  0
 20 23  1  0  0  0  0
 17 18  1  0  0  0  0
 17 19  1  0  0  0  0
 17 20  1  0  0  0  0
 14 15  1  0  0  0  0
 14 16  1  0  0  0  0
 14 17  1  0  0  0  0
 11 12  1  0  0  0  0
 11 13  1  0  0  0  0
 11 14  1  0  0  0  0
  9 10  1  0  0  0  0
  9 11  1  0  0  0  0
  9 26  1  0  0  0  0
  7  8  1  0  0  0  0
  7  9  1  0  0  0  0
 30 31  1  0  0  0  0
 30 32  1  0  0  0  0
 30 33  1  0  0  0  0
 28 29  1  0  0  0  0
 28 30  1  0  0  0  0
M  END
$$$$
default_name
  -OEChem-02102213163D

 33 32  0     1  0  0  0  0  0999 V2000
   -3.8420   -3.6918    1.5562 H   0  0  0  0  0  0  0  0  0  0  0  0
   -3.8430   -2.7008    1.1032 C   0  0  0  0  0  0  0  0  0  0  0  0
   -4.5510   -2.0608    1.6242 H   0  0  0  0  0  0  0  0  0  0  0  0
   -4.1140   -2.7798    0.0522 H   0  0  0  0  0  0  0  0  0  0  0  0
   -2.4570   -2.1098    1.2172 C   0  0  0  0  0  0  0  0  0  0  0  0
   -1.5600   -2.7438    1.7572 O   0  0  0  0  0  0  0  0  0  0  0  0
   -2.2870   -0.8898    0.7102 N   0  0  0  0  0  0  0  0  0  0  0  0
   -3.0820   -0.4218    0.2992 H   0  0  0  0  0  0  0  0  0  0  0  0
   -1.0240   -0.1468    0.7262 C   0  0  1  0  0  0  0  0  0  0  0  0
   -0.3583   -0.6100    1.4558 H   0  0  0  0  0  0  0  0  0  0  0  0
   -0.3739   -0.2459   -0.6675 C   0  0  0  0  0  0  0  0  0  0  0  0
   -0.5025    0.7101   -1.1792 H   0  0  0  0  0  0  0  0  0  0  0  0
    0.6953   -0.4300   -0.5534 H   0  0  0  0  0  0  0  0  0  0  0  0
   -0.9864   -1.3469   -1.5473 C   0  0  0  0  0  0  0  0  0  0  0  0
   -0.8664   -2.3145   -1.0592 H   0  0  0  0  0  0  0  0  0  0  0  0
   -2.0503   -1.1457   -1.6854 H   0  0  0  0  0  0  0  0  0  0  0  0
   -0.3009   -1.3973   -2.9174 C   0  0  0  0  0  0  0  0  0  0  0  0
   -0.4057   -0.4329   -3.4153 H   0  0  0  0  0  0  0  0  0  0  0  0
    0.7580   -1.6218   -2.7861 H   0  0  0  0  0  0  0  0  0  0  0  0
   -0.9443   -2.4818   -3.7794 C   0  0  0  0  0  0  0  0  0  0  0  0
   -0.8246   -3.4486   -3.2930 H   0  0  0  0  0  0  0  0  0  0  0  0
   -2.0055   -2.2688   -3.8968 H   0  0  0  0  0  0  0  0  0  0  0  0
   -0.3263   -2.5413   -5.1090 N   0  0  0  0  0  0  0  0  0  0  0  0
   -0.7651   -3.2756   -5.6450 H   0  0  0  0  0  0  0  0  0  0  0  0
   -0.4625   -1.6569   -5.5775 H   0  0  0  0  0  0  0  0  0  0  0  0
   -1.2712    1.3099    1.1517 C   0  0  0  0  0  0  0  0  0  0  0  0
   -2.2039    1.9448    0.6639 O   0  0  0  0  0  0  0  0  0  0  0  0
   -0.4306    1.8354    2.0503 N   0  0  0  0  0  0  0  0  0  0  0  0
    0.3001    1.2459    2.4139 H   0  0  0  0  0  0  0  0  0  0  0  0
   -0.5192    3.2082    2.5456 C   0  0  0  0  0  0  0  0  0  0  0  0
   -1.5166    3.3903    2.9518 H   0  0  0  0  0  0  0  0  0  0  0  0
    0.2240    3.3791    3.3257 H   0  0  0  0  0  0  0  0  0  0  0  0
   -0.3477    3.9067    1.7239 H   0  0  0  0  0  0  0  0  0  0  0  0
  5  6  2  0  0  0  0
  5  7  1  0  0  0  0
  2  3  1  0  0  0  0
  2  4  1  0  0  0  0
  2  5  1  0  0  0  0
  1  2  1  0  0  0  0
 26 27  2  0  0  0  0
 26 28  1  0  0  0  0
 23 24  1  0  0  0  0
 23 25  1  0  0  0  0
 20 21  1  0  0  0  0
 20 22  1  0  0  0  0
 20 23  1  0  0  0  0
 17 18  1  0  0  0  0
 17 19  1  0  0  0  0
 17 20  1  0  0  0  0
 14 15  1  0  0  0  0
 14 16  1  0  0  0  0
 14 17  1  0  0  0  0
 11 12  1  0  0  0  0
 11 13  1  0  0  0  0
 11 14  1  0  0  0  0
  9 10  1  0  0  0  0
  9 11  1  0  0  0  0
  9 26  1  0  0  0  0
  7  8  1  0  0  0  0
  7  9  1  0  0  0  0
 30 31  1  0  0  0  0
 30 32  1  0  0  0  0
 30 33  1  0  0  0  0
 28 29  1  0  0  0  0
 28 30  1  0  0  0  0
M  END
$$$$
default_name
  -OEChem-02102213163D

 33 32  0     1  0  0  0  0  0999 V2000
   -3.8420   -3.6918    1.5562 H   0  0  0  0  0  0  0  0  0  0  0  0
   -3.8430   -2.7008    1.1032 C   0  0  0  0  0  0  0  0  0  0  0  0
   -4.5510   -2.0608    1.6242 H   0  0  0  0  0  0  0  0  0  0  0  0
   -4.1140   -2.7798    0.0522 H   0  0  0  0  0  0  0  0  0  0  0  0
   -2.4570   -2.1098    1.2172 C   0  0  0  0  0  0  0  0  0  0  0  0
   -1.5600   -2.7438    1.7572 O   0  0  0  0  0  0  0  0  0  0  0  0
   -2.2870   -0.8898    0.7102 N   0  0  0  0  0  0  0  0  0  0  0  0
   -3.0820   -0.4218    0.2992 H   0  0  0  0  0  0  0  0  0  0  0  0
   -1.0240   -0.1468    0.7262 C   0  0  1  0  0  0  0  0  0  0  0  0
   -0.3583   -0.6100    1.4558 H   0  0  0  0  0  0  0  0  0  0  0  0
   -0.3739   -0.2459   -0.6675 C   0  0  0  0  0  0  0  0  0  0  0  0
   -0.5025    0.7101   -1.1792 H   0  0  0  0  0  0  0  0  0  0  0  0
    0.6953   -0.4300   -0.5534 H   0  0  0  0  0  0  0  0  0  0  0  0
   -0.9864   -1.3469   -1.5473 C   0  0  0  0  0  0  0  0  0  0  0  0
   -1.1093   -2.2579   -0.9609 H   0  0  0  0  0  0  0  0  0  0  0  0
   -1.9635   -1.0180   -1.9057 H   0  0  0  0  0  0  0  0  0  0  0  0
   -0.0851   -1.6519   -2.7491 C   0  0  0  0  0  0  0  0  0  0  0  0
    0.0539   -0.7472   -3.3418 H   0  0  0  0  0  0  0  0  0  0  0  0
    0.8848   -2.0038   -2.3962 H   0  0  0  0  0  0  0  0  0  0  0  0
   -0.7281   -2.7303   -3.6189 C   0  0  0  0  0  0  0  0  0  0  0  0
   -0.8509   -3.6406   -3.0343 H   0  0  0  0  0  0  0  0  0  0  0  0
   -1.7045   -2.3876   -3.9577 H   0  0  0  0  0  0  0  0  0  0  0  0
    0.0989   -3.0301   -4.7934 N   0  0  0  0  0  0  0  0  0  0  0  0
   -0.3480   -3.7543   -5.3364 H   0  0  0  0  0  0  0  0  0  0  0  0
    0.1896   -2.1963   -5.3563 H   0  0  0  0  0  0  0  0  0  0  0  0
   -1.2712    1.3099    1.1517 C   0  0  0  0  0  0  0  0  0  0  0  0
   -2.2039    1.9448    0.6639 O   0  0  0  0  0  0  0  0  0  0  0  0
   -0.4306    1.8354    2.0503 N   0  0  0  0  0  0  0  0  0  0  0  0
    0.3001    1.2459    2.4139 H   0  0  0  0  0  0  0  0  0  0  0  0
   -0.5192    3.2082    2.5456 C   0  0  0  0  0  0  0  0  0  0  0  0
   -1.5166    3.3903    2.9518 H   0  0  0  0  0  0  0  0  0  0  0  0
    0.2240    3.3791    3.3257 H   0  0  0  0  0  0  0  0  0  0  0  0
   -0.3477    3.9067    1.7239 H   0  0  0  0  0  0  0  0  0  0  0  0
  5  6  2  0  0  0  0
  5  7  1  0  0  0  0
  2  3  1  0  0  0  0
  2  4  1  0  0  0  0
  2  5  1  0  0  0  0
  1  2  1  0  0  0  0
 26 27  2  0  0  0  0
 26 28  1  0  0  0  0
 23 24  1  0  0  0  0
 23 25  1  0  0  0  0
 20 21  1  0  0  0  0
 20 22  1  0  0  0  0
 20 23  1  0  0  0  0
 17 18  1  0  0  0  0
 17 19  1  0  0  0  0
 17 20  1  0  0  0  0
 14 15  1  0  0  0  0
 14 16  1  0  0  0  0
 14 17  1  0  0  0  0
 11 12  1  0  0  0  0
 11 13  1  0  0  0  0
 11 14  1  0  0  0  0
  9 10  1  0  0  0  0
  9 11  1  0  0  0  0
  9 26  1  0  0  0  0
  7  8  1  0  0  0  0
  7  9  1  0  0  0  0
 30 31  1  0  0  0  0
 30 32  1  0  0  0  0
 30 33  1  0  0  0  0
 28 29  1  0  0  0  0
 28 30  1  0  0  0  0
M  END
$$$$
default_name
  -OEChem-02102213163D

 33 32  0     1  0  0  0  0  0999 V2000
   -3.8420   -3.6918    1.5562 H   0  0  0  0  0  0  0  0  0  0  0  0
   -3.8430   -2.7008    1.1032 C   0  0  0  0  0  0  0  0  0  0  0  0
   -4.5510   -2.0608    1.6242 H   0  0  0  0  0  0  0  0  0  0  0  0
   -4.1140   -2.7798    0.0522 H   0  0  0  0  0  0  0  0  0  0  0  0
   -2.4570   -2.1098    1.2172 C   0  0  0  0  0  0  0  0  0  0  0  0
   -1.5600   -2.7438    1.7572 O   0  0  0  0  0  0  0  0  0  0  0  0
   -2.2870   -0.8898    0.7102 N   0  0  0  0  0  0  0  0  0  0  0  0
   -3.0820   -0.4218    0.2992 H   0  0  0  0  0  0  0  0  0  0  0  0
   -1.0240   -0.1468    0.7262 C   0  0  1  0  0  0  0  0  0  0  0  0
   -0.3583   -0.6100    1.4558 H   0  0  0  0  0  0  0  0  0  0  0  0
   -0.3739   -0.2459   -0.6675 C   0  0  0  0  0  0  0  0  0  0  0  0
   -0.5025    0.7101   -1.1792 H   0  0  0  0  0  0  0  0  0  0  0  0
    0.6953   -0.4300   -0.5534 H   0  0  0  0  0  0  0  0  0  0  0  0
   -0.9864   -1.3469   -1.5473 C   0  0  0  0  0  0  0  0  0  0  0  0
   -1.3538   -2.1571   -0.9169 H   0  0  0  0  0  0  0  0  0  0  0  0
   -1.8198   -0.9301   -2.1157 H   0  0  0  0  0  0  0  0  0  0  0  0
    0.0545   -1.9124   -2.5202 C   0  0  0  0  0  0  0  0  0  0  0  0
    0.4376   -1.1114   -3.1532 H   0  0  0  0  0  0  0  0  0  0  0  0
    0.8782   -2.3514   -1.9566 H   0  0  0  0  0  0  0  0  0  0  0  0
   -0.5859   -2.9858   -3.3982 C   0  0  0  0  0  0  0  0  0  0  0  0
   -0.9528   -3.7955   -2.7696 H   0  0  0  0  0  0  0  0  0  0  0  0
   -1.4200   -2.5533   -3.9484 H   0  0  0  0  0  0  0  0  0  0  0  0
    0.3788   -3.5327   -4.3592 N   0  0  0  0  0  0  0  0  0  0  0  0
   -0.0732   -4.2466   -4.9116 H   0  0  0  0  0  0  0  0  0  0  0  0
    0.6986   -2.7912   -4.9661 H   0  0  0  0  0  0  0  0  0  0  0  0
   -1.2712    1.3099    1.1517 C   0  0  0  0  0  0  0  0  0  0  0  0
   -2.2039    1.9448    0.6639 O   0  0  0  0  0  0  0  0  0  0  0  0
   -0.4306    1.8354    2.0503 N   0  0  0  0  0  0  0  0  0  0  0  0
    0.3001    1.2459    2.4139 H   0  0  0  0  0  0  0  0  0  0  0  0
   -0.5192    3.2082    2.5456 C   0  0  0  0  0  0  0  0  0  0  0  0
   -1.5166    3.3903    2.9518 H   0  0  0  0  0  0  0  0  0  0  0  0
    0.2240    3.3791    3.3257 H   0  0  0  0  0  0  0  0  0  0  0  0
   -0.3477    3.9067    1.7239 H   0  0  0  0  0  0  0  0  0  0  0  0
  5  6  2  0  0  0  0
  5  7  1  0  0  0  0
  2  3  1  0  0  0  0
  2  4  1  0  0  0  0
  2  5  1  0  0  0  0
  1  2  1  0  0  0  0
 26 27  2  0  0  0  0
 26 28  1  0  0  0  0
 23 24  1  0  0  0  0
 23 25  1  0  0  0  0
 20 21  1  0  0  0  0
 20 22  1  0  0  0  0
 20 23  1  0  0  0  0
 17 18  1  0  0  0  0
 17 19  1  0  0  0  0
 17 20  1  0  0  0  0
 14 15  1  0  0  0  0
 14 16  1  0  0  0  0
 14 17  1  0  0  0  0
 11 12  1  0  0  0  0
 11 13  1  0  0  0  0
 11 14  1  0  0  0  0
  9 10  1  0  0  0  0
  9 11  1  0  0  0  0
  9 26  1  0  0  0  0
  7  8  1  0  0  0  0
  7  9  1  0  0  0  0
 30 31  1  0  0  0  0
 30 32  1  0  0  0  0
 30 33  1  0  0  0  0
 28 29  1  0  0  0  0
 28 30  1  0  0  0  0
M  END
$$$$
default_name
  -OEChem-02102213163D

 33 32  0     1  0  0  0  0  0999 V2000
   -3.8420   -3.6918    1.5562 H   0  0  0  0  0  0  0  0  0  0  0  0
   -3.8430   -2.7008    1.1032 C   0  0  0  0  0  0  0  0  0  0  0  0
   -4.5510   -2.0608    1.6242 H   0  0  0  0  0  0  0  0  0  0  0  0
   -4.1140   -2.7798    0.0522 H   0  0  0  0  0  0  0  0  0  0  0  0
   -2.4570   -2.1098    1.2172 C   0  0  0  0  0  0  0  0  0  0  0  0
   -1.5600   -2.7438    1.7572 O   0  0  0  0  0  0  0  0  0  0  0  0
   -2.2870   -0.8898    0.7102 N   0  0  0  0  0  0  0  0  0  0  0  0
   -3.0820   -0.4218    0.2992 H   0  0  0  0  0  0  0  0  0  0  0  0
   -1.0240   -0.1468    0.7262 C   0  0  1  0  0  0  0  0  0  0  0  0
   -0.3583   -0.6100    1.4558 H   0  0  0  0  0  0  0  0  0  0  0  0
   -0.3739   -0.2459   -0.6675 C   0  0  0  0  0  0  0  0  0  0  0  0
   -0.5025    0.7101   -1.1792 H   0  0  0  0  0  0  0  0  0  0  0  0
    0.6953   -0.4300   -0.5534 H   0  0  0  0  0  0  0  0  0  0  0  0
   -0.9864   -1.3469   -1.5473 C   0  0  0  0  0  0  0  0  0  0  0  0
   -1.5833   -2.0190   -0.9301 H   0  0  0  0  0  0  0  0  0  0  0  0
   -1.6291   -0.8882   -2.3009 H   0  0  0  0  0  0  0  0  0  0  0  0
    0.1082   -2.1611   -2.2464 C   0  0  0  0  0  0  0  0  0  0  0  0
    0.7193   -1.5006   -2.8623 H   0  0  0  0  0  0  0  0  0  0  0  0
    0.7389   -2.6409   -1.4974 H   0  0  0  0  0  0  0  0  0  0  0  0
   -0.5273   -3.2308   -3.1323 C   0  0  0  0  0  0  0  0  0  0  0  0
   -1.1233   -3.9027   -2.5167 H   0  0  0  0  0  0  0  0  0  0  0  0
   -1.1714   -2.7545   -3.8696 H   0  0  0  0  0  0  0  0  0  0  0  0
    0.4941   -4.0148   -3.8361 N   0  0  0  0  0  0  0  0  0  0  0  0
    0.0405   -4.7190   -4.3995 H   0  0  0  0  0  0  0  0  0  0  0  0
    1.0296   -3.4010   -4.4335 H   0  0  0  0  0  0  0  0  0  0  0  0
   -1.2712    1.3099    1.1517 C   0  0  0  0  0  0  0  0  0  0  0  0
   -2.2039    1.9448    0.6639 O   0  0  0  0  0  0  0  0  0  0  0  0
   -0.4306    1.8354    2.0503 N   0  0  0  0  0  0  0  0  0  0  0  0
    0.3001    1.2459    2.4139 H   0  0  0  0  0  0  0  0  0  0  0  0
   -0.5192    3.2082    2.5456 C   0  0  0  0  0  0  0  0  0  0  0  0
   -1.5166    3.3903    2.9518 H   0  0  0  0  0  0  0  0  0  0  0  0
    0.2240    3.3791    3.3257 H   0  0  0  0  0  0  0  0  0  0  0  0
   -0.3477    3.9067    1.7239 H   0  0  0  0  0  0  0  0  0  0  0  0
  5  6  2  0  0  0  0
  5  7  1  0  0  0  0
  2  3  1  0  0  0  0
  2  4  1  0  0  0  0
  2  5  1  0  0  0  0
  1  2  1  0  0  0  0
 26 27  2  0  0  0  0
 26 28  1  0  0  0  0
 23 24  1  0  0  0  0
 23 25  1  0  0  0  0
 20 21  1  0  0  0  0
 20 22  1  0  0  0  0
 20 23  1  0  0  0  0
 17 18  1  0  0  0  0
 17 19  1  0  0  0  0
 17 20  1  0  0  0  0
 14 15  1  0  0  0  0
 14 16  1  0  0  0  0
 14 17  1  0  0  0  0
 11 12  1  0  0  0  0
 11 13  1  0  0  0  0
 11 14  1  0  0  0  0
  9 10  1  0  0  0  0
  9 11  1  0  0  0  0
  9 26  1  0  0  0  0
  7  8  1  0  0  0  0
  7  9  1  0  0  0  0
 30 31  1  0  0  0  0
 30 32  1  0  0  0  0
 30 33  1  0  0  0  0
 28 29  1  0  0  0  0
 28 30  1  0  0  0  0
M  END
$$$$
default_name
  -OEChem-02102213163D

 33 32  0     1  0  0  0  0  0999 V2000
   -3.8420   -3.6918    1.5562 H   0  0  0  0  0  0  0  0  0  0  0  0
   -3.8430   -2.7008    1.1032 C   0  0  0  0  0  0  0  0  0  0  0  0
   -4.5510   -2.0608    1.6242 H   0  0  0  0  0  0  0  0  0  0  0  0
   -4.1140   -2.7798    0.0522 H   0  0  0  0  0  0  0  0  0  0  0  0
   -2.4570   -2.1098    1.2172 C   0  0  0  0  0  0  0  0  0  0  0  0
   -1.5600   -2.7438    1.7572 O   0  0  0  0  0  0  0  0  0  0  0  0
   -2.2870   -0.8898    0.7102 N   0  0  0  0  0  0  0  0  0  0  0  0
   -3.0820   -0.4218    0.2992 H   0  0  0  0  0  0  0  0  0  0  0  0
   -1.0240   -0.1468    0.7262 C   0  0  1  0  0  0  0  0  0  0  0  0
   -0.3583   -0.6100    1.4558 H   0  0  0  0  0  0  0  0  0  0  0  0
   -0.3739   -0.2459   -0.6675 C   0  0  0  0  0  0  0  0  0  0  0  0
   -0.5025    0.7101   -1.1792 H   0  0  0  0  0  0  0  0  0  0  0  0
    0.6953   -0.4300   -0.5534 H   0  0  0  0  0  0  0  0  0  0  0  0
   -0.9864   -1.3469   -1.5473 C   0  0  0  0  0  0  0  0  0  0  0  0
   -1.7819   -1.8529   -0.9996 H   0  0  0  0  0  0  0  0  0  0  0  0
   -1.4044   -0.8951   -2.4487 H   0  0  0  0  0  0  0  0  0  0  0  0
    0.0725   -2.3810   -1.9463 C   0  0  0  0  0  0  0  0  0  0  0  0
    0.8798   -1.8882   -2.4889 H   0  0  0  0  0  0  0  0  0  0  0  0
    0.4762   -2.8524   -1.0498 H   0  0  0  0  0  0  0  0  0  0  0  0
   -0.5564   -3.4488   -2.8393 C   0  0  0  0  0  0  0  0  0  0  0  0
   -1.3507   -3.9549   -2.2931 H   0  0  0  0  0  0  0  0  0  0  0  0
   -0.9758   -2.9776   -3.7267 H   0  0  0  0  0  0  0  0  0  0  0  0
    0.4370   -4.4436   -3.2598 N   0  0  0  0  0  0  0  0  0  0  0  0
   -0.0147   -5.1393   -3.8351 H   0  0  0  0  0  0  0  0  0  0  0  0
    1.1603   -3.9841   -3.7947 H   0  0  0  0  0  0  0  0  0  0  0  0
   -1.2712    1.3099    1.1517 C   0  0  0  0  0  0  0  0  0  0  0  0
   -2.2039    1.9448    0.6639 O   0  0  0  0  0  0  0  0  0  0  0  0
   -0.4306    1.8354    2.0503 N   0  0  0  0  0  0  0  0  0  0  0  0
    0.3001    1.2459    2.4139 H   0  0  0  0  0  0  0  0  0  0  0  0
   -0.5192    3.2082    2.5456 C   0  0  0  0  0  0  0  0  0  0  0  0
   -1.5166    3.3903    2.9518 H   0  0  0  0  0  0  0  0  0  0  0  0
    0.2240    3.3791    3.3257 H   0  0  0  0  0  0  0  0  0  0  0  0
   -0.3477    3.9067    1.7239 H   0  0  0  0  0  0  0  0  0  0  0  0
  5  6  2  0  0  0  0
  5  7  1  0  0  0  0
  2  3  1  0  0  0  0
  2  4  1  0  0  0  0
  2  5  1  0  0  0  0
  1  2  1  0  0  0  0
 26 27  2  0  0  0  0
 26 28  1  0  0  0  0
 23 24  1  0  0  0  0
 23 25  1  0  0  0  0
 20 21  1  0  0  0  0
 20 22  1  0  0  0  0
 20 23  1  0  0  0  0
 17 18  1  0  0  0  0
 17 19  1  0  0  0  0
 17 20  1  0  0  0  0
 14 15  1  0  0  0  0
 14 16  1  0  0  0  0
 14 17  1  0  0  0  0
 11 12  1  0  0  0  0
 11 13  1  0  0  0  0
 11 14  1  0  0  0  0
  9 10  1  0  0  0  0
  9 11  1  0  0  0  0
  9 26  1  0  0  0  0
  7  8  1  0  0  0  0
  7  9  1  0  0  0  0
 30 31  1  0  0  0  0
 30 32  1  0  0  0  0
 30 33  1  0  0  0  0
 28 29  1  0  0  0  0
 28 30  1  0  0  0  0
M  END
$$$$
default_name
  -OEChem-02102213163D

 33 32  0     1  0  0  0  0  0999 V2000
   -3.8420   -3.6918    1.5562 H   0  0  0  0  0  0  0  0  0  0  0  0
   -3.8430   -2.7008    1.1032 C   0  0  0  0  0  0  0  0  0  0  0  0
   -4.5510   -2.0608    1.6242 H   0  0  0  0  0  0  0  0  0  0  0  0
   -4.1140   -2.7798    0.0522 H   0  0  0  0  0  0  0  0  0  0  0  0
   -2.4570   -2.1098    1.2172 C   0  0  0  0  0  0  0  0  0  0  0  0
   -1.5600   -2.7438    1.7572 O   0  0  0  0  0  0  0  0  0  0  0  0
   -2.2870   -0.8898    0.7102 N   0  0  0  0  0  0  0  0  0  0  0  0
   -3.0820   -0.4218    0.2992 H   0  0  0  0  0  0  0  0  0  0  0  0
   -1.0240   -0.1468    0.7262 C   0  0  1  0  0  0  0  0  0  0  0  0
   -0.3583   -0.6100    1.4558 H   0  0  0  0  0  0  0  0  0  0  0  0
   -0.3739   -0.2459   -0.6675 C   0  0  0  0  0  0  0  0  0  0  0  0
   -0.5025    0.7101   -1.1792 H   0  0  0  0  0  0  0  0  0  0  0  0
    0.6953   -0.4300   -0.5534 H   0  0  0  0  0  0  0  0  0  0  0  0
   -0.9864   -1.3469   -1.5473 C   0  0  0  0  0  0  0  0  0  0  0  0
   -1.9363   -1.6702   -1.1207 H   0  0  0  0  0  0  0  0  0  0  0  0
   -1.1609   -0.9503   -2.5491 H   0  0  0  0  0  0  0  0  0  0  0  0
   -0.0502   -2.5572   -1.6403 C   0  0  0  0  0  0  0  0  0  0  0  0
    0.9082   -2.2479   -2.0585 H   0  0  0  0  0  0  0  0  0  0  0  0
    0.1082   -2.9717   -0.6443 H   0  0  0  0  0  0  0  0  0  0  0  0
   -0.6710   -3.6248   -2.5392 C   0  0  0  0  0  0  0  0  0  0  0  0
   -1.6196   -3.9486   -2.1138 H   0  0  0  0  0  0  0  0  0  0  0  0
   -0.8464   -3.2073   -3.5293 H   0  0  0  0  0  0  0  0  0  0  0  0
    0.2115   -4.7899   -2.6694 N   0  0  0  0  0  0  0  0  0  0  0  0
   -0.2349   -5.4789   -3.2567 H   0  0  0  0  0  0  0  0  0  0  0  0
    1.0816   -4.5008   -3.0932 H   0  0  0  0  0  0  0  0  0  0  0  0
   -1.2712    1.3099    1.1517 C   0  0  0  0  0  0  0  0  0  0  0  0
   -2.2039    1.9448    0.6639 O   0  0  0  0  0  0  0  0  0  0  0  0
   -0.4306    1.8354    2.0503 N   0  0  0  0  0  0  0  0  0  0  0  0
    0.3001    1.2459    2.4139 H   0  0  0  0  0  0  0  0  0  0  0  0
   -0.5192    3.2082    2.5456 C   0  0  0  0  0  0  0  0  0  0  0  0
   -1.5166    3.3903    2.9518 H   0  0  0  0  0  0  0  0  0  0  0  0
    0.2240    3.3791    3.3257 H   0  0  0  0  0  0  0  0  0  0  0  0
   -0.3477    3.9067    1.7239 H   0  0  0  0  0  0  0  0  0  0  0  0
  5  6  2  0  0  0  0
  5  7  1  0  0  0  0
  2  3  1  0  0  0  0
  2  4  1  0  0  0  0
  2  5  1  0  0  0  0
  1  2  1  0  0  0  0
 26 27  2  0  0  0  0
 26 28  1  0  0  0  0
 23 24  1  0  0  0  0
 23 25  1  0  0  0  0
 20 21  1  0  0  0  0
 20 22  1  0  0  0  0
 20 23  1  0  0  0  0
 17 18  1  0  0  0  0
 17 19  1  0  0  0  0
 17 20  1  0  0  0  0
 14 15  1  0  0  0  0
 14 16  1  0  0  0  0
 14 17  1  0  0  0  0
 11 12  1  0  0  0  0
 11 13  1  0  0  0  0
 11 14  1  0  0  0  0
  9 10  1  0  0  0  0
  9 11  1  0  0  0  0
  9 26  1  0  0  0  0
  7  8  1  0  0  0  0
  7  9  1  0  0  0  0
 30 31  1  0  0  0  0
 30 32  1  0  0  0  0
 30 33  1  0  0  0  0
 28 29  1  0  0  0  0
 28 30  1  0  0  0  0
M  END
$$$$
default_name
  -OEChem-02102213163D

 33 32  0     1  0  0  0  0  0999 V2000
   -3.8420   -3.6918    1.5562 H   0  0  0  0  0  0  0  0  0  0  0  0
   -3.8430   -2.7008    1.1032 C   0  0  0  0  0  0  0  0  0  0  0  0
   -4.5510   -2.0608    1.6242 H   0  0  0  0  0  0  0  0  0  0  0  0
   -4.1140   -2.7798    0.0522 H   0  0  0  0  0  0  0  0  0  0  0  0
   -2.4570   -2.1098    1.2172 C   0  0  0  0  0  0  0  0  0  0  0  0
   -1.5600   -2.7438    1.7572 O   0  0  0  0  0  0  0  0  0  0  0  0
   -2.2870   -0.8898    0.7102 N   0  0  0  0  0  0  0  0  0  0  0  0
   -3.0820   -0.4218    0.2992 H   0  0  0  0  0  0  0  0  0  0  0  0
   -1.0240   -0.1468    0.7262 C   0  0  1  0  0  0  0  0  0  0  0  0
   -0.3583   -0.6100    1.4558 H   0  0  0  0  0  0  0  0  0  0  0  0
   -0.3739   -0.2459   -0.6675 C   0  0  0  0  0  0  0  0  0  0  0  0
   -0.5025    0.7101   -1.1792 H   0  0  0  0  0  0  0  0  0  0  0  0
    0.6953   -0.4300   -0.5534 H   0  0  0  0  0  0  0  0  0  0  0  0
   -0.9864   -1.3469   -1.5473 C   0  0  0  0  0  0  0  0  0  0  0  0
   -2.0359   -1.4834   -1.2852 H   0  0  0  0  0  0  0  0  0  0  0  0
   -0.9153   -1.0501   -2.5953 H   0  0  0  0  0  0  0  0  0  0  0  0
   -0.2516   -2.6776   -1.3494 C   0  0  0  0  0  0  0  0  0  0  0  0
    0.8024   -2.5551   -1.6003 H   0  0  0  0  0  0  0  0  0  0  0  0
   -0.3402   -2.9905   -0.3086 H   0  0  0  0  0  0  0  0  0  0  0  0
   -0.8635   -3.7469   -2.2524 C   0  0  0  0  0  0  0  0  0  0  0  0
   -1.9116   -3.8842   -1.9912 H   0  0  0  0  0  0  0  0  0  0  0  0
   -0.7920   -3.4280   -3.2910 H   0  0  0  0  0  0  0  0  0  0  0  0
   -0.1672   -5.0301   -2.1052 N   0  0  0  0  0  0  0  0  0  0  0  0
   -0.6052   -5.7147   -2.7039 H   0  0  0  0  0  0  0  0  0  0  0  0
    0.7990   -4.9159   -2.3770 H   0  0  0  0  0  0  0  0  0  0  0  0
   -1.2712    1.3099    1.1517 C   0  0  0  0  0  0  0  0  0  0  0  0
   -2.2039    1.9448    0.6639 O   0  0  0  0  0  0  0  0  0  0  0  0
   -0.4306    1.8354    2.0503 N   0  0  0  0  0  0  0  0  0  0  0  0
    0.3001    1.2459    2.4139 H   0  0  0  0  0  0  0  0  0  0  0  0
   -0.5192    3.2082    2.5456 C   0  0  0  0  0  0  0  0  0  0  0  0
   -1.5166    3.3903    2.9518 H   0  0  0  0  0  0  0  0  0  0  0  0
    0.2240    3.3791    3.3257 H   0  0  0  0  0  0  0  0  0  0  0  0
   -0.3477    3.9067    1.7239 H   0  0  0  0  0  0  0  0  0  0  0  0
  5  6  2  0  0  0  0
  5  7  1  0  0  0  0
  2  3  1  0  0  0  0
  2  4  1  0  0  0  0
  2  5  1  0  0  0  0
  1  2  1  0  0  0  0
 26 27  2  0  0  0  0
 26 28  1  0  0  0  0
 23 24  1  0  0  0  0
 23 25  1  0  0  0  0
 20 21  1  0  0  0  0
 20 22  1  0  0  0  0
 20 23  1  0  0  0  0
 17 18  1  0  0  0  0
 17 19  1  0  0  0  0
 17 20  1  0  0  0  0
 14 15  1  0  0  0  0
 14 16  1  0  0  0  0
 14 17  1  0  0  0  0
 11 12  1  0  0  0  0
 11 13  1  0  0  0  0
 11 14  1  0  0  0  0
  9 10  1  0  0  0  0
  9 11  1  0  0  0  0
  9 26  1  0  0  0  0
  7  8  1  0  0  0  0
  7  9  1  0  0  0  0
 30 31  1  0  0  0  0
 30 32  1  0  0  0  0
 30 33  1  0  0  0  0
 28 29  1  0  0  0  0
 28 30  1  0  0  0  0
M  END
$$$$
default_name
  -OEChem-02102213163D

 33 32  0     1  0  0  0  0  0999 V2000
   -3.8420   -3.6918    1.5562 H   0  0  0  0  0  0  0  0  0  0  0  0
   -3.8430   -2.7008    1.1032 C   0  0  0  0  0  0  0  0  0  0  0  0
   -4.5510   -2.0608    1.6242 H   0  0  0  0  0  0  0  0  0  0  0  0
   -4.1140   -2.7798    0.0522 H   0  0  0  0  0  0  0  0  0  0  0  0
   -2.4570   -2.1098    1.2172 C   0  0  0  0  0  0  0  0  0  0  0  0
   -1.5600   -2.7438    1.7572 O   0  0  0  0  0  0  0  0  0  0  0  0
   -2.2870   -0.8898    0.7102 N   0  0  0  0  0  0  0  0  0  0  0  0
   -3.0820   -0.4218    0.2992 H   0  0  0  0  0  0  0  0  0  0  0  0
   -1.0240   -0.1468    0.7262 C   0  0  1  0  0  0  0  0  0  0  0  0
   -0.3583   -0.6100    1.4558 H   0  0  0  0  0  0  0  0  0  0  0  0
   -0.3739   -0.2459   -0.6675 C   0  0  0  0  0  0  0  0  0  0  0  0
   -0.5025    0.7101   -1.1792 H   0  0  0  0  0  0  0  0  0  0  0  0
    0.6953   -0.4300   -0.5534 H   0  0  0  0  0  0  0  0  0  0  0  0
   -0.9864   -1.3469   -1.5473 C   0  0  0  0  0  0  0  0  0  0  0  0
   -2.0739   -1.3051   -1.4819 H   0  0  0  0  0  0  0  0  0  0  0  0
   -0.6842   -1.1876   -2.5840 H   0  0  0  0  0  0  0  0  0  0  0  0
   -0.5180   -2.7341   -1.0933 C   0  0  0  0  0  0  0  0  0  0  0  0
    0.5698   -2.7890   -1.1458 H   0  0  0  0  0  0  0  0  0  0  0  0
   -0.8383   -2.9077   -0.0656 H   0  0  0  0  0  0  0  0  0  0  0  0
   -1.1208   -3.8067   -1.9985 C   0  0  0  0  0  0  0  0  0  0  0  0
   -2.2069   -3.7660   -1.9335 H   0  0  0  0  0  0  0  0  0  0  0  0
   -0.8164   -3.6246   -3.0279 H   0  0  0  0  0  0  0  0  0  0  0  0
   -0.6731   -5.1478   -1.6056 N   0  0  0  0  0  0  0  0  0  0  0  0
   -1.1004   -5.8305   -2.2143 H   0  0  0  0  0  0  0  0  0  0  0  0
    0.3316   -5.2011   -1.6948 H   0  0  0  0  0  0  0  0  0  0  0  0
   -1.2712    1.3099    1.1517 C   0  0  0  0  0  0  0  0  0  0  0  0
   -2.2039    1.9448    0.6639 O   0  0  0  0  0  0  0  0  0  0  0  0
   -0.4306    1.8354    2.0503 N   0  0  0  0  0  0  0  0  0  0  0  0
    0.3001    1.2459    2.4139 H   0  0  0  0  0  0  0  0  0  0  0  0
   -0.5192    3.2082    2.5456 C   0  0  0  0  0  0  0  0  0  0  0  0
   -1.5166    3.3903    2.9518 H   0  0  0  0  0  0  0  0  0  0  0  0
    0.2240    3.3791    3.3257 H   0  0  0  0  0  0  0  0  0  0  0  0
   -0.3477    3.9067    1.7239 H   0  0  0  0  0  0  0  0  0  0  0  0
  5  6  2  0  0  0  0
  5  7  1  0  0  0  0
  2  3  1  0  0  0  0
  2  4  1  0  0  0  0
  2  5  1  0  0  0  0
  1  2  1  0  0  0  0
 26 27  2  0  0  0  0
 26 28  1  0  0  0  0
 23 24  1  0  0  0  0
 23 25  1  0  0  0  0
 20 21  1  0  0  0  0
 20 22  1  0  0  0  0
 20 23  1  0  0  0  0
 17 18  1  0  0  0  0
 17 19  1  0  0  0  0
 17 20  1  0  0  0  0
 14 15  1  0  0  0  0
 14 16  1  0  0  0  0
 14 17  1  0  0  0  0
 11 12  1  0  0  0  0
 11 13  1  0  0  0  0
 11 14  1  0  0  0  0
  9 10  1  0  0  0  0
  9 11  1  0  0  0  0
  9 26  1  0  0  0  0
  7  8  1  0  0  0  0
  7  9  1  0  0  0  0
 30 31  1  0  0  0  0
 30 32  1  0  0  0  0
 30 33  1  0  0  0  0
 28 29  1  0  0  0  0
 28 30  1  0  0  0  0
M  END
$$$$
default_name
  -OEChem-02102213163D

 33 32  0     1  0  0  0  0  0999 V2000
   -3.8420   -3.6918    1.5562 H   0  0  0  0  0  0  0  0  0  0  0  0
   -3.8430   -2.7008    1.1032 C   0  0  0  0  0  0  0  0  0  0  0  0
   -4.5510   -2.0608    1.6242 H   0  0  0  0  0  0  0  0  0  0  0  0
   -4.1140   -2.7798    0.0522 H   0  0  0  0  0  0  0  0  0  0  0  0
   -2.4570   -2.1098    1.2172 C   0  0  0  0  0  0  0  0  0  0  0  0
   -1.5600   -2.7438    1.7572 O   0  0  0  0  0  0  0  0  0  0  0  0
   -2.2870   -0.8898    0.7102 N   0  0  0  0  0  0  0  0  0  0  0  0
   -3.0820   -0.4218    0.2992 H   0  0  0  0  0  0  0  0  0  0  0  0
   -1.0240   -0.1468    0.7262 C   0  0  1  0  0  0  0  0  0  0  0  0
   -0.3583   -0.6100    1.4558 H   0  0  0  0  0  0  0  0  0  0  0  0
   -0.3739   -0.2459   -0.6675 C   0  0  0  0  0  0  0  0  0  0  0  0
   -0.5025    0.7101   -1.1792 H   0  0  0  0  0  0  0  0  0  0  0  0
    0.6953   -0.4300   -0.5534 H   0  0  0  0  0  0  0  0  0  0  0  0
   -0.9864   -1.3469   -1.5473 C   0  0  0  0  0  0  0  0  0  0  0  0
   -2.0478   -1.1475   -1.6972 H   0  0  0  0  0  0  0  0  0  0  0  0
   -0.4835   -1.3535   -2.5161 H   0  0  0  0  0  0  0  0  0  0  0  0
   -0.8311   -2.7228   -0.8895 C   0  0  0  0  0  0  0  0  0  0  0  0
    0.2261   -2.9335   -0.7257 H   0  0  0  0  0  0  0  0  0  0  0  0
   -1.3522   -2.7287    0.0683 H   0  0  0  0  0  0  0  0  0  0  0  0
   -1.4252   -3.8002   -1.7948 C   0  0  0  0  0  0  0  0  0  0  0  0
   -2.4853   -3.6021   -1.9447 H   0  0  0  0  0  0  0  0  0  0  0  0
   -0.9179   -3.7838   -2.7580 H   0  0  0  0  0  0  0  0  0  0  0  0
   -1.2719   -5.1350   -1.2048 N   0  0  0  0  0  0  0  0  0  0  0  0
   -1.6866   -5.8185   -1.8212 H   0  0  0  0  0  0  0  0  0  0  0  0
   -0.2886   -5.3370   -1.0930 H   0  0  0  0  0  0  0  0  0  0  0  0
   -1.2712    1.3099    1.1517 C   0  0  0  0  0  0  0  0  0  0  0  0
   -2.2039    1.9448    0.6639 O   0  0  0  0  0  0  0  0  0  0  0  0
   -0.4306    1.8354    2.0503 N   0  0  0  0  0  0  0  0  0  0  0  0
    0.3001    1.2459    2.4139 H   0  0  0  0  0  0  0  0  0  0  0  0
   -0.5192    3.2082    2.5456 C   0  0  0  0  0  0  0  0  0  0  0  0
   -1.5166    3.3903    2.9518 H   0  0  0  0  0  0  0  0  0  0  0  0
    0.2240    3.3791    3.3257 H   0  0  0  0  0  0  0  0  0  0  0  0
   -0.3477    3.9067    1.7239 H   0  0  0  0  0  0  0  0  0  0  0  0
  5  6  2  0  0  0  0
  5  7  1  0  0  0  0
  2  3  1  0  0  0  0
  2  4  1  0  0  0  0
  2  5  1  0  0  0  0
  1  2  1  0  0  0  0
 26 27  2  0  0  0  0
 26 28  1  0  0  0  0
 23 24  1  0  0  0  0
 23 25  1  0  0  0  0
 20 21  1  0  0  0  0
 20 22  1  0  0  0  0
 20 23  1  0  0  0  0
 17 18  1  0  0  0  0
 17 19  1  0  0  0  0
 17 20  1  0  0  0  0
 14 15  1  0  0  0  0
 14 16  1  0  0  0  0
 14 17  1  0  0  0  0
 11 12  1  0  0  0  0
 11 13  1  0  0  0  0
 11 14  1  0  0  0  0
  9 10  1  0  0  0  0
  9 11  1  0  0  0  0
  9 26  1  0  0  0  0
  7  8  1  0  0  0  0
  7  9  1  0  0  0  0
 30 31  1  0  0  0  0
 30 32  1  0  0  0  0
 30 33  1  0  0  0  0
 28 29  1  0  0  0  0
 28 30  1  0  0  0  0
M  END
$$$$
default_name
  -OEChem-02102213163D

 33 32  0     1  0  0  0  0  0999 V2000
   -3.8420   -3.6918    1.5562 H   0  0  0  0  0  0  0  0  0  0  0  0
   -3.8430   -2.7008    1.1032 C   0  0  0  0  0  0  0  0  0  0  0  0
   -4.5510   -2.0608    1.6242 H   0  0  0  0  0  0  0  0  0  0  0  0
   -4.1140   -2.7798    0.0522 H   0  0  0  0  0  0  0  0  0  0  0  0
   -2.4570   -2.1098    1.2172 C   0  0  0  0  0  0  0  0  0  0  0  0
   -1.5600   -2.7438    1.7572 O   0  0  0  0  0  0  0  0  0  0  0  0
   -2.2870   -0.8898    0.7102 N   0  0  0  0  0  0  0  0  0  0  0  0
   -3.0820   -0.4218    0.2992 H   0  0  0  0  0  0  0  0  0  0  0  0
   -1.0240   -0.1468    0.7262 C   0  0  1  0  0  0  0  0  0  0  0  0
   -0.3583   -0.6100    1.4558 H   0  0  0  0  0  0  0  0  0  0  0  0
   -0.3739   -0.2459   -0.6675 C   0  0  0  0  0  0  0  0  0  0  0  0
   -0.5025    0.7101   -1.1792 H   0  0  0  0  0  0  0  0  0  0  0  0
    0.6953   -0.4300   -0.5534 H   0  0  0  0  0  0  0  0  0  0  0  0
   -0.9864   -1.3469   -1.5473 C   0  0  0  0  0  0  0  0  0  0  0  0
   -1.9592   -1.0215   -1.9167 H   0  0  0  0  0  0  0  0  0  0  0  0
   -0.3269   -1.5365   -2.3961 H   0  0  0  0  0  0  0  0  0  0  0  0
   -1.1697   -2.6444   -0.7519 C   0  0  0  0  0  0  0  0  0  0  0  0
   -0.2051   -2.9788   -0.3687 H   0  0  0  0  0  0  0  0  0  0  0  0
   -1.8470   -2.4659    0.0838 H   0  0  0  0  0  0  0  0  0  0  0  0
   -1.7560   -3.7277   -1.6551 C   0  0  0  0  0  0  0  0  0  0  0  0
   -2.7278   -3.4038   -2.0241 H   0  0  0  0  0  0  0  0  0  0  0  0
   -1.0895   -3.8947   -2.4997 H   0  0  0  0  0  0  0  0  0  0  0  0
   -1.9228   -4.9925   -0.9301 N   0  0  0  0  0  0  0  0  0  0  0  0
   -2.3240   -5.6795   -1.5515 H   0  0  0  0  0  0  0  0  0  0  0  0
   -1.0193   -5.3142   -0.6128 H   0  0  0  0  0  0  0  0  0  0  0  0
   -1.2712    1.3099    1.1517 C   0  0  0  0  0  0  0  0  0  0  0  0
   -2.2039    1.9448    0.6639 O   0  0  0  0  0  0  0  0  0  0  0  0
   -0.4306    1.8354    2.0503 N   0  0  0  0  0  0  0  0  0  0  0  0
    0.3001    1.2459    2.4139 H   0  0  0  0  0  0  0  0  0  0  0  0
   -0.5192    3.2082    2.5456 C   0  0  0  0  0  0  0  0  0  0  0  0
   -1.5166    3.3903    2.9518 H   0  0  0  0  0  0  0  0  0  0  0  0
    0.2240    3.3791    3.3257 H   0  0  0  0  0  0  0  0  0  0  0  0
   -0.3477    3.9067    1.7239 H   0  0  0  0  0  0  0  0  0  0  0  0
  5  6  2  0  0  0  0
  5  7  1  0  0  0  0
  2  3  1  0  0  0  0
  2  4  1  0  0  0  0
  2  5  1  0  0  0  0
  1  2  1  0  0  0  0
 26 27  2  0  0  0  0
 26 28  1  0  0  0  0
 23 24  1  0  0  0  0
 23 25  1  0  0  0  0
 20 21  1  0  0  0  0
 20 22  1  0  0  0  0
 20 23  1  0  0  0  0
 17 18  1  0  0  0  0
 17 19  1  0  0  0  0
 17 20  1  0  0  0  0
 14 15  1  0  0  0  0
 14 16  1  0  0  0  0
 14 17  1  0  0  0  0
 11 12  1  0  0  0  0
 11 13  1  0  0  0  0
 11 14  1  0  0  0  0
  9 10  1  0  0  0  0
  9 11  1  0  0  0  0
  9 26  1  0  0  0  0
  7  8  1  0  0  0  0
  7  9  1  0  0  0  0
 30 31  1  0  0  0  0
 30 32  1  0  0  0  0
 30 33  1  0  0  0  0
 28 29  1  0  0  0  0
 28 30  1  0  0  0  0
M  END
$$$$
default_name
  -OEChem-02102213163D

 33 32  0     1  0  0  0  0  0999 V2000
   -3.8420   -3.6918    1.5562 H   0  0  0  0  0  0  0  0  0  0  0  0
   -3.8430   -2.7008    1.1032 C   0  0  0  0  0  0  0  0  0  0  0  0
   -4.5510   -2.0608    1.6242 H   0  0  0  0  0  0  0  0  0  0  0  0
   -4.1140   -2.7798    0.0522 H   0  0  0  0  0  0  0  0  0  0  0  0
   -2.4570   -2.1098    1.2172 C   0  0  0  0  0  0  0  0  0  0  0  0
   -1.5600   -2.7438    1.7572 O   0  0  0  0  0  0  0  0  0  0  0  0
   -2.2870   -0.8898    0.7102 N   0  0  0  0  0  0  0  0  0  0  0  0
   -3.0820   -0.4218    0.2992 H   0  0  0  0  0  0  0  0  0  0  0  0
   -1.0240   -0.1468    0.7262 C   0  0  1  0  0  0  0  0  0  0  0  0
   -0.3583   -0.6100    1.4558 H   0  0  0  0  0  0  0  0  0  0  0  0
   -0.3739   -0.2459   -0.6675 C   0  0  0  0  0  0  0  0  0  0  0  0
   -0.5025    0.7101   -1.1792 H   0  0  0  0  0  0  0  0  0  0  0  0
    0.6953   -0.4300   -0.5534 H   0  0  0  0  0  0  0  0  0  0  0  0
   -0.9864   -1.3469   -1.5473 C   0  0  0  0  0  0  0  0  0  0  0  0
   -1.8143   -0.9354   -2.1252 H   0  0  0  0  0  0  0  0  0  0  0  0
   -0.2249   -1.7241   -2.2324 H   0  0  0  0  0  0  0  0  0  0  0  0
   -1.5106   -2.5044   -0.6898 C   0  0  0  0  0  0  0  0  0  0  0  0
   -0.6946   -2.9219   -0.0993 H   0  0  0  0  0  0  0  0  0  0  0  0
   -2.2888   -2.1372   -0.0201 H   0  0  0  0  0  0  0  0  0  0  0  0
   -2.0907   -3.5943   -1.5891 C   0  0  0  0  0  0  0  0  0  0  0  0
   -2.9180   -3.1844   -2.1663 H   0  0  0  0  0  0  0  0  0  0  0  0
   -1.3197   -3.9497   -2.2707 H   0  0  0  0  0  0  0  0  0  0  0  0
   -2.5813   -4.7302   -0.8000 N   0  0  0  0  0  0  0  0  0  0  0  0
   -2.9690   -5.4229   -1.4235 H   0  0  0  0  0  0  0  0  0  0  0  0
   -1.8109   -5.1344   -0.2868 H   0  0  0  0  0  0  0  0  0  0  0  0
   -1.2712    1.3099    1.1517 C   0  0  0  0  0  0  0  0  0  0  0  0
   -2.2039    1.9448    0.6639 O   0  0  0  0  0  0  0  0  0  0  0  0
   -0.4306    1.8354    2.0503 N   0  0  0  0  0  0  0  0  0  0  0  0
    0.3001    1.2459    2.4139 H   0  0  0  0  0  0  0  0  0  0  0  0
   -0.5192    3.2082    2.5456 C   0  0  0  0  0  0  0  0  0  0  0  0
   -1.5166    3.3903    2.9518 H   0  0  0  0  0  0  0  0  0  0  0  0
    0.2240    3.3791    3.3257 H   0  0  0  0  0  0  0  0  0  0  0  0
   -0.3477    3.9067    1.7239 H   0  0  0  0  0  0  0  0  0  0  0  0
  5  6  2  0  0  0  0
  5  7  1  0  0  0  0
  2  3  1  0  0  0  0
  2  4  1  0  0  0  0
  2  5  1  0  0  0  0
  1  2  1  0  0  0  0
 26 27  2  0  0  0  0
 26 28  1  0  0  0  0
 23 24  1  0  0  0  0
 23 25  1  0  0  0  0
 20 21  1  0  0  0  0
 20 22  1  0  0  0  0
 20 23  1  0  0  0  0
 17 18  1  0  0  0  0
 17 19  1  0  0  0  0
 17 20  1  0  0  0  0
 14 15  1  0  0  0  0
 14 16  1  0  0  0  0
 14 17  1  0  0  0  0
 11 12  1  0  0  0  0
 11 13  1  0  0  0  0
 11 14  1  0  0  0  0
  9 10  1  0  0  0  0
  9 11  1  0  0  0  0
  9 26  1  0  0  0  0
  7  8  1  0  0  0  0
  7  9  1  0  0  0  0
 30 31  1  0  0  0  0
 30 32  1  0  0  0  0
 30 33  1  0  0  0  0
 28 29  1  0  0  0  0
 28 30  1  0  0  0  0
M  END
$$$$
default_name
  -OEChem-02102213163D

 33 32  0     1  0  0  0  0  0999 V2000
   -3.8420   -3.6918    1.5562 H   0  0  0  0  0  0  0  0  0  0  0  0
   -3.8430   -2.7008    1.1032 C   0  0  0  0  0  0  0  0  0  0  0  0
   -4.5510   -2.0608    1.6242 H   0  0  0  0  0  0  0  0  0  0  0  0
   -4.1140   -2.7798    0.0522 H   0  0  0  0  0  0  0  0  0  0  0  0
   -2.4570   -2.1098    1.2172 C   0  0  0  0  0  0  0  0  0  0  0  0
   -1.5600   -2.7438    1.7572 O   0  0  0  0  0  0  0  0  0  0  0  0
   -2.2870   -0.8898    0.7102 N   0  0  0  0  0  0  0  0  0  0  0  0
   -3.0820   -0.4218    0.2992 H   0  0  0  0  0  0  0  0  0  0  0  0
   -1.0240   -0.1468    0.7262 C   0  0  1  0  0  0  0  0  0  0  0  0
   -0.3583   -0.6100    1.4558 H   0  0  0  0  0  0  0  0  0  0  0  0
   -0.3739   -0.2459   -0.6675 C   0  0  0  0  0  0  0  0  0  0  0  0
   -0.5025    0.7101   -1.1792 H   0  0  0  0  0  0  0  0  0  0  0  0
    0.6953   -0.4300   -0.5534 H   0  0  0  0  0  0  0  0  0  0  0  0
   -0.9864   -1.3469   -1.5473 C   0  0  0  0  0  0  0  0  0  0  0  0
   -1.6229   -0.8953   -2.3086 H   0  0  0  0  0  0  0  0  0  0  0  0
   -0.1845   -1.9035   -2.0359 H   0  0  0  0  0  0  0  0  0  0  0  0
   -1.8307   -2.3122   -0.7075 C   0  0  0  0  0  0  0  0  0  0  0  0
   -1.2089   -2.7666    0.0644 H   0  0  0  0  0  0  0  0  0  0  0  0
   -2.6476   -1.7649   -0.2362 H   0  0  0  0  0  0  0  0  0  0  0  0
   -2.4065   -3.4091   -1.6011 C   0  0  0  0  0  0  0  0  0  0  0  0
   -3.0428   -2.9590   -2.3615 H   0  0  0  0  0  0  0  0  0  0  0  0
   -1.5926   -3.9452   -2.0864 H   0  0  0  0  0  0  0  0  0  0  0  0
   -3.2026   -4.3657   -0.8236 N   0  0  0  0  0  0  0  0  0  0  0  0
   -3.5779   -5.0664   -1.4459 H   0  0  0  0  0  0  0  0  0  0  0  0
   -2.6093   -4.8098   -0.1372 H   0  0  0  0  0  0  0  0  0  0  0  0
   -1.2712    1.3099    1.1517 C   0  0  0  0  0  0  0  0  0  0  0  0
   -2.2039    1.9448    0.6639 O   0  0  0  0  0  0  0  0  0  0  0  0
   -0.4306    1.8354    2.0503 N   0  0  0  0  0  0  0  0  0  0  0  0
    0.3001    1.2459    2.4139 H   0  0  0  0  0  0  0  0  0  0  0  0
   -0.5192    3.2082    2.5456 C   0  0  0  0  0  0  0  0  0  0  0  0
   -1.5166    3.3903    2.9518 H   0  0  0  0  0  0  0  0  0  0  0  0
    0.2240    3.3791    3.3257 H   0  0  0  0  0  0  0  0  0  0  0  0
   -0.3477    3.9067    1.7239 H   0  0  0  0  0  0  0  0  0  0  0  0
  5  6  2  0  0  0  0
  5  7  1  0  0  0  0
  2  3  1  0  0  0  0
  2  4  1  0  0  0  0
  2  5  1  0  0  0  0
  1  2  1  0  0  0  0
 26 27  2  0  0  0  0
 26 28  1  0  0  0  0
 23 24  1  0  0  0  0
 23 25  1  0  0  0  0
 20 21  1  0  0  0  0
 20 22  1  0  0  0  0
 20 23  1  0  0  0  0
 17 18  1  0  0  0  0
 17 19  1  0  0  0  0
 17 20  1  0  0  0  0
 14 15  1  0  0  0  0
 14 16  1  0  0  0  0
 14 17  1  0  0  0  0
 11 12  1  0  0  0  0
 11 13  1  0  0  0  0
 11 14  1  0  0  0  0
  9 10  1  0  0  0  0
  9 11  1  0  0  0  0
  9 26  1  0  0  0  0
  7  8  1  0  0  0  0
  7  9  1  0  0  0  0
 30 31  1  0  0  0  0
 30 32  1  0  0  0  0
 30 33  1  0  0  0  0
 28 29  1  0  0  0  0
 28 30  1  0  0  0  0
M  END
$$$$
default_name
  -OEChem-02102213163D

 33 32  0     1  0  0  0  0  0999 V2000
   -3.8420   -3.6918    1.5562 H   0  0  0  0  0  0  0  0  0  0  0  0
   -3.8430   -2.7008    1.1032 C   0  0  0  0  0  0  0  0  0  0  0  0
   -4.5510   -2.0608    1.6242 H   0  0  0  0  0  0  0  0  0  0  0  0
   -4.1140   -2.7798    0.0522 H   0  0  0  0  0  0  0  0  0  0  0  0
   -2.4570   -2.1098    1.2172 C   0  0  0  0  0  0  0  0  0  0  0  0
   -1.5600   -2.7438    1.7572 O   0  0  0  0  0  0  0  0  0  0  0  0
   -2.2870   -0.8898    0.7102 N   0  0  0  0  0  0  0  0  0  0  0  0
   -3.0820   -0.4218    0.2992 H   0  0  0  0  0  0  0  0  0  0  0  0
   -1.0240   -0.1468    0.7262 C   0  0  1  0  0  0  0  0  0  0  0  0
   -0.3583   -0.6100    1.4558 H   0  0  0  0  0  0  0  0  0  0  0  0
   -0.3739   -0.2459   -0.6675 C   0  0  0  0  0  0  0  0  0  0  0  0
   -0.5025    0.7101   -1.1792 H   0  0  0  0  0  0  0  0  0  0  0  0
    0.6953   -0.4300   -0.5534 H   0  0  0  0  0  0  0  0  0  0  0  0
   -0.9864   -1.3469   -1.5473 C   0  0  0  0  0  0  0  0  0  0  0  0
   -1.3981   -0.9039   -2.4545 H   0  0  0  0  0  0  0  0  0  0  0  0
   -0.2086   -2.0625   -1.8202 H   0  0  0  0  0  0  0  0  0  0  0  0
   -2.1081   -2.0809   -0.8039 C   0  0  0  0  0  0  0  0  0  0  0  0
   -1.7131   -2.5234    0.1111 H   0  0  0  0  0  0  0  0  0  0  0  0
   -2.8989   -1.3744   -0.5500 H   0  0  0  0  0  0  0  0  0  0  0  0
   -2.6819   -3.1845   -1.6903 C   0  0  0  0  0  0  0  0  0  0  0  0
   -3.0937   -2.7430   -2.5964 H   0  0  0  0  0  0  0  0  0  0  0  0
   -1.8897   -3.8813   -1.9595 H   0  0  0  0  0  0  0  0  0  0  0  0
   -3.7443   -3.9241   -0.9992 N   0  0  0  0  0  0  0  0  0  0  0  0
   -4.1089   -4.6340   -1.6173 H   0  0  0  0  0  0  0  0  0  0  0  0
   -3.3601   -4.3625   -0.1743 H   0  0  0  0  0  0  0  0  0  0  0  0
   -1.2712    1.3099    1.1517 C   0  0  0  0  0  0  0  0  0  0  0  0
   -2.2039    1.9448    0.6639 O   0  0  0  0  0  0  0  0  0  0  0  0
   -0.4306    1.8354    2.0503 N   0  0  0  0  0  0  0  0  0  0  0  0
    0.3001    1.2459    2.4139 H   0  0  0  0  0  0  0  0  0  0  0  0
   -0.5192    3.2082    2.5456 C   0  0  0  0  0  0  0  0  0  0  0  0
   -1.5166    3.3903    2.9518 H   0  0  0  0  0  0  0  0  0  0  0  0
    0.2240    3.3791    3.3257 H   0  0  0  0  0  0  0  0  0  0  0  0
   -0.3477    3.9067    1.7239 H   0  0  0  0  0  0  0  0  0  0  0  0
  5  6  2  0  0  0  0
  5  7  1  0  0  0  0
  2  3  1  0  0  0  0
  2  4  1  0  0  0  0
  2  5  1  0  0  0  0
  1  2  1  0  0  0  0
 26 27  2  0  0  0  0
 26 28  1  0  0  0  0
 23 24  1  0  0  0  0
 23 25  1  0  0  0  0
 20 21  1  0  0  0  0
 20 22  1  0  0  0  0
 20 23  1  0  0  0  0
 17 18  1  0  0  0  0
 17 19  1  0  0  0  0
 17 20  1  0  0  0  0
 14 15  1  0  0  0  0
 14 16  1  0  0  0  0
 14 17  1  0  0  0  0
 11 12  1  0  0  0  0
 11 13  1  0  0  0  0
 11 14  1  0  0  0  0
  9 10  1  0  0  0  0
  9 11  1  0  0  0  0
  9 26  1  0  0  0  0
  7  8  1  0  0  0  0
  7  9  1  0  0  0  0
 30 31  1  0  0  0  0
 30 32  1  0  0  0  0
 30 33  1  0  0  0  0
 28 29  1  0  0  0  0
 28 30  1  0  0  0  0
M  END
$$$$
default_name
  -OEChem-02102213163D

 33 32  0     1  0  0  0  0  0999 V2000
   -3.8420   -3.6918    1.5562 H   0  0  0  0  0  0  0  0  0  0  0  0
   -3.8430   -2.7008    1.1032 C   0  0  0  0  0  0  0  0  0  0  0  0
   -4.5510   -2.0608    1.6242 H   0  0  0  0  0  0  0  0  0  0  0  0
   -4.1140   -2.7798    0.0522 H   0  0  0  0  0  0  0  0  0  0  0  0
   -2.4570   -2.1098    1.2172 C   0  0  0  0  0  0  0  0  0  0  0  0
   -1.5600   -2.7438    1.7572 O   0  0  0  0  0  0  0  0  0  0  0  0
   -2.2870   -0.8898    0.7102 N   0  0  0  0  0  0  0  0  0  0  0  0
   -3.0820   -0.4218    0.2992 H   0  0  0  0  0  0  0  0  0  0  0  0
   -1.0240   -0.1468    0.7262 C   0  0  1  0  0  0  0  0  0  0  0  0
   -0.3583   -0.6100    1.4558 H   0  0  0  0  0  0  0  0  0  0  0  0
   -0.3739   -0.2459   -0.6675 C   0  0  0  0  0  0  0  0  0  0  0  0
   -0.5025    0.7101   -1.1792 H   0  0  0  0  0  0  0  0  0  0  0  0
    0.6953   -0.4300   -0.5534 H   0  0  0  0  0  0  0  0  0  0  0  0
   -0.9864   -1.3469   -1.5473 C   0  0  0  0  0  0  0  0  0  0  0  0
   -1.1552   -0.9605   -2.5528 H   0  0  0  0  0  0  0  0  0  0  0  0
   -0.2954   -2.1903   -1.5998 H   0  0  0  0  0  0  0  0  0  0  0  0
   -2.3240   -1.8263   -0.9722 C   0  0  0  0  0  0  0  0  0  0  0  0
   -2.1726   -2.2091    0.0376 H   0  0  0  0  0  0  0  0  0  0  0  0
   -3.0256   -0.9923   -0.9399 H   0  0  0  0  0  0  0  0  0  0  0  0
   -2.8981   -2.9361   -1.8508 C   0  0  0  0  0  0  0  0  0  0  0  0
   -3.0674   -2.5509   -2.8550 H   0  0  0  0  0  0  0  0  0  0  0  0
   -2.1908   -3.7625   -1.8986 H   0  0  0  0  0  0  0  0  0  0  0  0
   -4.1696   -3.4353   -1.3148 N   0  0  0  0  0  0  0  0  0  0  0  0
   -4.5261   -4.1554   -1.9259 H   0  0  0  0  0  0  0  0  0  0  0  0
   -4.0122   -3.8231   -0.3955 H   0  0  0  0  0  0  0  0  0  0  0  0
   -1.2712    1.3099    1.1517 C   0  0  0  0  0  0  0  0  0  0  0  0
   -2.2039    1.9448    0.6639 O   0  0  0  0  0  0  0  0  0  0  0  0
   -0.4306    1.8354    2.0503 N   0  0  0  0  0  0  0  0  0  0  0  0
    0.3001    1.2459    2.4139 H   0  0  0  0  0  0  0  0  0  0  0  0
   -0.5192    3.2082    2.5456 C   0  0  0  0  0  0  0  0  0  0  0  0
   -1.5166    3.3903    2.9518 H   0  0  0  0  0  0  0  0  0  0  0  0
    0.2240    3.3791    3.3257 H   0  0  0  0  0  0  0  0  0  0  0  0
   -0.3477    3.9067    1.7239 H   0  0  0  0  0  0  0  0  0  0  0  0
  5  6  2  0  0  0  0
  5  7  1  0  0  0  0
  2  3  1  0  0  0  0
  2  4  1  0  0  0  0
  2  5  1  0  0  0  0
  1  2  1  0  0  0  0
 26 27  2  0  0  0  0
 26 28  1  0  0  0  0
 23 24  1  0  0  0  0
 23 25  1  0  0  0  0
 20 21  1  0  0  0  0
 20 22  1  0  0  0  0
 20 23  1  0  0  0  0
 17 18  1  0  0  0  0
 17 19  1  0  0  0  0
 17 20  1  0  0  0  0
 14 15  1  0  0  0  0
 14 16  1  0  0  0  0
 14 17  1  0  0  0  0
 11 12  1  0  0  0  0
 11 13  1  0  0  0  0
 11 14  1  0  0  0  0
  9 10  1  0  0  0  0
  9 11  1  0  0  0  0
  9 26  1  0  0  0  0
  7  8  1  0  0  0  0
  7  9  1  0  0  0  0
 30 31  1  0  0  0  0
 30 32  1  0  0  0  0
 30 33  1  0  0  0  0
 28 29  1  0  0  0  0
 28 30  1  0  0  0  0
M  END
$$$$
default_name
  -OEChem-02102213163D

 33 32  0     1  0  0  0  0  0999 V2000
   -3.8420   -3.6918    1.5562 H   0  0  0  0  0  0  0  0  0  0  0  0
   -3.8430   -2.7008    1.1032 C   0  0  0  0  0  0  0  0  0  0  0  0
   -4.5510   -2.0608    1.6242 H   0  0  0  0  0  0  0  0  0  0  0  0
   -4.1140   -2.7798    0.0522 H   0  0  0  0  0  0  0  0  0  0  0  0
   -2.4570   -2.1098    1.2172 C   0  0  0  0  0  0  0  0  0  0  0  0
   -1.5600   -2.7438    1.7572 O   0  0  0  0  0  0  0  0  0  0  0  0
   -2.2870   -0.8898    0.7102 N   0  0  0  0  0  0  0  0  0  0  0  0
   -3.0820   -0.4218    0.2992 H   0  0  0  0  0  0  0  0  0  0  0  0
   -1.0240   -0.1468    0.7262 C   0  0  1  0  0  0  0  0  0  0  0  0
   -0.3583   -0.6100    1.4558 H   0  0  0  0  0  0  0  0  0  0  0  0
   -0.3739   -0.2459   -0.6675 C   0  0  0  0  0  0  0  0  0  0  0  0
   -0.5025    0.7101   -1.1792 H   0  0  0  0  0  0  0  0  0  0  0  0
    0.6953   -0.4300   -0.5534 H   0  0  0  0  0  0  0  0  0  0  0  0
   -0.9864   -1.3469   -1.5473 C   0  0  0  0  0  0  0  0  0  0  0  0
   -0.9106   -1.0613   -2.5968 H   0  0  0  0  0  0  0  0  0  0  0  0
   -0.4390   -2.2781   -1.3899 H   0  0  0  0  0  0  0  0  0  0  0  0
   -2.4635   -1.5658   -1.2010 C   0  0  0  0  0  0  0  0  0  0  0  0
   -2.5564   -1.8449   -0.1510 H   0  0  0  0  0  0  0  0  0  0  0  0
   -3.0191   -0.6447   -1.3795 H   0  0  0  0  0  0  0  0  0  0  0  0
   -3.0403   -2.6806   -2.0715 C   0  0  0  0  0  0  0  0  0  0  0  0
   -2.9655   -2.3960   -3.1198 H   0  0  0  0  0  0  0  0  0  0  0  0
   -2.4753   -3.5968   -1.9078 H   0  0  0  0  0  0  0  0  0  0  0  0
   -4.4494   -2.9327   -1.7490 N   0  0  0  0  0  0  0  0  0  0  0  0
   -4.8008   -3.6631   -2.3507 H   0  0  0  0  0  0  0  0  0  0  0  0
   -4.5211   -3.2282   -0.7857 H   0  0  0  0  0  0  0  0  0  0  0  0
   -1.2712    1.3099    1.1517 C   0  0  0  0  0  0  0  0  0  0  0  0
   -2.2039    1.9448    0.6639 O   0  0  0  0  0  0  0  0  0  0  0  0
   -0.4306    1.8354    2.0503 N   0  0  0  0  0  0  0  0  0  0  0  0
    0.3001    1.2459    2.4139 H   0  0  0  0  0  0  0  0  0  0  0  0
   -0.5192    3.2082    2.5456 C   0  0  0  0  0  0  0  0  0  0  0  0
   -1.5166    3.3903    2.9518 H   0  0  0  0  0  0  0  0  0  0  0  0
    0.2240    3.3791    3.3257 H   0  0  0  0  0  0  0  0  0  0  0  0
   -0.3477    3.9067    1.7239 H   0  0  0  0  0  0  0  0  0  0  0  0
  5  6  2  0  0  0  0
  5  7  1  0  0  0  0
  2  3  1  0  0  0  0
  2  4  1  0  0  0  0
  2  5  1  0  0  0  0
  1  2  1  0  0  0  0
 26 27  2  0  0  0  0
 26 28  1  0  0  0  0
 23 24  1  0  0  0  0
 23 25  1  0  0  0  0
 20 21  1  0  0  0  0
 20 22  1  0  0  0  0
 20 23  1  0  0  0  0
 17 18  1  0  0  0  0
 17 19  1  0  0  0  0
 17 20  1  0  0  0  0
 14 15  1  0  0  0  0
 14 16  1  0  0  0  0
 14 17  1  0  0  0  0
 11 12  1  0  0  0  0
 11 13  1  0  0  0  0
 11 14  1  0  0  0  0
  9 10  1  0  0  0  0
  9 11  1  0  0  0  0
  9 26  1  0  0  0  0
  7  8  1  0  0  0  0
  7  9  1  0  0  0  0
 30 31  1  0  0  0  0
 30 32  1  0  0  0  0
 30 33  1  0  0  0  0
 28 29  1  0  0  0  0
 28 30  1  0  0  0  0
M  END
$$$$
default_name
  -OEChem-02102213163D

 33 32  0     1  0  0  0  0  0999 V2000
   -3.8420   -3.6918    1.5562 H   0  0  0  0  0  0  0  0  0  0  0  0
   -3.8430   -2.7008    1.1032 C   0  0  0  0  0  0  0  0  0  0  0  0
   -4.5510   -2.0608    1.6242 H   0  0  0  0  0  0  0  0  0  0  0  0
   -4.1140   -2.7798    0.0522 H   0  0  0  0  0  0  0  0  0  0  0  0
   -2.4570   -2.1098    1.2172 C   0  0  0  0  0  0  0  0  0  0  0  0
   -1.5600   -2.7438    1.7572 O   0  0  0  0  0  0  0  0  0  0  0  0
   -2.2870   -0.8898    0.7102 N   0  0  0  0  0  0  0  0  0  0  0  0
   -3.0820   -0.4218    0.2992 H   0  0  0  0  0  0  0  0  0  0  0  0
   -1.0240   -0.1468    0.7262 C   0  0  1  0  0  0  0  0  0  0  0  0
   -0.3583   -0.6100    1.4558 H   0  0  0  0  0  0  0  0  0  0  0  0
   -0.3739   -0.2459   -0.6675 C   0  0  0  0  0  0  0  0  0  0  0  0
   -0.5025    0.7101   -1.1792 H   0  0  0  0  0  0  0  0  0  0  0  0
    0.6953   -0.4300   -0.5534 H   0  0  0  0  0  0  0  0  0  0  0  0
   -0.9864   -1.3469   -1.5473 C   0  0  0  0  0  0  0  0  0  0  0  0
   -0.6812   -1.1994   -2.5836 H   0  0  0  0  0  0  0  0  0  0  0  0
   -0.6297   -2.3200   -1.2047 H   0  0  0  0  0  0  0  0  0  0  0  0
   -2.5172   -1.3171   -1.4749 C   0  0  0  0  0  0  0  0  0  0  0  0
   -2.8381   -1.4557   -0.4420 H   0  0  0  0  0  0  0  0  0  0  0  0
   -2.8798   -0.3553   -1.8387 H   0  0  0  0  0  0  0  0  0  0  0  0
   -3.0989   -2.4355   -2.3374 C   0  0  0  0  0  0  0  0  0  0  0  0
   -2.7951   -2.2888   -3.3727 H   0  0  0  0  0  0  0  0  0  0  0  0
   -2.7239   -3.3956   -1.9866 H   0  0  0  0  0  0  0  0  0  0  0  0
   -4.5648   -2.4506   -2.2720 N   0  0  0  0  0  0  0  0  0  0  0  0
   -4.9145   -3.1907   -2.8628 H   0  0  0  0  0  0  0  0  0  0  0  0
   -4.8522   -2.6184   -1.3183 H   0  0  0  0  0  0  0  0  0  0  0  0
   -1.2712    1.3099    1.1517 C   0  0  0  0  0  0  0  0  0  0  0  0
   -2.2039    1.9448    0.6639 O   0  0  0  0  0  0  0  0  0  0  0  0
   -0.4306    1.8354    2.0503 N   0  0  0  0  0  0  0  0  0  0  0  0
    0.3001    1.2459    2.4139 H   0  0  0  0  0  0  0  0  0  0  0  0
   -0.5192    3.2082    2.5456 C   0  0  0  0  0  0  0  0  0  0  0  0
   -1.5166    3.3903    2.9518 H   0  0  0  0  0  0  0  0  0  0  0  0
    0.2240    3.3791    3.3257 H   0  0  0  0  0  0  0  0  0  0  0  0
   -0.3477    3.9067    1.7239 H   0  0  0  0  0  0  0  0  0  0  0  0
  5  6  2  0  0  0  0
  5  7  1  0  0  0  0
  2  3  1  0  0  0  0
  2  4  1  0  0  0  0
  2  5  1  0  0  0  0
  1  2  1  0  0  0  0
 26 27  2  0  0  0  0
 26 28  1  0  0  0  0
 23 24  1  0  0  0  0
 23 25  1  0  0  0  0
 20 21  1  0  0  0  0
 20 22  1  0  0  0  0
 20 23  1  0  0  0  0
 17 18  1  0  0  0  0
 17 19  1  0  0  0  0
 17 20  1  0  0  0  0
 14 15  1  0  0  0  0
 14 16  1  0  0  0  0
 14 17  1  0  0  0  0
 11 12  1  0  0  0  0
 11 13  1  0  0  0  0
 11 14  1  0  0  0  0
  9 10  1  0  0  0  0
  9 11  1  0  0  0  0
  9 26  1  0  0  0  0
  7  8  1  0  0  0  0
  7  9  1  0  0  0  0
 30 31  1  0  0  0  0
 30 32  1  0  0  0  0
 30 33  1  0  0  0  0
 28 29  1  0  0  0  0
 28 30  1  0  0  0  0
M  END
$$$$
default_name
  -OEChem-02102213163D

 33 32  0     1  0  0  0  0  0999 V2000
   -3.8420   -3.6918    1.5562 H   0  0  0  0  0  0  0  0  0  0  0  0
   -3.8430   -2.7008    1.1032 C   0  0  0  0  0  0  0  0  0  0  0  0
   -4.5510   -2.0608    1.6242 H   0  0  0  0  0  0  0  0  0  0  0  0
   -4.1140   -2.7798    0.0522 H   0  0  0  0  0  0  0  0  0  0  0  0
   -2.4570   -2.1098    1.2172 C   0  0  0  0  0  0  0  0  0  0  0  0
   -1.5600   -2.7438    1.7572 O   0  0  0  0  0  0  0  0  0  0  0  0
   -2.2870   -0.8898    0.7102 N   0  0  0  0  0  0  0  0  0  0  0  0
   -3.0820   -0.4218    0.2992 H   0  0  0  0  0  0  0  0  0  0  0  0
   -1.0240   -0.1468    0.7262 C   0  0  1  0  0  0  0  0  0  0  0  0
   -0.3583   -0.6100    1.4558 H   0  0  0  0  0  0  0  0  0  0  0  0
   -0.3739   -0.2459   -0.6675 C   0  0  0  0  0  0  0  0  0  0  0  0
   -0.5025    0.7101   -1.1792 H   0  0  0  0  0  0  0  0  0  0  0  0
    0.6953   -0.4300   -0.5534 H   0  0  0  0  0  0  0  0  0  0  0  0
   -0.9864   -1.3469   -1.5473 C   0  0  0  0  0  0  0  0  0  0  0  0
   -0.4826   -1.3655   -2.5141 H   0  0  0  0  0  0  0  0  0  0  0  0
   -0.8545   -2.3131   -1.0569 H   0  0  0  0  0  0  0  0  0  0  0  0
   -2.4815   -1.0972   -1.7750 C   0  0  0  0  0  0  0  0  0  0  0  0
   -2.9985   -1.0681   -0.8154 H   0  0  0  0  0  0  0  0  0  0  0  0
   -2.6171   -0.1437   -2.2863 H   0  0  0  0  0  0  0  0  0  0  0  0
   -3.0698   -2.2176   -2.6304 C   0  0  0  0  0  0  0  0  0  0  0  0
   -2.5677   -2.2366   -3.5963 H   0  0  0  0  0  0  0  0  0  0  0  0
   -2.9195   -3.1725   -2.1296 H   0  0  0  0  0  0  0  0  0  0  0  0
   -4.5077   -2.0218   -2.8484 N   0  0  0  0  0  0  0  0  0  0  0  0
   -4.8593   -2.7704   -3.4272 H   0  0  0  0  0  0  0  0  0  0  0  0
   -4.9828   -2.0353   -1.9572 H   0  0  0  0  0  0  0  0  0  0  0  0
   -1.2712    1.3099    1.1517 C   0  0  0  0  0  0  0  0  0  0  0  0
   -2.2039    1.9448    0.6639 O   0  0  0  0  0  0  0  0  0  0  0  0
   -0.4306    1.8354    2.0503 N   0  0  0  0  0  0  0  0  0  0  0  0
    0.3001    1.2459    2.4139 H   0  0  0  0  0  0  0  0  0  0  0  0
   -0.5192    3.2082    2.5456 C   0  0  0  0  0  0  0  0  0  0  0  0
   -1.5166    3.3903    2.9518 H   0  0  0  0  0  0  0  0  0  0  0  0
    0.2240    3.3791    3.3257 H   0  0  0  0  0  0  0  0  0  0  0  0
   -0.3477    3.9067    1.7239 H   0  0  0  0  0  0  0  0  0  0  0  0
  5  6  2  0  0  0  0
  5  7  1  0  0  0  0
  2  3  1  0  0  0  0
  2  4  1  0  0  0  0
  2  5  1  0  0  0  0
  1  2  1  0  0  0  0
 26 27  2  0  0  0  0
 26 28  1  0  0  0  0
 23 24  1  0  0  0  0
 23 25  1  0  0  0  0
 20 21  1  0  0  0  0
 20 22  1  0  0  0  0
 20 23  1  0  0  0  0
 17 18  1  0  0  0  0
 17 19  1  0  0  0  0
 17 20  1  0  0  0  0
 14 15  1  0  0  0  0
 14 16  1  0  0  0  0
 14 17  1  0  0  0  0
 11 12  1  0  0  0  0
 11 13  1  0  0  0  0
 11 14  1  0  0  0  0
  9 10  1  0  0  0  0
  9 11  1  0  0  0  0
  9 26  1  0  0  0  0
  7  8  1  0  0  0  0
  7  9  1  0  0  0  0
 30 31  1  0  0  0  0
 30 32  1  0  0  0  0
 30 33  1  0  0  0  0
 28 29  1  0  0  0  0
 28 30  1  0  0  0  0
M  END
$$$$
default_name
  -OEChem-02102213163D

 33 32  0     1  0  0  0  0  0999 V2000
   -3.8420   -3.6918    1.5562 H   0  0  0  0  0  0  0  0  0  0  0  0
   -3.8430   -2.7008    1.1032 C   0  0  0  0  0  0  0  0  0  0  0  0
   -4.5510   -2.0608    1.6242 H   0  0  0  0  0  0  0  0  0  0  0  0
   -4.1140   -2.7798    0.0522 H   0  0  0  0  0  0  0  0  0  0  0  0
   -2.4570   -2.1098    1.2172 C   0  0  0  0  0  0  0  0  0  0  0  0
   -1.5600   -2.7438    1.7572 O   0  0  0  0  0  0  0  0  0  0  0  0
   -2.2870   -0.8898    0.7102 N   0  0  0  0  0  0  0  0  0  0  0  0
   -3.0820   -0.4218    0.2992 H   0  0  0  0  0  0  0  0  0  0  0  0
   -1.0240   -0.1468    0.7262 C   0  0  1  0  0  0  0  0  0  0  0  0
   -0.3583   -0.6100    1.4558 H   0  0  0  0  0  0  0  0  0  0  0  0
   -0.3739   -0.2459   -0.6675 C   0  0  0  0  0  0  0  0  0  0  0  0
   -0.5025    0.7101   -1.1792 H   0  0  0  0  0  0  0  0  0  0  0  0
    0.6953   -0.4300   -0.5534 H   0  0  0  0  0  0  0  0  0  0  0  0
   -0.9864   -1.3469   -1.5473 C   0  0  0  0  0  0  0  0  0  0  0  0
   -0.3282   -1.5482   -2.3929 H   0  0  0  0  0  0  0  0  0  0  0  0
   -1.0980   -2.2579   -0.9565 H   0  0  0  0  0  0  0  0  0  0  0  0
   -2.3588   -0.9210   -2.0809 C   0  0  0  0  0  0  0  0  0  0  0  0
   -3.0269   -0.7084   -1.2458 H   0  0  0  0  0  0  0  0  0  0  0  0
   -2.2491   -0.0244   -2.6917 H   0  0  0  0  0  0  0  0  0  0  0  0
   -2.9552   -2.0415   -2.9305 C   0  0  0  0  0  0  0  0  0  0  0  0
   -2.2988   -2.2429   -3.7756 H   0  0  0  0  0  0  0  0  0  0  0  0
   -3.0489   -2.9428   -2.3270 H   0  0  0  0  0  0  0  0  0  0  0  0
   -4.2822   -1.6754   -3.4388 N   0  0  0  0  0  0  0  0  0  0  0  0
   -4.6391   -2.4307   -4.0055 H   0  0  0  0  0  0  0  0  0  0  0  0
   -4.9042   -1.5186   -2.6586 H   0  0  0  0  0  0  0  0  0  0  0  0
   -1.2712    1.3099    1.1517 C   0  0  0  0  0  0  0  0  0  0  0  0
   -2.2039    1.9448    0.6639 O   0  0  0  0  0  0  0  0  0  0  0  0
   -0.4306    1.8354    2.0503 N   0  0  0  0  0  0  0  0  0  0  0  0
    0.3001    1.2459    2.4139 H   0  0  0  0  0  0  0  0  0  0  0  0
   -0.5192    3.2082    2.5456 C   0  0  0  0  0  0  0  0  0  0  0  0
   -1.5166    3.3903    2.9518 H   0  0  0  0  0  0  0  0  0  0  0  0
    0.2240    3.3791    3.3257 H   0  0  0  0  0  0  0  0  0  0  0  0
   -0.3477    3.9067    1.7239 H   0  0  0  0  0  0  0  0  0  0  0  0
  5  6  2  0  0  0  0
  5  7  1  0  0  0  0
  2  3  1  0  0  0  0
  2  4  1  0  0  0  0
  2  5  1  0  0  0  0
  1  2  1  0  0  0  0
 26 27  2  0  0  0  0
 26 28  1  0  0  0  0
 23 24  1  0  0  0  0
 23 25  1  0  0  0  0
 20 21  1  0  0  0  0
 20 22  1  0  0  0  0
 20 23  1  0  0  0  0
 17 18  1  0  0  0  0
 17 19  1  0  0  0  0
 17 20  1  0  0  0  0
 14 15  1  0  0  0  0
 14 16  1  0  0  0  0
 14 17  1  0  0  0  0
 11 12  1  0  0  0  0
 11 13  1  0  0  0  0
 11 14  1  0  0  0  0
  9 10  1  0  0  0  0
  9 11  1  0  0  0  0
  9 26  1  0  0  0  0
  7  8  1  0  0  0  0
  7  9  1  0  0  0  0
 30 31  1  0  0  0  0
 30 32  1  0  0  0  0
 30 33  1  0  0  0  0
 28 29  1  0  0  0  0
 28 30  1  0  0  0  0
M  END
$$$$
default_name
  -OEChem-02102213163D

 33 32  0     1  0  0  0  0  0999 V2000
   -3.8420   -3.6918    1.5562 H   0  0  0  0  0  0  0  0  0  0  0  0
   -3.8430   -2.7008    1.1032 C   0  0  0  0  0  0  0  0  0  0  0  0
   -4.5510   -2.0608    1.6242 H   0  0  0  0  0  0  0  0  0  0  0  0
   -4.1140   -2.7798    0.0522 H   0  0  0  0  0  0  0  0  0  0  0  0
   -2.4570   -2.1098    1.2172 C   0  0  0  0  0  0  0  0  0  0  0  0
   -1.5600   -2.7438    1.7572 O   0  0  0  0  0  0  0  0  0  0  0  0
   -2.2870   -0.8898    0.7102 N   0  0  0  0  0  0  0  0  0  0  0  0
   -3.0820   -0.4218    0.2992 H   0  0  0  0  0  0  0  0  0  0  0  0
   -1.0240   -0.1468    0.7262 C   0  0  1  0  0  0  0  0  0  0  0  0
   -0.3583   -0.6100    1.4558 H   0  0  0  0  0  0  0  0  0  0  0  0
   -0.3739   -0.2459   -0.6675 C   0  0  0  0  0  0  0  0  0  0  0  0
   -0.5025    0.7101   -1.1792 H   0  0  0  0  0  0  0  0  0  0  0  0
    0.6953   -0.4300   -0.5534 H   0  0  0  0  0  0  0  0  0  0  0  0
   -0.9864   -1.3469   -1.5473 C   0  0  0  0  0  0  0  0  0  0  0  0
   -0.2286   -1.7350   -2.2284 H   0  0  0  0  0  0  0  0  0  0  0  0
   -1.3436   -2.1582   -0.9103 H   0  0  0  0  0  0  0  0  0  0  0  0
   -2.1574   -0.8006   -2.3719 C   0  0  0  0  0  0  0  0  0  0  0  0
   -2.9211   -0.4012   -1.7039 H   0  0  0  0  0  0  0  0  0  0  0  0
   -1.8007   -0.0056   -3.0274 H   0  0  0  0  0  0  0  0  0  0  0  0
   -2.7627   -1.9195   -3.2173 C   0  0  0  0  0  0  0  0  0  0  0  0
   -2.0067   -2.3074   -3.8982 H   0  0  0  0  0  0  0  0  0  0  0  0
   -3.1033   -2.7221   -2.5653 H   0  0  0  0  0  0  0  0  0  0  0  0
   -3.9035   -1.4353   -4.0030 N   0  0  0  0  0  0  0  0  0  0  0  0
   -4.2688   -2.1950   -4.5583 H   0  0  0  0  0  0  0  0  0  0  0  0
   -4.6215   -1.1035   -3.3748 H   0  0  0  0  0  0  0  0  0  0  0  0
   -1.2712    1.3099    1.1517 C   0  0  0  0  0  0  0  0  0  0  0  0
   -2.2039    1.9448    0.6639 O   0  0  0  0  0  0  0  0  0  0  0  0
   -0.4306    1.8354    2.0503 N   0  0  0  0  0  0  0  0  0  0  0  0
    0.3001    1.2459    2.4139 H   0  0  0  0  0  0  0  0  0  0  0  0
   -0.5192    3.2082    2.5456 C   0  0  0  0  0  0  0  0  0  0  0  0
   -1.5166    3.3903    2.9518 H   0  0  0  0  0  0  0  0  0  0  0  0
    0.2240    3.3791    3.3257 H   0  0  0  0  0  0  0  0  0  0  0  0
   -0.3477    3.9067    1.7239 H   0  0  0  0  0  0  0  0  0  0  0  0
  5  6  2  0  0  0  0
  5  7  1  0  0  0  0
  2  3  1  0  0  0  0
  2  4  1  0  0  0  0
  2  5  1  0  0  0  0
  1  2  1  0  0  0  0
 26 27  2  0  0  0  0
 26 28  1  0  0  0  0
 23 24  1  0  0  0  0
 23 25  1  0  0  0  0
 20 21  1  0  0  0  0
 20 22  1  0  0  0  0
 20 23  1  0  0  0  0
 17 18  1  0  0  0  0
 17 19  1  0  0  0  0
 17 20  1  0  0  0  0
 14 15  1  0  0  0  0
 14 16  1  0  0  0  0
 14 17  1  0  0  0  0
 11 12  1  0  0  0  0
 11 13  1  0  0  0  0
 11 14  1  0  0  0  0
  9 10  1  0  0  0  0
  9 11  1  0  0  0  0
  9 26  1  0  0  0  0
  7  8  1  0  0  0  0
  7  9  1  0  0  0  0
 30 31  1  0  0  0  0
 30 32  1  0  0  0  0
 30 33  1  0  0  0  0
 28 29  1  0  0  0  0
 28 30  1  0  0  0  0
M  END
$$$$
default_name
  -OEChem-02102213163D

 33 32  0     1  0  0  0  0  0999 V2000
   -3.8420   -3.6918    1.5562 H   0  0  0  0  0  0  0  0  0  0  0  0
   -3.8430   -2.7008    1.1032 C   0  0  0  0  0  0  0  0  0  0  0  0
   -4.5510   -2.0608    1.6242 H   0  0  0  0  0  0  0  0  0  0  0  0
   -4.1140   -2.7798    0.0522 H   0  0  0  0  0  0  0  0  0  0  0  0
   -2.4570   -2.1098    1.2172 C   0  0  0  0  0  0  0  0  0  0  0  0
   -1.5600   -2.7438    1.7572 O   0  0  0  0  0  0  0  0  0  0  0  0
   -2.2870   -0.8898    0.7102 N   0  0  0  0  0  0  0  0  0  0  0  0
   -3.0820   -0.4218    0.2992 H   0  0  0  0  0  0  0  0  0  0  0  0
   -1.0240   -0.1468    0.7262 C   0  0  1  0  0  0  0  0  0  0  0  0
   -0.3583   -0.6100    1.4558 H   0  0  0  0  0  0  0  0  0  0  0  0
   -0.3739   -0.2459   -0.6675 C   0  0  0  0  0  0  0  0  0  0  0  0
   -0.5025    0.7101   -1.1792 H   0  0  0  0  0  0  0  0  0  0  0  0
    0.6953   -0.4300   -0.5534 H   0  0  0  0  0  0  0  0  0  0  0  0
   -0.9864   -1.3469   -1.5473 C   0  0  0  0  0  0  0  0  0  0  0  0
   -0.1906   -1.9133   -2.0318 H   0  0  0  0  0  0  0  0  0  0  0  0
   -1.5746   -2.0207   -0.9216 H   0  0  0  0  0  0  0  0  0  0  0  0
   -1.8910   -0.7441   -2.6280 C   0  0  0  0  0  0  0  0  0  0  0  0
   -2.6885   -0.1673   -2.1585 H   0  0  0  0  0  0  0  0  0  0  0  0
   -1.3026   -0.0885   -3.2705 H   0  0  0  0  0  0  0  0  0  0  0  0
   -2.5054   -1.8597   -3.4712 C   0  0  0  0  0  0  0  0  0  0  0  0
   -1.7115   -2.4255   -3.9559 H   0  0  0  0  0  0  0  0  0  0  0  0
   -3.0789   -2.5255   -2.8284 H   0  0  0  0  0  0  0  0  0  0  0  0
   -3.3975   -1.3176   -4.5025 N   0  0  0  0  0  0  0  0  0  0  0  0
   -3.7737   -2.0792   -5.0480 H   0  0  0  0  0  0  0  0  0  0  0  0
   -4.1542   -0.8183   -4.0570 H   0  0  0  0  0  0  0  0  0  0  0  0
   -1.2712    1.3099    1.1517 C   0  0  0  0  0  0  0  0  0  0  0  0
   -2.2039    1.9448    0.6639 O   0  0  0  0  0  0  0  0  0  0  0  0
   -0.4306    1.8354    2.0503 N   0  0  0  0  0  0  0  0  0  0  0  0
    0.3001    1.2459    2.4139 H   0  0  0  0  0  0  0  0  0  0  0  0
   -0.5192    3.2082    2.5456 C   0  0  0  0  0  0  0  0  0  0  0  0
   -1.5166    3.3903    2.9518 H   0  0  0  0  0  0  0  0  0  0  0  0
    0.2240    3.3791    3.3257 H   0  0  0  0  0  0  0  0  0  0  0  0
   -0.3477    3.9067    1.7239 H   0  0  0  0  0  0  0  0  0  0  0  0
  5  6  2  0  0  0  0
  5  7  1  0  0  0  0
  2  3  1  0  0  0  0
  2  4  1  0  0  0  0
  2  5  1  0  0  0  0
  1  2  1  0  0  0  0
 26 27  2  0  0  0  0
 26 28  1  0  0  0  0
 23 24  1  0  0  0  0
 23 25  1  0  0  0  0
 20 21  1  0  0  0  0
 20 22  1  0  0  0  0
 20 23  1  0  0  0  0
 17 18  1  0  0  0  0
 17 19  1  0  0  0  0
 17 20  1  0  0  0  0
 14 15  1  0  0  0  0
 14 16  1  0  0  0  0
 14 17  1  0  0  0  0
 11 12  1  0  0  0  0
 11 13  1  0  0  0  0
 11 14  1  0  0  0  0
  9 10  1  0  0  0  0
  9 11  1  0  0  0  0
  9 26  1  0  0  0  0
  7  8  1  0  0  0  0
  7  9  1  0  0  0  0
 30 31  1  0  0  0  0
 30 32  1  0  0  0  0
 30 33  1  0  0  0  0
 28 29  1  0  0  0  0
 28 30  1  0  0  0  0
M  END
$$$$
default_name
  -OEChem-02102213163D

 33 32  0     1  0  0  0  0  0999 V2000
   -3.8420   -3.6918    1.5562 H   0  0  0  0  0  0  0  0  0  0  0  0
   -3.8430   -2.7008    1.1032 C   0  0  0  0  0  0  0  0  0  0  0  0
   -4.5510   -2.0608    1.6242 H   0  0  0  0  0  0  0  0  0  0  0  0
   -4.1140   -2.7798    0.0522 H   0  0  0  0  0  0  0  0  0  0  0  0
   -2.4570   -2.1098    1.2172 C   0  0  0  0  0  0  0  0  0  0  0  0
   -1.5600   -2.7438    1.7572 O   0  0  0  0  0  0  0  0  0  0  0  0
   -2.2870   -0.8898    0.7102 N   0  0  0  0  0  0  0  0  0  0  0  0
   -3.0820   -0.4218    0.2992 H   0  0  0  0  0  0  0  0  0  0  0  0
   -1.0240   -0.1468    0.7262 C   0  0  1  0  0  0  0  0  0  0  0  0
   -0.3583   -0.6100    1.4558 H   0  0  0  0  0  0  0  0  0  0  0  0
   -0.3739   -0.2459   -0.6675 C   0  0  0  0  0  0  0  0  0  0  0  0
   -0.5025    0.7101   -1.1792 H   0  0  0  0  0  0  0  0  0  0  0  0
    0.6953   -0.4300   -0.5534 H   0  0  0  0  0  0  0  0  0  0  0  0
   -0.9864   -1.3469   -1.5473 C   0  0  0  0  0  0  0  0  0  0  0  0
   -0.2167   -2.0708   -1.8164 H   0  0  0  0  0  0  0  0  0  0  0  0
   -1.7753   -1.8548   -0.9895 H   0  0  0  0  0  0  0  0  0  0  0  0
   -1.5779   -0.7554   -2.8318 C   0  0  0  0  0  0  0  0  0  0  0  0
   -2.3448   -0.0228   -2.5786 H   0  0  0  0  0  0  0  0  0  0  0  0
   -0.7886   -0.2674   -3.4044 H   0  0  0  0  0  0  0  0  0  0  0  0
   -2.2010   -1.8662   -3.6749 C   0  0  0  0  0  0  0  0  0  0  0  0
   -1.4331   -2.5894   -3.9446 H   0  0  0  0  0  0  0  0  0  0  0  0
   -2.9774   -2.3663   -3.0983 H   0  0  0  0  0  0  0  0  0  0  0  0
   -2.7987   -1.3304   -4.9034 N   0  0  0  0  0  0  0  0  0  0  0  0
   -3.1874   -2.0912   -5.4411 H   0  0  0  0  0  0  0  0  0  0  0  0
   -3.5340   -0.6824   -4.6588 H   0  0  0  0  0  0  0  0  0  0  0  0
   -1.2712    1.3099    1.1517 C   0  0  0  0  0  0  0  0  0  0  0  0
   -2.2039    1.9448    0.6639 O   0  0  0  0  0  0  0  0  0  0  0  0
   -0.4306    1.8354    2.0503 N   0  0  0  0  0  0  0  0  0  0  0  0
    0.3001    1.2459    2.4139 H   0  0  0  0  0  0  0  0  0  0  0  0
   -0.5192    3.2082    2.5456 C   0  0  0  0  0  0  0  0  0  0  0  0
   -1.5166    3.3903    2.9518 H   0  0  0  0  0  0  0  0  0  0  0  0
    0.2240    3.3791    3.3257 H   0  0  0  0  0  0  0  0  0  0  0  0
   -0.3477    3.9067    1.7239 H   0  0  0  0  0  0  0  0  0  0  0  0
  5  6  2  0  0  0  0
  5  7  1  0  0  0  0
  2  3  1  0  0  0  0
  2  4  1  0  0  0  0
  2  5  1  0  0  0  0
  1  2  1  0  0  0  0
 26 27  2  0  0  0  0
 26 28  1  0  0  0  0
 23 24  1  0  0  0  0
 23 25  1  0  0  0  0
 20 21  1  0  0  0  0
 20 22  1  0  0  0  0
 20 23  1  0  0  0  0
 17 18  1  0  0  0  0
 17 19  1  0  0  0  0
 17 20  1  0  0  0  0
 14 15  1  0  0  0  0
 14 16  1  0  0  0  0
 14 17  1  0  0  0  0
 11 12  1  0  0  0  0
 11 13  1  0  0  0  0
 11 14  1  0  0  0  0
  9 10  1  0  0  0  0
  9 11  1  0  0  0  0
  9 26  1  0  0  0  0
  7  8  1  0  0  0  0
  7  9  1  0  0  0  0
 30 31  1  0  0  0  0
 30 32  1  0  0  0  0
 30 33  1  0  0  0  0
 28 29  1  0  0  0  0
 28 30  1  0  0  0  0
M  END
$$$$
default_name
  -OEChem-02102213163D

 33 32  0     1  0  0  0  0  0999 V2000
   -3.8420   -3.6918    1.5562 H   0  0  0  0  0  0  0  0  0  0  0  0
   -3.8430   -2.7008    1.1032 C   0  0  0  0  0  0  0  0  0  0  0  0
   -4.5510   -2.0608    1.6242 H   0  0  0  0  0  0  0  0  0  0  0  0
   -4.1140   -2.7798    0.0522 H   0  0  0  0  0  0  0  0  0  0  0  0
   -2.4570   -2.1098    1.2172 C   0  0  0  0  0  0  0  0  0  0  0  0
   -1.5600   -2.7438    1.7572 O   0  0  0  0  0  0  0  0  0  0  0  0
   -2.2870   -0.8898    0.7102 N   0  0  0  0  0  0  0  0  0  0  0  0
   -3.0820   -0.4218    0.2992 H   0  0  0  0  0  0  0  0  0  0  0  0
   -1.0240   -0.1468    0.7262 C   0  0  1  0  0  0  0  0  0  0  0  0
   -0.3583   -0.6100    1.4558 H   0  0  0  0  0  0  0  0  0  0  0  0
   -0.3739   -0.2459   -0.6675 C   0  0  0  0  0  0  0  0  0  0  0  0
   -0.5025    0.7101   -1.1792 H   0  0  0  0  0  0  0  0  0  0  0  0
    0.6953   -0.4300   -0.5534 H   0  0  0  0  0  0  0  0  0  0  0  0
   -0.9864   -1.3469   -1.5473 C   0  0  0  0  0  0  0  0  0  0  0  0
   -0.3053   -2.1969   -1.5970 H   0  0  0  0  0  0  0  0  0  0  0  0
   -1.9320   -1.6718   -1.1094 H   0  0  0  0  0  0  0  0  0  0  0  0
   -1.2393   -0.8338   -2.9694 C   0  0  0  0  0  0  0  0  0  0  0  0
   -1.9136    0.0225   -2.9355 H   0  0  0  0  0  0  0  0  0  0  0  0
   -0.2939   -0.5302   -3.4199 H   0  0  0  0  0  0  0  0  0  0  0  0
   -1.8702   -1.9386   -3.8146 C   0  0  0  0  0  0  0  0  0  0  0  0
   -1.1905   -2.7878   -3.8652 H   0  0  0  0  0  0  0  0  0  0  0  0
   -2.8057   -2.2554   -3.3565 H   0  0  0  0  0  0  0  0  0  0  0  0
   -2.1479   -1.4728   -5.1781 N   0  0  0  0  0  0  0  0  0  0  0  0
   -2.5501   -2.2302   -5.7108 H   0  0  0  0  0  0  0  0  0  0  0  0
   -2.8032   -0.7052   -5.1390 H   0  0  0  0  0  0  0  0  0  0  0  0
   -1.2712    1.3099    1.1517 C   0  0  0  0  0  0  0  0  0  0  0  0
   -2.2039    1.9448    0.6639 O   0  0  0  0  0  0  0  0  0  0  0  0
   -0.4306    1.8354    2.0503 N   0  0  0  0  0  0  0  0  0  0  0  0
    0.3001    1.2459    2.4139 H   0  0  0  0  0  0  0  0  0  0  0  0
   -0.5192    3.2082    2.5456 C   0  0  0  0  0  0  0  0  0  0  0  0
   -1.5166    3.3903    2.9518 H   0  0  0  0  0  0  0  0  0  0  0  0
    0.2240    3.3791    3.3257 H   0  0  0  0  0  0  0  0  0  0  0  0
   -0.3477    3.9067    1.7239 H   0  0  0  0  0  0  0  0  0  0  0  0
  5  6  2  0  0  0  0
  5  7  1  0  0  0  0
  2  3  1  0  0  0  0
  2  4  1  0  0  0  0
  2  5  1  0  0  0  0
  1  2  1  0  0  0  0
 26 27  2  0  0  0  0
 26 28  1  0  0  0  0
 23 24  1  0  0  0  0
 23 25  1  0  0  0  0
 20 21  1  0  0  0  0
 20 22  1  0  0  0  0
 20 23  1  0  0  0  0
 17 18  1  0  0  0  0
 17 19  1  0  0  0  0
 17 20  1  0  0  0  0
 14 15  1  0  0  0  0
 14 16  1  0  0  0  0
 14 17  1  0  0  0  0
 11 12  1  0  0  0  0
 11 13  1  0  0  0  0
 11 14  1  0  0  0  0
  9 10  1  0  0  0  0
  9 11  1  0  0  0  0
  9 26  1  0  0  0  0
  7  8  1  0  0  0  0
  7  9  1  0  0  0  0
 30 31  1  0  0  0  0
 30 32  1  0  0  0  0
 30 33  1  0  0  0  0
 28 29  1  0  0  0  0
 28 30  1  0  0  0  0
M  END
$$$$
default_name
  -OEChem-02102213163D

 33 32  0     1  0  0  0  0  0999 V2000
   -3.8420   -3.6918    1.5562 H   0  0  0  0  0  0  0  0  0  0  0  0
   -3.8430   -2.7008    1.1032 C   0  0  0  0  0  0  0  0  0  0  0  0
   -4.5510   -2.0608    1.6242 H   0  0  0  0  0  0  0  0  0  0  0  0
   -4.1140   -2.7798    0.0522 H   0  0  0  0  0  0  0  0  0  0  0  0
   -2.4570   -2.1098    1.2172 C   0  0  0  0  0  0  0  0  0  0  0  0
   -1.5600   -2.7438    1.7572 O   0  0  0  0  0  0  0  0  0  0  0  0
   -2.2870   -0.8898    0.7102 N   0  0  0  0  0  0  0  0  0  0  0  0
   -3.0820   -0.4218    0.2992 H   0  0  0  0  0  0  0  0  0  0  0  0
   -1.0240   -0.1468    0.7262 C   0  0  1  0  0  0  0  0  0  0  0  0
   -0.3583   -0.6100    1.4558 H   0  0  0  0  0  0  0  0  0  0  0  0
   -0.3739   -0.2459   -0.6675 C   0  0  0  0  0  0  0  0  0  0  0  0
   -0.5025    0.7101   -1.1792 H   0  0  0  0  0  0  0  0  0  0  0  0
    0.6953   -0.4300   -0.5534 H   0  0  0  0  0  0  0  0  0  0  0  0
   -0.9864   -1.3469   -1.5473 C   0  0  0  0  0  0  0  0  0  0  0  0
   -0.4502   -2.2829   -1.3885 H   0  0  0  0  0  0  0  0  0  0  0  0
   -2.0340   -1.4842   -1.2732 H   0  0  0  0  0  0  0  0  0  0  0  0
   -0.8984   -0.9738   -3.0314 C   0  0  0  0  0  0  0  0  0  0  0  0
   -1.4241   -0.0344   -3.2050 H   0  0  0  0  0  0  0  0  0  0  0  0
    0.1479   -0.8590   -3.3160 H   0  0  0  0  0  0  0  0  0  0  0  0
   -1.5355   -2.0720   -3.8807 C   0  0  0  0  0  0  0  0  0  0  0  0
   -1.0004   -3.0071   -3.7231 H   0  0  0  0  0  0  0  0  0  0  0  0
   -2.5756   -2.2004   -3.5856 H   0  0  0  0  0  0  0  0  0  0  0  0
   -1.4894   -1.7352   -5.3082 N   0  0  0  0  0  0  0  0  0  0  0  0
   -1.9050   -2.4867   -5.8388 H   0  0  0  0  0  0  0  0  0  0  0  0
   -2.0117   -0.8850   -5.4650 H   0  0  0  0  0  0  0  0  0  0  0  0
   -1.2712    1.3099    1.1517 C   0  0  0  0  0  0  0  0  0  0  0  0
   -2.2039    1.9448    0.6639 O   0  0  0  0  0  0  0  0  0  0  0  0
   -0.4306    1.8354    2.0503 N   0  0  0  0  0  0  0  0  0  0  0  0
    0.3001    1.2459    2.4139 H   0  0  0  0  0  0  0  0  0  0  0  0
   -0.5192    3.2082    2.5456 C   0  0  0  0  0  0  0  0  0  0  0  0
   -1.5166    3.3903    2.9518 H   0  0  0  0  0  0  0  0  0  0  0  0
    0.2240    3.3791    3.3257 H   0  0  0  0  0  0  0  0  0  0  0  0
   -0.3477    3.9067    1.7239 H   0  0  0  0  0  0  0  0  0  0  0  0
  5  6  2  0  0  0  0
  5  7  1  0  0  0  0
  2  3  1  0  0  0  0
  2  4  1  0  0  0  0
  2  5  1  0  0  0  0
  1  2  1  0  0  0  0
 26 27  2  0  0  0  0
 26 28  1  0  0  0  0
 23 24  1  0  0  0  0
 23 25  1  0  0  0  0
 20 21  1  0  0  0  0
 20 22  1  0  0  0  0
 20 23  1  0  0  0  0
 17 18  1  0  0  0  0
 17 19  1  0  0  0  0
 17 20  1  0  0  0  0
 14 15  1  0  0  0  0
 14 16  1  0  0  0  0
 14 17  1  0  0  0  0
 11 12  1  0  0  0  0
 11 13  1  0  0  0  0
 11 14  1  0  0  0  0
  9 10  1  0  0  0  0
  9 11  1  0  0  0  0
  9 26  1  0  0  0  0
  7  8  1  0  0  0  0
  7  9  1  0  0  0  0
 30 31  1  0  0  0  0
 30 32  1  0  0  0  0
 30 33  1  0  0  0  0
 28 29  1  0  0  0  0
 28 30  1  0  0  0  0
M  END
$$$$
default_name
  -OEChem-02102213163D

 33 32  0     1  0  0  0  0  0999 V2000
   -3.8420   -3.6918    1.5562 H   0  0  0  0  0  0  0  0  0  0  0  0
   -3.8430   -2.7008    1.1032 C   0  0  0  0  0  0  0  0  0  0  0  0
   -4.5510   -2.0608    1.6242 H   0  0  0  0  0  0  0  0  0  0  0  0
   -4.1140   -2.7798    0.0522 H   0  0  0  0  0  0  0  0  0  0  0  0
   -2.4570   -2.1098    1.2172 C   0  0  0  0  0  0  0  0  0  0  0  0
   -1.5600   -2.7438    1.7572 O   0  0  0  0  0  0  0  0  0  0  0  0
   -2.2870   -0.8898    0.7102 N   0  0  0  0  0  0  0  0  0  0  0  0
   -3.0820   -0.4218    0.2992 H   0  0  0  0  0  0  0  0  0  0  0  0
   -1.0240   -0.1468    0.7262 C   0  0  1  0  0  0  0  0  0  0  0  0
   -0.3583   -0.6100    1.4558 H   0  0  0  0  0  0  0  0  0  0  0  0
   -0.3739   -0.2459   -0.6675 C   0  0  0  0  0  0  0  0  0  0  0  0
   -0.5025    0.7101   -1.1792 H   0  0  0  0  0  0  0  0  0  0  0  0
    0.6953   -0.4300   -0.5534 H   0  0  0  0  0  0  0  0  0  0  0  0
   -0.9864   -1.3469   -1.5473 C   0  0  0  0  0  0  0  0  0  0  0  0
   -0.6416   -2.3231   -1.2050 H   0  0  0  0  0  0  0  0  0  0  0  0
   -2.0743   -1.3048   -1.4696 H   0  0  0  0  0  0  0  0  0  0  0  0
   -0.5783   -1.1661   -3.0137 C   0  0  0  0  0  0  0  0  0  0  0  0
   -0.9098   -0.1898   -3.3686 H   0  0  0  0  0  0  0  0  0  0  0  0
    0.5067   -1.2313   -3.0999 H   0  0  0  0  0  0  0  0  0  0  0  0
   -1.2197   -2.2573   -3.8687 C   0  0  0  0  0  0  0  0  0  0  0  0
   -0.8756   -3.2325   -3.5279 H   0  0  0  0  0  0  0  0  0  0  0  0
   -2.3027   -2.2050   -3.7699 H   0  0  0  0  0  0  0  0  0  0  0  0
   -0.8681   -2.0997   -5.2846 N   0  0  0  0  0  0  0  0  0  0  0  0
   -1.2962   -2.8433   -5.8164 H   0  0  0  0  0  0  0  0  0  0  0  0
   -1.2133   -1.2096   -5.6146 H   0  0  0  0  0  0  0  0  0  0  0  0
   -1.2712    1.3099    1.1517 C   0  0  0  0  0  0  0  0  0  0  0  0
   -2.2039    1.9448    0.6639 O   0  0  0  0  0  0  0  0  0  0  0  0
   -0.4306    1.8354    2.0503 N   0  0  0  0  0  0  0  0  0  0  0  0
    0.3001    1.2459    2.4139 H   0  0  0  0  0  0  0  0  0  0  0  0
   -0.5192    3.2082    2.5456 C   0  0  0  0  0  0  0  0  0  0  0  0
   -1.5166    3.3903    2.9518 H   0  0  0  0  0  0  0  0  0  0  0  0
    0.2240    3.3791    3.3257 H   0  0  0  0  0  0  0  0  0  0  0  0
   -0.3477    3.9067    1.7239 H   0  0  0  0  0  0  0  0  0  0  0  0
  5  6  2  0  0  0  0
  5  7  1  0  0  0  0
  2  3  1  0  0  0  0
  2  4  1  0  0  0  0
  2  5  1  0  0  0  0
  1  2  1  0  0  0  0
 26 27  2  0  0  0  0
 26 28  1  0  0  0  0
 23 24  1  0  0  0  0
 23 25  1  0  0  0  0
 20 21  1  0  0  0  0
 20 22  1  0  0  0  0
 20 23  1  0  0  0  0
 17 18  1  0  0  0  0
 17 19  1  0  0  0  0
 17 20  1  0  0  0  0
 14 15  1  0  0  0  0
 14 16  1  0  0  0  0
 14 17  1  0  0  0  0
 11 12  1  0  0  0  0
 11 13  1  0  0  0  0
 11 14  1  0  0  0  0
  9 10  1  0  0  0  0
  9 11  1  0  0  0  0
  9 26  1  0  0  0  0
  7  8  1  0  0  0  0
  7  9  1  0  0  0  0
 30 31  1  0  0  0  0
 30 32  1  0  0  0  0
 30 33  1  0  0  0  0
 28 29  1  0  0  0  0
 28 30  1  0  0  0  0
M  END
$$$$
default_name
  -OEChem-02102213163D

 33 32  0     1  0  0  0  0  0999 V2000
   -3.8420   -3.6918    1.5562 H   0  0  0  0  0  0  0  0  0  0  0  0
   -3.8430   -2.7008    1.1032 C   0  0  0  0  0  0  0  0  0  0  0  0
   -4.5510   -2.0608    1.6242 H   0  0  0  0  0  0  0  0  0  0  0  0
   -4.1140   -2.7798    0.0522 H   0  0  0  0  0  0  0  0  0  0  0  0
   -2.4570   -2.1098    1.2172 C   0  0  0  0  0  0  0  0  0  0  0  0
   -1.5600   -2.7438    1.7572 O   0  0  0  0  0  0  0  0  0  0  0  0
   -2.2870   -0.8898    0.7102 N   0  0  0  0  0  0  0  0  0  0  0  0
   -3.0820   -0.4218    0.2992 H   0  0  0  0  0  0  0  0  0  0  0  0
   -1.0240   -0.1468    0.7262 C   0  0  1  0  0  0  0  0  0  0  0  0
   -0.3583   -0.6100    1.4558 H   0  0  0  0  0  0  0  0  0  0  0  0
   -0.3739   -0.2459   -0.6675 C   0  0  0  0  0  0  0  0  0  0  0  0
   -0.2608    0.7627   -1.0702 H   0  0  0  0  0  0  0  0  0  0  0  0
    0.6190   -0.6872   -0.5706 H   0  0  0  0  0  0  0  0  0  0  0  0
   -1.1998   -1.0713   -1.6664 C   0  0  0  0  0  0  0  0  0  0  0  0
   -1.3233   -2.0866   -1.2885 H   0  0  0  0  0  0  0  0  0  0  0  0
   -2.1829   -0.6122   -1.7852 H   0  0  0  0  0  0  0  0  0  0  0  0
   -0.5047   -1.1342   -3.0312 C   0  0  0  0  0  0  0  0  0  0  0  0
   -0.3669   -0.1245   -3.4192 H   0  0  0  0  0  0  0  0  0  0  0  0
    0.4684   -1.6140   -2.9218 H   0  0  0  0  0  0  0  0  0  0  0  0
   -1.3573   -1.9383   -4.0107 C   0  0  0  0  0  0  0  0  0  0  0  0
   -1.4808   -2.9525   -3.6344 H   0  0  0  0  0  0  0  0  0  0  0  0
   -2.3357   -1.4706   -4.1076 H   0  0  0  0  0  0  0  0  0  0  0  0
   -0.7311   -1.9985   -5.3365 N   0  0  0  0  0  0  0  0  0  0  0  0
   -1.3129   -2.5473   -5.9523 H   0  0  0  0  0  0  0  0  0  0  0  0
   -0.6433   -1.0618   -5.7042 H   0  0  0  0  0  0  0  0  0  0  0  0
   -1.2712    1.3099    1.1517 C   0  0  0  0  0  0  0  0  0  0  0  0
   -2.2039    1.9448    0.6639 O   0  0  0  0  0  0  0  0  0  0  0  0
   -0.4306    1.8354    2.0503 N   0  0  0  0  0  0  0  0  0  0  0  0
    0.3001    1.2459    2.4139 H   0  0  0  0  0  0  0  0  0  0  0  0
   -0.5192    3.2082    2.5456 C   0  0  0  0  0  0  0  0  0  0  0  0
   -1.5166    3.3903    2.9518 H   0  0  0  0  0  0  0  0  0  0  0  0
    0.2240    3.3791    3.3257 H   0  0  0  0  0  0  0  0  0  0  0  0
   -0.3477    3.9067    1.7239 H   0  0  0  0  0  0  0  0  0  0  0  0
  5  6  2  0  0  0  0
  5  7  1  0  0  0  0
  2  3  1  0  0  0  0
  2  4  1  0  0  0  0
  2  5  1  0  0  0  0
  1  2  1  0  0  0  0
 26 27  2  0  0  0  0
 26 28  1  0  0  0  0
 23 24  1  0  0  0  0
 23 25  1  0  0  0  0
 20 21  1  0  0  0  0
 20 22  1  0  0  0  0
 20 23  1  0  0  0  0
 17 18  1  0  0  0  0
 17 19  1  0  0  0  0
 17 20  1  0  0  0  0
 14 15  1  0  0  0  0
 14 16  1  0  0  0  0
 14 17  1  0  0  0  0
 11 12  1  0  0  0  0
 11 13  1  0  0  0  0
 11 14  1  0  0  0  0
  9 10  1  0  0  0  0
  9 11  1  0  0  0  0
  9 26  1  0  0  0  0
  7  8  1  0  0  0  0
  7  9  1  0  0  0  0
 30 31  1  0  0  0  0
 30 32  1  0  0  0  0
 30 33  1  0  0  0  0
 28 29  1  0  0  0  0
 28 30  1  0  0  0  0
M  END
$$$$
default_name
  -OEChem-02102213163D

 33 32  0     1  0  0  0  0  0999 V2000
   -3.8420   -3.6918    1.5562 H   0  0  0  0  0  0  0  0  0  0  0  0
   -3.8430   -2.7008    1.1032 C   0  0  0  0  0  0  0  0  0  0  0  0
   -4.5510   -2.0608    1.6242 H   0  0  0  0  0  0  0  0  0  0  0  0
   -4.1140   -2.7798    0.0522 H   0  0  0  0  0  0  0  0  0  0  0  0
   -2.4570   -2.1098    1.2172 C   0  0  0  0  0  0  0  0  0  0  0  0
   -1.5600   -2.7438    1.7572 O   0  0  0  0  0  0  0  0  0  0  0  0
   -2.2870   -0.8898    0.7102 N   0  0  0  0  0  0  0  0  0  0  0  0
   -3.0820   -0.4218    0.2992 H   0  0  0  0  0  0  0  0  0  0  0  0
   -1.0240   -0.1468    0.7262 C   0  0  1  0  0  0  0  0  0  0  0  0
   -0.3583   -0.6100    1.4558 H   0  0  0  0  0  0  0  0  0  0  0  0
   -0.3739   -0.2459   -0.6675 C   0  0  0  0  0  0  0  0  0  0  0  0
   -0.2608    0.7627   -1.0702 H   0  0  0  0  0  0  0  0  0  0  0  0
    0.6190   -0.6872   -0.5706 H   0  0  0  0  0  0  0  0  0  0  0  0
   -1.1998   -1.0713   -1.6664 C   0  0  0  0  0  0  0  0  0  0  0  0
   -1.5491   -1.9854   -1.1854 H   0  0  0  0  0  0  0  0  0  0  0  0
   -2.0622   -0.4855   -1.9897 H   0  0  0  0  0  0  0  0  0  0  0  0
   -0.3592   -1.4489   -2.8914 C   0  0  0  0  0  0  0  0  0  0  0  0
    0.0044   -0.5441   -3.3794 H   0  0  0  0  0  0  0  0  0  0  0  0
    0.4909   -2.0547   -2.5763 H   0  0  0  0  0  0  0  0  0  0  0  0
   -1.2099   -2.2463   -3.8781 C   0  0  0  0  0  0  0  0  0  0  0  0
   -1.5588   -3.1596   -3.3988 H   0  0  0  0  0  0  0  0  0  0  0  0
   -2.0690   -1.6496   -4.1802 H   0  0  0  0  0  0  0  0  0  0  0  0
   -0.4411   -2.6044   -5.0756 N   0  0  0  0  0  0  0  0  0  0  0  0
   -1.0282   -3.1408   -5.6973 H   0  0  0  0  0  0  0  0  0  0  0  0
   -0.1418   -1.7599   -5.5420 H   0  0  0  0  0  0  0  0  0  0  0  0
   -1.2712    1.3099    1.1517 C   0  0  0  0  0  0  0  0  0  0  0  0
   -2.2039    1.9448    0.6639 O   0  0  0  0  0  0  0  0  0  0  0  0
   -0.4306    1.8354    2.0503 N   0  0  0  0  0  0  0  0  0  0  0  0
    0.3001    1.2459    2.4139 H   0  0  0  0  0  0  0  0  0  0  0  0
   -0.5192    3.2082    2.5456 C   0  0  0  0  0  0  0  0  0  0  0  0
   -1.5166    3.3903    2.9518 H   0  0  0  0  0  0  0  0  0  0  0  0
    0.2240    3.3791    3.3257 H   0  0  0  0  0  0  0  0  0  0  0  0
   -0.3477    3.9067    1.7239 H   0  0  0  0  0  0  0  0  0  0  0  0
  5  6  2  0  0  0  0
  5  7  1  0  0  0  0
  2  3  1  0  0  0  0
  2  4  1  0  0  0  0
  2  5  1  0  0  0  0
  1  2  1  0  0  0  0
 26 27  2  0  0  0  0
 26 28  1  0  0  0  0
 23 24  1  0  0  0  0
 23 25  1  0  0  0  0
 20 21  1  0  0  0  0
 20 22  1  0  0  0  0
 20 23  1  0  0  0  0
 17 18  1  0  0  0  0
 17 19  1  0  0  0  0
 17 20  1  0  0  0  0
 14 15  1  0  0  0  0
 14 16  1  0  0  0  0
 14 17  1  0  0  0  0
 11 12  1  0  0  0  0
 11 13  1  0  0  0  0
 11 14  1  0  0  0  0
  9 10  1  0  0  0  0
  9 11  1  0  0  0  0
  9 26  1  0  0  0  0
  7  8  1  0  0  0  0
  7  9  1  0  0  0  0
 30 31  1  0  0  0  0
 30 32  1  0  0  0  0
 30 33  1  0  0  0  0
 28 29  1  0  0  0  0
 28 30  1  0  0  0  0
M  END
$$$$
default_name
  -OEChem-02102213163D

 33 32  0     1  0  0  0  0  0999 V2000
   -3.8420   -3.6918    1.5562 H   0  0  0  0  0  0  0  0  0  0  0  0
   -3.8430   -2.7008    1.1032 C   0  0  0  0  0  0  0  0  0  0  0  0
   -4.5510   -2.0608    1.6242 H   0  0  0  0  0  0  0  0  0  0  0  0
   -4.1140   -2.7798    0.0522 H   0  0  0  0  0  0  0  0  0  0  0  0
   -2.4570   -2.1098    1.2172 C   0  0  0  0  0  0  0  0  0  0  0  0
   -1.5600   -2.7438    1.7572 O   0  0  0  0  0  0  0  0  0  0  0  0
   -2.2870   -0.8898    0.7102 N   0  0  0  0  0  0  0  0  0  0  0  0
   -3.0820   -0.4218    0.2992 H   0  0  0  0  0  0  0  0  0  0  0  0
   -1.0240   -0.1468    0.7262 C   0  0  1  0  0  0  0  0  0  0  0  0
   -0.3583   -0.6100    1.4558 H   0  0  0  0  0  0  0  0  0  0  0  0
   -0.3739   -0.2459   -0.6675 C   0  0  0  0  0  0  0  0  0  0  0  0
   -0.2608    0.7627   -1.0702 H   0  0  0  0  0  0  0  0  0  0  0  0
    0.6190   -0.6872   -0.5706 H   0  0  0  0  0  0  0  0  0  0  0  0
   -1.1998   -1.0713   -1.6664 C   0  0  0  0  0  0  0  0  0  0  0  0
   -1.7646   -1.8352   -1.1313 H   0  0  0  0  0  0  0  0  0  0  0  0
   -1.8959   -0.4119   -2.1880 H   0  0  0  0  0  0  0  0  0  0  0  0
   -0.2911   -1.7579   -2.6924 C   0  0  0  0  0  0  0  0  0  0  0  0
    0.2868   -1.0063   -3.2310 H   0  0  0  0  0  0  0  0  0  0  0  0
    0.3905   -2.4360   -2.1781 H   0  0  0  0  0  0  0  0  0  0  0  0
   -1.1378   -2.5502   -3.6866 C   0  0  0  0  0  0  0  0  0  0  0  0
   -1.7018   -3.3137   -3.1532 H   0  0  0  0  0  0  0  0  0  0  0  0
   -1.8313   -1.8775   -4.1884 H   0  0  0  0  0  0  0  0  0  0  0  0
   -0.2991   -3.2023   -4.6990 N   0  0  0  0  0  0  0  0  0  0  0  0
   -0.8885   -3.7265   -5.3289 H   0  0  0  0  0  0  0  0  0  0  0  0
    0.2025   -2.4961   -5.2185 H   0  0  0  0  0  0  0  0  0  0  0  0
   -1.2712    1.3099    1.1517 C   0  0  0  0  0  0  0  0  0  0  0  0
   -2.2039    1.9448    0.6639 O   0  0  0  0  0  0  0  0  0  0  0  0
   -0.4306    1.8354    2.0503 N   0  0  0  0  0  0  0  0  0  0  0  0
    0.3001    1.2459    2.4139 H   0  0  0  0  0  0  0  0  0  0  0  0
   -0.5192    3.2082    2.5456 C   0  0  0  0  0  0  0  0  0  0  0  0
   -1.5166    3.3903    2.9518 H   0  0  0  0  0  0  0  0  0  0  0  0
    0.2240    3.3791    3.3257 H   0  0  0  0  0  0  0  0  0  0  0  0
   -0.3477    3.9067    1.7239 H   0  0  0  0  0  0  0  0  0  0  0  0
  5  6  2  0  0  0  0
  5  7  1  0  0  0  0
  2  3  1  0  0  0  0
  2  4  1  0  0  0  0
  2  5  1  0  0  0  0
  1  2  1  0  0  0  0
 26 27  2  0  0  0  0
 26 28  1  0  0  0  0
 23 24  1  0  0  0  0
 23 25  1  0  0  0  0
 20 21  1  0  0  0  0
 20 22  1  0  0  0  0
 20 23  1  0  0  0  0
 17 18  1  0  0  0  0
 17 19  1  0  0  0  0
 17 20  1  0  0  0  0
 14 15  1  0  0  0  0
 14 16  1  0  0  0  0
 14 17  1  0  0  0  0
 11 12  1  0  0  0  0
 11 13  1  0  0  0  0
 11 14  1  0  0  0  0
  9 10  1  0  0  0  0
  9 11  1  0  0  0  0
  9 26  1  0  0  0  0
  7  8  1  0  0  0  0
  7  9  1  0  0  0  0
 30 31  1  0  0  0  0
 30 32  1  0  0  0  0
 30 33  1  0  0  0  0
 28 29  1  0  0  0  0
 28 30  1  0  0  0  0
M  END
$$$$
default_name
  -OEChem-02102213163D

 33 32  0     1  0  0  0  0  0999 V2000
   -3.8420   -3.6918    1.5562 H   0  0  0  0  0  0  0  0  0  0  0  0
   -3.8430   -2.7008    1.1032 C   0  0  0  0  0  0  0  0  0  0  0  0
   -4.5510   -2.0608    1.6242 H   0  0  0  0  0  0  0  0  0  0  0  0
   -4.1140   -2.7798    0.0522 H   0  0  0  0  0  0  0  0  0  0  0  0
   -2.4570   -2.1098    1.2172 C   0  0  0  0  0  0  0  0  0  0  0  0
   -1.5600   -2.7438    1.7572 O   0  0  0  0  0  0  0  0  0  0  0  0
   -2.2870   -0.8898    0.7102 N   0  0  0  0  0  0  0  0  0  0  0  0
   -3.0820   -0.4218    0.2992 H   0  0  0  0  0  0  0  0  0  0  0  0
   -1.0240   -0.1468    0.7262 C   0  0  1  0  0  0  0  0  0  0  0  0
   -0.3583   -0.6100    1.4558 H   0  0  0  0  0  0  0  0  0  0  0  0
   -0.3739   -0.2459   -0.6675 C   0  0  0  0  0  0  0  0  0  0  0  0
   -0.2608    0.7627   -1.0702 H   0  0  0  0  0  0  0  0  0  0  0  0
    0.6190   -0.6872   -0.5706 H   0  0  0  0  0  0  0  0  0  0  0  0
   -1.1998   -1.0713   -1.6664 C   0  0  0  0  0  0  0  0  0  0  0  0
   -1.9550   -1.6465   -1.1299 H   0  0  0  0  0  0  0  0  0  0  0  0
   -1.6953   -0.3964   -2.3667 H   0  0  0  0  0  0  0  0  0  0  0  0
   -0.3050   -2.0401   -2.4477 C   0  0  0  0  0  0  0  0  0  0  0  0
    0.4613   -1.4796   -2.9841 H   0  0  0  0  0  0  0  0  0  0  0  0
    0.1739   -2.7321   -1.7544 H   0  0  0  0  0  0  0  0  0  0  0  0
   -1.1459   -2.8293   -3.4494 C   0  0  0  0  0  0  0  0  0  0  0  0
   -1.9000   -3.4043   -2.9145 H   0  0  0  0  0  0  0  0  0  0  0  0
   -1.6390   -2.1387   -4.1315 H   0  0  0  0  0  0  0  0  0  0  0  0
   -0.3150   -3.7512   -4.2323 N   0  0  0  0  0  0  0  0  0  0  0  0
   -0.9034   -4.2645   -4.8721 H   0  0  0  0  0  0  0  0  0  0  0  0
    0.3664   -3.2201   -4.7557 H   0  0  0  0  0  0  0  0  0  0  0  0
   -1.2712    1.3099    1.1517 C   0  0  0  0  0  0  0  0  0  0  0  0
   -2.2039    1.9448    0.6639 O   0  0  0  0  0  0  0  0  0  0  0  0
   -0.4306    1.8354    2.0503 N   0  0  0  0  0  0  0  0  0  0  0  0
    0.3001    1.2459    2.4139 H   0  0  0  0  0  0  0  0  0  0  0  0
   -0.5192    3.2082    2.5456 C   0  0  0  0  0  0  0  0  0  0  0  0
   -1.5166    3.3903    2.9518 H   0  0  0  0  0  0  0  0  0  0  0  0
    0.2240    3.3791    3.3257 H   0  0  0  0  0  0  0  0  0  0  0  0
   -0.3477    3.9067    1.7239 H   0  0  0  0  0  0  0  0  0  0  0  0
  5  6  2  0  0  0  0
  5  7  1  0  0  0  0
  2  3  1  0  0  0  0
  2  4  1  0  0  0  0
  2  5  1  0  0  0  0
  1  2  1  0  0  0  0
 26 27  2  0  0  0  0
 26 28  1  0  0  0  0
 23 24  1  0  0  0  0
 23 25  1  0  0  0  0
 20 21  1  0  0  0  0
 20 22  1  0  0  0  0
 20 23  1  0  0  0  0
 17 18  1  0  0  0  0
 17 19  1  0  0  0  0
 17 20  1  0  0  0  0
 14 15  1  0  0  0  0
 14 16  1  0  0  0  0
 14 17  1  0  0  0  0
 11 12  1  0  0  0  0
 11 13  1  0  0  0  0
 11 14  1  0  0  0  0
  9 10  1  0  0  0  0
  9 11  1  0  0  0  0
  9 26  1  0  0  0  0
  7  8  1  0  0  0  0
  7  9  1  0  0  0  0
 30 31  1  0  0  0  0
 30 32  1  0  0  0  0
 30 33  1  0  0  0  0
 28 29  1  0  0  0  0
 28 30  1  0  0  0  0
M  END
$$$$
default_name
  -OEChem-02102213163D

 33 32  0     1  0  0  0  0  0999 V2000
   -3.8420   -3.6918    1.5562 H   0  0  0  0  0  0  0  0  0  0  0  0
   -3.8430   -2.7008    1.1032 C   0  0  0  0  0  0  0  0  0  0  0  0
   -4.5510   -2.0608    1.6242 H   0  0  0  0  0  0  0  0  0  0  0  0
   -4.1140   -2.7798    0.0522 H   0  0  0  0  0  0  0  0  0  0  0  0
   -2.4570   -2.1098    1.2172 C   0  0  0  0  0  0  0  0  0  0  0  0
   -1.5600   -2.7438    1.7572 O   0  0  0  0  0  0  0  0  0  0  0  0
   -2.2870   -0.8898    0.7102 N   0  0  0  0  0  0  0  0  0  0  0  0
   -3.0820   -0.4218    0.2992 H   0  0  0  0  0  0  0  0  0  0  0  0
   -1.0240   -0.1468    0.7262 C   0  0  1  0  0  0  0  0  0  0  0  0
   -0.3583   -0.6100    1.4558 H   0  0  0  0  0  0  0  0  0  0  0  0
   -0.3739   -0.2459   -0.6675 C   0  0  0  0  0  0  0  0  0  0  0  0
   -0.2608    0.7627   -1.0702 H   0  0  0  0  0  0  0  0  0  0  0  0
    0.6190   -0.6872   -0.5706 H   0  0  0  0  0  0  0  0  0  0  0  0
   -1.1998   -1.0713   -1.6664 C   0  0  0  0  0  0  0  0  0  0  0  0
   -2.1073   -1.4319   -1.1813 H   0  0  0  0  0  0  0  0  0  0  0  0
   -1.4741   -0.4400   -2.5136 H   0  0  0  0  0  0  0  0  0  0  0  0
   -0.3999   -2.2764   -2.1741 C   0  0  0  0  0  0  0  0  0  0  0  0
    0.5158   -1.9319   -2.6556 H   0  0  0  0  0  0  0  0  0  0  0  0
   -0.1439   -2.9228   -1.3341 H   0  0  0  0  0  0  0  0  0  0  0  0
   -1.2336   -3.0644   -3.1825 C   0  0  0  0  0  0  0  0  0  0  0  0
   -2.1399   -3.4253   -2.6988 H   0  0  0  0  0  0  0  0  0  0  0  0
   -1.5051   -2.4155   -4.0136 H   0  0  0  0  0  0  0  0  0  0  0  0
   -0.4875   -4.2139   -3.7073 N   0  0  0  0  0  0  0  0  0  0  0  0
   -1.0717   -4.7181   -4.3581 H   0  0  0  0  0  0  0  0  0  0  0  0
    0.3385   -3.8826   -4.1852 H   0  0  0  0  0  0  0  0  0  0  0  0
   -1.2712    1.3099    1.1517 C   0  0  0  0  0  0  0  0  0  0  0  0
   -2.2039    1.9448    0.6639 O   0  0  0  0  0  0  0  0  0  0  0  0
   -0.4306    1.8354    2.0503 N   0  0  0  0  0  0  0  0  0  0  0  0
    0.3001    1.2459    2.4139 H   0  0  0  0  0  0  0  0  0  0  0  0
   -0.5192    3.2082    2.5456 C   0  0  0  0  0  0  0  0  0  0  0  0
   -1.5166    3.3903    2.9518 H   0  0  0  0  0  0  0  0  0  0  0  0
    0.2240    3.3791    3.3257 H   0  0  0  0  0  0  0  0  0  0  0  0
   -0.3477    3.9067    1.7239 H   0  0  0  0  0  0  0  0  0  0  0  0
  5  6  2  0  0  0  0
  5  7  1  0  0  0  0
  2  3  1  0  0  0  0
  2  4  1  0  0  0  0
  2  5  1  0  0  0  0
  1  2  1  0  0  0  0
 26 27  2  0  0  0  0
 26 28  1  0  0  0  0
 23 24  1  0  0  0  0
 23 25  1  0  0  0  0
 20 21  1  0  0  0  0
 20 22  1  0  0  0  0
 20 23  1  0  0  0  0
 17 18  1  0  0  0  0
 17 19  1  0  0  0  0
 17 20  1  0  0  0  0
 14 15  1  0  0  0  0
 14 16  1  0  0  0  0
 14 17  1  0  0  0  0
 11 12  1  0  0  0  0
 11 13  1  0  0  0  0
 11 14  1  0  0  0  0
  9 10  1  0  0  0  0
  9 11  1  0  0  0  0
  9 26  1  0  0  0  0
  7  8  1  0  0  0  0
  7  9  1  0  0  0  0
 30 31  1  0  0  0  0
 30 32  1  0  0  0  0
 30 33  1  0  0  0  0
 28 29  1  0  0  0  0
 28 30  1  0  0  0  0
M  END
$$$$
default_name
  -OEChem-02102213163D

 33 32  0     1  0  0  0  0  0999 V2000
   -3.8420   -3.6918    1.5562 H   0  0  0  0  0  0  0  0  0  0  0  0
   -3.8430   -2.7008    1.1032 C   0  0  0  0  0  0  0  0  0  0  0  0
   -4.5510   -2.0608    1.6242 H   0  0  0  0  0  0  0  0  0  0  0  0
   -4.1140   -2.7798    0.0522 H   0  0  0  0  0  0  0  0  0  0  0  0
   -2.4570   -2.1098    1.2172 C   0  0  0  0  0  0  0  0  0  0  0  0
   -1.5600   -2.7438    1.7572 O   0  0  0  0  0  0  0  0  0  0  0  0
   -2.2870   -0.8898    0.7102 N   0  0  0  0  0  0  0  0  0  0  0  0
   -3.0820   -0.4218    0.2992 H   0  0  0  0  0  0  0  0  0  0  0  0
   -1.0240   -0.1468    0.7262 C   0  0  1  0  0  0  0  0  0  0  0  0
   -0.3583   -0.6100    1.4558 H   0  0  0  0  0  0  0  0  0  0  0  0
   -0.3739   -0.2459   -0.6675 C   0  0  0  0  0  0  0  0  0  0  0  0
   -0.2608    0.7627   -1.0702 H   0  0  0  0  0  0  0  0  0  0  0  0
    0.6190   -0.6872   -0.5706 H   0  0  0  0  0  0  0  0  0  0  0  0
   -1.1998   -1.0713   -1.6664 C   0  0  0  0  0  0  0  0  0  0  0  0
   -2.2112   -1.2061   -1.2820 H   0  0  0  0  0  0  0  0  0  0  0  0
   -1.2473   -0.5398   -2.6186 H   0  0  0  0  0  0  0  0  0  0  0  0
   -0.5693   -2.4505   -1.8901 C   0  0  0  0  0  0  0  0  0  0  0  0
    0.4467   -2.3321   -2.2677 H   0  0  0  0  0  0  0  0  0  0  0  0
   -0.5415   -2.9950   -0.9457 H   0  0  0  0  0  0  0  0  0  0  0  0
   -1.3950   -3.2397   -2.9043 C   0  0  0  0  0  0  0  0  0  0  0  0
   -2.4051   -3.3752   -2.5210 H   0  0  0  0  0  0  0  0  0  0  0  0
   -1.4387   -2.6890   -3.8425 H   0  0  0  0  0  0  0  0  0  0  0  0
   -0.8050   -4.5587   -3.1599 N   0  0  0  0  0  0  0  0  0  0  0  0
   -1.3821   -5.0564   -3.8219 H   0  0  0  0  0  0  0  0  0  0  0  0
    0.1207   -4.4384   -3.5459 H   0  0  0  0  0  0  0  0  0  0  0  0
   -1.2712    1.3099    1.1517 C   0  0  0  0  0  0  0  0  0  0  0  0
   -2.2039    1.9448    0.6639 O   0  0  0  0  0  0  0  0  0  0  0  0
   -0.4306    1.8354    2.0503 N   0  0  0  0  0  0  0  0  0  0  0  0
    0.3001    1.2459    2.4139 H   0  0  0  0  0  0  0  0  0  0  0  0
   -0.5192    3.2082    2.5456 C   0  0  0  0  0  0  0  0  0  0  0  0
   -1.5166    3.3903    2.9518 H   0  0  0  0  0  0  0  0  0  0  0  0
    0.2240    3.3791    3.3257 H   0  0  0  0  0  0  0  0  0  0  0  0
   -0.3477    3.9067    1.7239 H   0  0  0  0  0  0  0  0  0  0  0  0
  5  6  2  0  0  0  0
  5  7  1  0  0  0  0
  2  3  1  0  0  0  0
  2  4  1  0  0  0  0
  2  5  1  0  0  0  0
  1  2  1  0  0  0  0
 26 27  2  0  0  0  0
 26 28  1  0  0  0  0
 23 24  1  0  0  0  0
 23 25  1  0  0  0  0
 20 21  1  0  0  0  0
 20 22  1  0  0  0  0
 20 23  1  0  0  0  0
 17 18  1  0  0  0  0
 17 19  1  0  0  0  0
 17 20  1  0  0  0  0
 14 15  1  0  0  0  0
 14 16  1  0  0  0  0
 14 17  1  0  0  0  0
 11 12  1  0  0  0  0
 11 13  1  0  0  0  0
 11 14  1  0  0  0  0
  9 10  1  0  0  0  0
  9 11  1  0  0  0  0
  9 26  1  0  0  0  0
  7  8  1  0  0  0  0
  7  9  1  0  0  0  0
 30 31  1  0  0  0  0
 30 32  1  0  0  0  0
 30 33  1  0  0  0  0
 28 29  1  0  0  0  0
 28 30  1  0  0  0  0
M  END
$$$$
default_name
  -OEChem-02102213163D

 33 32  0     1  0  0  0  0  0999 V2000
   -3.8420   -3.6918    1.5562 H   0  0  0  0  0  0  0  0  0  0  0  0
   -3.8430   -2.7008    1.1032 C   0  0  0  0  0  0  0  0  0  0  0  0
   -4.5510   -2.0608    1.6242 H   0  0  0  0  0  0  0  0  0  0  0  0
   -4.1140   -2.7798    0.0522 H   0  0  0  0  0  0  0  0  0  0  0  0
   -2.4570   -2.1098    1.2172 C   0  0  0  0  0  0  0  0  0  0  0  0
   -1.5600   -2.7438    1.7572 O   0  0  0  0  0  0  0  0  0  0  0  0
   -2.2870   -0.8898    0.7102 N   0  0  0  0  0  0  0  0  0  0  0  0
   -3.0820   -0.4218    0.2992 H   0  0  0  0  0  0  0  0  0  0  0  0
   -1.0240   -0.1468    0.7262 C   0  0  1  0  0  0  0  0  0  0  0  0
   -0.3583   -0.6100    1.4558 H   0  0  0  0  0  0  0  0  0  0  0  0
   -0.3739   -0.2459   -0.6675 C   0  0  0  0  0  0  0  0  0  0  0  0
   -0.2608    0.7627   -1.0702 H   0  0  0  0  0  0  0  0  0  0  0  0
    0.6190   -0.6872   -0.5706 H   0  0  0  0  0  0  0  0  0  0  0  0
   -1.1998   -1.0713   -1.6664 C   0  0  0  0  0  0  0  0  0  0  0  0
   -2.2596   -0.9846   -1.4250 H   0  0  0  0  0  0  0  0  0  0  0  0
   -1.0304   -0.6889   -2.6747 H   0  0  0  0  0  0  0  0  0  0  0  0
   -0.8018   -2.5508   -1.6150 C   0  0  0  0  0  0  0  0  0  0  0  0
    0.2587   -2.6532   -1.8470 H   0  0  0  0  0  0  0  0  0  0  0  0
   -0.9916   -2.9438   -0.6158 H   0  0  0  0  0  0  0  0  0  0  0  0
   -1.6191   -3.3431   -2.6335 C   0  0  0  0  0  0  0  0  0  0  0  0
   -2.6775   -3.2575   -2.3930 H   0  0  0  0  0  0  0  0  0  0  0  0
   -1.4444   -2.9405   -3.6299 H   0  0  0  0  0  0  0  0  0  0  0  0
   -1.2457   -4.7622   -2.6273 N   0  0  0  0  0  0  0  0  0  0  0  0
   -1.8134   -5.2564   -3.3000 H   0  0  0  0  0  0  0  0  0  0  0  0
   -0.2720   -4.8498   -2.8813 H   0  0  0  0  0  0  0  0  0  0  0  0
   -1.2712    1.3099    1.1517 C   0  0  0  0  0  0  0  0  0  0  0  0
   -2.2039    1.9448    0.6639 O   0  0  0  0  0  0  0  0  0  0  0  0
   -0.4306    1.8354    2.0503 N   0  0  0  0  0  0  0  0  0  0  0  0
    0.3001    1.2459    2.4139 H   0  0  0  0  0  0  0  0  0  0  0  0
   -0.5192    3.2082    2.5456 C   0  0  0  0  0  0  0  0  0  0  0  0
   -1.5166    3.3903    2.9518 H   0  0  0  0  0  0  0  0  0  0  0  0
    0.2240    3.3791    3.3257 H   0  0  0  0  0  0  0  0  0  0  0  0
   -0.3477    3.9067    1.7239 H   0  0  0  0  0  0  0  0  0  0  0  0
  5  6  2  0  0  0  0
  5  7  1  0  0  0  0
  2  3  1  0  0  0  0
  2  4  1  0  0  0  0
  2  5  1  0  0  0  0
  1  2  1  0  0  0  0
 26 27  2  0  0  0  0
 26 28  1  0  0  0  0
 23 24  1  0  0  0  0
 23 25  1  0  0  0  0
 20 21  1  0  0  0  0
 20 22  1  0  0  0  0
 20 23  1  0  0  0  0
 17 18  1  0  0  0  0
 17 19  1  0  0  0  0
 17 20  1  0  0  0  0
 14 15  1  0  0  0  0
 14 16  1  0  0  0  0
 14 17  1  0  0  0  0
 11 12  1  0  0  0  0
 11 13  1  0  0  0  0
 11 14  1  0  0  0  0
  9 10  1  0  0  0  0
  9 11  1  0  0  0  0
  9 26  1  0  0  0  0
  7  8  1  0  0  0  0
  7  9  1  0  0  0  0
 30 31  1  0  0  0  0
 30 32  1  0  0  0  0
 30 33  1  0  0  0  0
 28 29  1  0  0  0  0
 28 30  1  0  0  0  0
M  END
$$$$
default_name
  -OEChem-02102213163D

 33 32  0     1  0  0  0  0  0999 V2000
   -3.8420   -3.6918    1.5562 H   0  0  0  0  0  0  0  0  0  0  0  0
   -3.8430   -2.7008    1.1032 C   0  0  0  0  0  0  0  0  0  0  0  0
   -4.5510   -2.0608    1.6242 H   0  0  0  0  0  0  0  0  0  0  0  0
   -4.1140   -2.7798    0.0522 H   0  0  0  0  0  0  0  0  0  0  0  0
   -2.4570   -2.1098    1.2172 C   0  0  0  0  0  0  0  0  0  0  0  0
   -1.5600   -2.7438    1.7572 O   0  0  0  0  0  0  0  0  0  0  0  0
   -2.2870   -0.8898    0.7102 N   0  0  0  0  0  0  0  0  0  0  0  0
   -3.0820   -0.4218    0.2992 H   0  0  0  0  0  0  0  0  0  0  0  0
   -1.0240   -0.1468    0.7262 C   0  0  1  0  0  0  0  0  0  0  0  0
   -0.3583   -0.6100    1.4558 H   0  0  0  0  0  0  0  0  0  0  0  0
   -0.3739   -0.2459   -0.6675 C   0  0  0  0  0  0  0  0  0  0  0  0
   -0.2608    0.7627   -1.0702 H   0  0  0  0  0  0  0  0  0  0  0  0
    0.6190   -0.6872   -0.5706 H   0  0  0  0  0  0  0  0  0  0  0  0
   -1.1998   -1.0713   -1.6664 C   0  0  0  0  0  0  0  0  0  0  0  0
   -2.2491   -0.7823   -1.6008 H   0  0  0  0  0  0  0  0  0  0  0  0
   -0.8383   -0.8773   -2.6779 H   0  0  0  0  0  0  0  0  0  0  0  0
   -1.0814   -2.5702   -1.3678 C   0  0  0  0  0  0  0  0  0  0  0  0
   -0.0354   -2.8732   -1.4220 H   0  0  0  0  0  0  0  0  0  0  0  0
   -1.4637   -2.7728   -0.3669 H   0  0  0  0  0  0  0  0  0  0  0  0
   -1.8906   -3.3677   -2.3888 C   0  0  0  0  0  0  0  0  0  0  0  0
   -2.9387   -3.0801   -2.3236 H   0  0  0  0  0  0  0  0  0  0  0  0
   -1.5217   -3.1529   -3.3904 H   0  0  0  0  0  0  0  0  0  0  0  0
   -1.7798   -4.8106   -2.1458 N   0  0  0  0  0  0  0  0  0  0  0  0
   -2.3362   -5.3045   -2.8281 H   0  0  0  0  0  0  0  0  0  0  0  0
   -0.8130   -5.0886   -2.2367 H   0  0  0  0  0  0  0  0  0  0  0  0
   -1.2712    1.3099    1.1517 C   0  0  0  0  0  0  0  0  0  0  0  0
   -2.2039    1.9448    0.6639 O   0  0  0  0  0  0  0  0  0  0  0  0
   -0.4306    1.8354    2.0503 N   0  0  0  0  0  0  0  0  0  0  0  0
    0.3001    1.2459    2.4139 H   0  0  0  0  0  0  0  0  0  0  0  0
   -0.5192    3.2082    2.5456 C   0  0  0  0  0  0  0  0  0  0  0  0
   -1.5166    3.3903    2.9518 H   0  0  0  0  0  0  0  0  0  0  0  0
    0.2240    3.3791    3.3257 H   0  0  0  0  0  0  0  0  0  0  0  0
   -0.3477    3.9067    1.7239 H   0  0  0  0  0  0  0  0  0  0  0  0
  5  6  2  0  0  0  0
  5  7  1  0  0  0  0
  2  3  1  0  0  0  0
  2  4  1  0  0  0  0
  2  5  1  0  0  0  0
  1  2  1  0  0  0  0
 26 27  2  0  0  0  0
 26 28  1  0  0  0  0
 23 24  1  0  0  0  0
 23 25  1  0  0  0  0
 20 21  1  0  0  0  0
 20 22  1  0  0  0  0
 20 23  1  0  0  0  0
 17 18  1  0  0  0  0
 17 19  1  0  0  0  0
 17 20  1  0  0  0  0
 14 15  1  0  0  0  0
 14 16  1  0  0  0  0
 14 17  1  0  0  0  0
 11 12  1  0  0  0  0
 11 13  1  0  0  0  0
 11 14  1  0  0  0  0
  9 10  1  0  0  0  0
  9 11  1  0  0  0  0
  9 26  1  0  0  0  0
  7  8  1  0  0  0  0
  7  9  1  0  0  0  0
 30 31  1  0  0  0  0
 30 32  1  0  0  0  0
 30 33  1  0  0  0  0
 28 29  1  0  0  0  0
 28 30  1  0  0  0  0
M  END
$$$$
default_name
  -OEChem-02102213163D

 33 32  0     1  0  0  0  0  0999 V2000
   -3.8420   -3.6918    1.5562 H   0  0  0  0  0  0  0  0  0  0  0  0
   -3.8430   -2.7008    1.1032 C   0  0  0  0  0  0  0  0  0  0  0  0
   -4.5510   -2.0608    1.6242 H   0  0  0  0  0  0  0  0  0  0  0  0
   -4.1140   -2.7798    0.0522 H   0  0  0  0  0  0  0  0  0  0  0  0
   -2.4570   -2.1098    1.2172 C   0  0  0  0  0  0  0  0  0  0  0  0
   -1.5600   -2.7438    1.7572 O   0  0  0  0  0  0  0  0  0  0  0  0
   -2.2870   -0.8898    0.7102 N   0  0  0  0  0  0  0  0  0  0  0  0
   -3.0820   -0.4218    0.2992 H   0  0  0  0  0  0  0  0  0  0  0  0
   -1.0240   -0.1468    0.7262 C   0  0  1  0  0  0  0  0  0  0  0  0
   -0.3583   -0.6100    1.4558 H   0  0  0  0  0  0  0  0  0  0  0  0
   -0.3739   -0.2459   -0.6675 C   0  0  0  0  0  0  0  0  0  0  0  0
   -0.2608    0.7627   -1.0702 H   0  0  0  0  0  0  0  0  0  0  0  0
    0.6190   -0.6872   -0.5706 H   0  0  0  0  0  0  0  0  0  0  0  0
   -1.1998   -1.0713   -1.6664 C   0  0  0  0  0  0  0  0  0  0  0  0
   -2.1806   -0.6132   -1.7972 H   0  0  0  0  0  0  0  0  0  0  0  0
   -0.6839   -1.0920   -2.6281 H   0  0  0  0  0  0  0  0  0  0  0  0
   -1.3892   -2.5075   -1.1651 C   0  0  0  0  0  0  0  0  0  0  0  0
   -0.4155   -2.9771   -1.0219 H   0  0  0  0  0  0  0  0  0  0  0  0
   -1.9255   -2.4935   -0.2159 H   0  0  0  0  0  0  0  0  0  0  0  0
   -2.1909   -3.3117   -2.1867 C   0  0  0  0  0  0  0  0  0  0  0  0
   -3.1707   -2.8552   -2.3176 H   0  0  0  0  0  0  0  0  0  0  0  0
   -1.6655   -3.3118   -3.1403 H   0  0  0  0  0  0  0  0  0  0  0  0
   -2.3707   -4.7005   -1.7483 N   0  0  0  0  0  0  0  0  0  0  0  0
   -2.9148   -5.1972   -2.4383 H   0  0  0  0  0  0  0  0  0  0  0  0
   -1.4653   -5.1386   -1.6560 H   0  0  0  0  0  0  0  0  0  0  0  0
   -1.2712    1.3099    1.1517 C   0  0  0  0  0  0  0  0  0  0  0  0
   -2.2039    1.9448    0.6639 O   0  0  0  0  0  0  0  0  0  0  0  0
   -0.4306    1.8354    2.0503 N   0  0  0  0  0  0  0  0  0  0  0  0
    0.3001    1.2459    2.4139 H   0  0  0  0  0  0  0  0  0  0  0  0
   -0.5192    3.2082    2.5456 C   0  0  0  0  0  0  0  0  0  0  0  0
   -1.5166    3.3903    2.9518 H   0  0  0  0  0  0  0  0  0  0  0  0
    0.2240    3.3791    3.3257 H   0  0  0  0  0  0  0  0  0  0  0  0
   -0.3477    3.9067    1.7239 H   0  0  0  0  0  0  0  0  0  0  0  0
  5  6  2  0  0  0  0
  5  7  1  0  0  0  0
  2  3  1  0  0  0  0
  2  4  1  0  0  0  0
  2  5  1  0  0  0  0
  1  2  1  0  0  0  0
 26 27  2  0  0  0  0
 26 28  1  0  0  0  0
 23 24  1  0  0  0  0
 23 25  1  0  0  0  0
 20 21  1  0  0  0  0
 20 22  1  0  0  0  0
 20 23  1  0  0  0  0
 17 18  1  0  0  0  0
 17 19  1  0  0  0  0
 17 20  1  0  0  0  0
 14 15  1  0  0  0  0
 14 16  1  0  0  0  0
 14 17  1  0  0  0  0
 11 12  1  0  0  0  0
 11 13  1  0  0  0  0
 11 14  1  0  0  0  0
  9 10  1  0  0  0  0
  9 11  1  0  0  0  0
  9 26  1  0  0  0  0
  7  8  1  0  0  0  0
  7  9  1  0  0  0  0
 30 31  1  0  0  0  0
 30 32  1  0  0  0  0
 30 33  1  0  0  0  0
 28 29  1  0  0  0  0
 28 30  1  0  0  0  0
M  END
$$$$
default_name
  -OEChem-02102213163D

 33 32  0     1  0  0  0  0  0999 V2000
   -3.8420   -3.6918    1.5562 H   0  0  0  0  0  0  0  0  0  0  0  0
   -3.8430   -2.7008    1.1032 C   0  0  0  0  0  0  0  0  0  0  0  0
   -4.5510   -2.0608    1.6242 H   0  0  0  0  0  0  0  0  0  0  0  0
   -4.1140   -2.7798    0.0522 H   0  0  0  0  0  0  0  0  0  0  0  0
   -2.4570   -2.1098    1.2172 C   0  0  0  0  0  0  0  0  0  0  0  0
   -1.5600   -2.7438    1.7572 O   0  0  0  0  0  0  0  0  0  0  0  0
   -2.2870   -0.8898    0.7102 N   0  0  0  0  0  0  0  0  0  0  0  0
   -3.0820   -0.4218    0.2992 H   0  0  0  0  0  0  0  0  0  0  0  0
   -1.0240   -0.1468    0.7262 C   0  0  1  0  0  0  0  0  0  0  0  0
   -0.3583   -0.6100    1.4558 H   0  0  0  0  0  0  0  0  0  0  0  0
   -0.3739   -0.2459   -0.6675 C   0  0  0  0  0  0  0  0  0  0  0  0
   -0.2608    0.7627   -1.0702 H   0  0  0  0  0  0  0  0  0  0  0  0
    0.6190   -0.6872   -0.5706 H   0  0  0  0  0  0  0  0  0  0  0  0
   -1.1998   -1.0713   -1.6664 C   0  0  0  0  0  0  0  0  0  0  0  0
   -2.0586   -0.4887   -2.0009 H   0  0  0  0  0  0  0  0  0  0  0  0
   -0.5778   -1.3184   -2.5287 H   0  0  0  0  0  0  0  0  0  0  0  0
   -1.7041   -2.3670   -1.0209 C   0  0  0  0  0  0  0  0  0  0  0  0
   -0.8559   -2.9578   -0.6738 H   0  0  0  0  0  0  0  0  0  0  0  0
   -2.3456   -2.1250   -0.1730 H   0  0  0  0  0  0  0  0  0  0  0  0
   -2.4998   -3.1789   -2.0411 C   0  0  0  0  0  0  0  0  0  0  0  0
   -3.3579   -2.5980   -2.3754 H   0  0  0  0  0  0  0  0  0  0  0  0
   -1.8659   -3.4063   -2.8966 H   0  0  0  0  0  0  0  0  0  0  0  0
   -2.9783   -4.4394   -1.4617 N   0  0  0  0  0  0  0  0  0  0  0  0
   -3.5100   -4.9421   -2.1571 H   0  0  0  0  0  0  0  0  0  0  0  0
   -2.1845   -4.9964   -1.1789 H   0  0  0  0  0  0  0  0  0  0  0  0
   -1.2712    1.3099    1.1517 C   0  0  0  0  0  0  0  0  0  0  0  0
   -2.2039    1.9448    0.6639 O   0  0  0  0  0  0  0  0  0  0  0  0
   -0.4306    1.8354    2.0503 N   0  0  0  0  0  0  0  0  0  0  0  0
    0.3001    1.2459    2.4139 H   0  0  0  0  0  0  0  0  0  0  0  0
   -0.5192    3.2082    2.5456 C   0  0  0  0  0  0  0  0  0  0  0  0
   -1.5166    3.3903    2.9518 H   0  0  0  0  0  0  0  0  0  0  0  0
    0.2240    3.3791    3.3257 H   0  0  0  0  0  0  0  0  0  0  0  0
   -0.3477    3.9067    1.7239 H   0  0  0  0  0  0  0  0  0  0  0  0
  5  6  2  0  0  0  0
  5  7  1  0  0  0  0
  2  3  1  0  0  0  0
  2  4  1  0  0  0  0
  2  5  1  0  0  0  0
  1  2  1  0  0  0  0
 26 27  2  0  0  0  0
 26 28  1  0  0  0  0
 23 24  1  0  0  0  0
 23 25  1  0  0  0  0
 20 21  1  0  0  0  0
 20 22  1  0  0  0  0
 20 23  1  0  0  0  0
 17 18  1  0  0  0  0
 17 19  1  0  0  0  0
 17 20  1  0  0  0  0
 14 15  1  0  0  0  0
 14 16  1  0  0  0  0
 14 17  1  0  0  0  0
 11 12  1  0  0  0  0
 11 13  1  0  0  0  0
 11 14  1  0  0  0  0
  9 10  1  0  0  0  0
  9 11  1  0  0  0  0
  9 26  1  0  0  0  0
  7  8  1  0  0  0  0
  7  9  1  0  0  0  0
 30 31  1  0  0  0  0
 30 32  1  0  0  0  0
 30 33  1  0  0  0  0
 28 29  1  0  0  0  0
 28 30  1  0  0  0  0
M  END
$$$$
default_name
  -OEChem-02102213163D

 33 32  0     1  0  0  0  0  0999 V2000
   -3.8420   -3.6918    1.5562 H   0  0  0  0  0  0  0  0  0  0  0  0
   -3.8430   -2.7008    1.1032 C   0  0  0  0  0  0  0  0  0  0  0  0
   -4.5510   -2.0608    1.6242 H   0  0  0  0  0  0  0  0  0  0  0  0
   -4.1140   -2.7798    0.0522 H   0  0  0  0  0  0  0  0  0  0  0  0
   -2.4570   -2.1098    1.2172 C   0  0  0  0  0  0  0  0  0  0  0  0
   -1.5600   -2.7438    1.7572 O   0  0  0  0  0  0  0  0  0  0  0  0
   -2.2870   -0.8898    0.7102 N   0  0  0  0  0  0  0  0  0  0  0  0
   -3.0820   -0.4218    0.2992 H   0  0  0  0  0  0  0  0  0  0  0  0
   -1.0240   -0.1468    0.7262 C   0  0  1  0  0  0  0  0  0  0  0  0
   -0.3583   -0.6100    1.4558 H   0  0  0  0  0  0  0  0  0  0  0  0
   -0.3739   -0.2459   -0.6675 C   0  0  0  0  0  0  0  0  0  0  0  0
   -0.2608    0.7627   -1.0702 H   0  0  0  0  0  0  0  0  0  0  0  0
    0.6190   -0.6872   -0.5706 H   0  0  0  0  0  0  0  0  0  0  0  0
   -1.1998   -1.0713   -1.6664 C   0  0  0  0  0  0  0  0  0  0  0  0
   -1.8915   -0.4173   -2.1981 H   0  0  0  0  0  0  0  0  0  0  0  0
   -0.5273   -1.5412   -2.3864 H   0  0  0  0  0  0  0  0  0  0  0  0
   -2.0047   -2.1582   -0.9449 C   0  0  0  0  0  0  0  0  0  0  0  0
   -1.3264   -2.8166   -0.4014 H   0  0  0  0  0  0  0  0  0  0  0  0
   -2.6953   -1.6924   -0.2413 H   0  0  0  0  0  0  0  0  0  0  0  0
   -2.7960   -2.9785   -1.9618 C   0  0  0  0  0  0  0  0  0  0  0  0
   -3.4874   -2.3262   -2.4929 H   0  0  0  0  0  0  0  0  0  0  0  0
   -2.1092   -3.4299   -2.6759 H   0  0  0  0  0  0  0  0  0  0  0  0
   -3.5610   -4.0451   -1.3058 N   0  0  0  0  0  0  0  0  0  0  0  0
   -4.0809   -4.5564   -2.0037 H   0  0  0  0  0  0  0  0  0  0  0  0
   -2.9216   -4.6716   -0.8378 H   0  0  0  0  0  0  0  0  0  0  0  0
   -1.2712    1.3099    1.1517 C   0  0  0  0  0  0  0  0  0  0  0  0
   -2.2039    1.9448    0.6639 O   0  0  0  0  0  0  0  0  0  0  0  0
   -0.4306    1.8354    2.0503 N   0  0  0  0  0  0  0  0  0  0  0  0
    0.3001    1.2459    2.4139 H   0  0  0  0  0  0  0  0  0  0  0  0
   -0.5192    3.2082    2.5456 C   0  0  0  0  0  0  0  0  0  0  0  0
   -1.5166    3.3903    2.9518 H   0  0  0  0  0  0  0  0  0  0  0  0
    0.2240    3.3791    3.3257 H   0  0  0  0  0  0  0  0  0  0  0  0
   -0.3477    3.9067    1.7239 H   0  0  0  0  0  0  0  0  0  0  0  0
  5  6  2  0  0  0  0
  5  7  1  0  0  0  0
  2  3  1  0  0  0  0
  2  4  1  0  0  0  0
  2  5  1  0  0  0  0
  1  2  1  0  0  0  0
 26 27  2  0  0  0  0
 26 28  1  0  0  0  0
 23 24  1  0  0  0  0
 23 25  1  0  0  0  0
 20 21  1  0  0  0  0
 20 22  1  0  0  0  0
 20 23  1  0  0  0  0
 17 18  1  0  0  0  0
 17 19  1  0  0  0  0
 17 20  1  0  0  0  0
 14 15  1  0  0  0  0
 14 16  1  0  0  0  0
 14 17  1  0  0  0  0
 11 12  1  0  0  0  0
 11 13  1  0  0  0  0
 11 14  1  0  0  0  0
  9 10  1  0  0  0  0
  9 11  1  0  0  0  0
  9 26  1  0  0  0  0
  7  8  1  0  0  0  0
  7  9  1  0  0  0  0
 30 31  1  0  0  0  0
 30 32  1  0  0  0  0
 30 33  1  0  0  0  0
 28 29  1  0  0  0  0
 28 30  1  0  0  0  0
M  END
$$$$
default_name
  -OEChem-02102213163D

 33 32  0     1  0  0  0  0  0999 V2000
   -3.8420   -3.6918    1.5562 H   0  0  0  0  0  0  0  0  0  0  0  0
   -3.8430   -2.7008    1.1032 C   0  0  0  0  0  0  0  0  0  0  0  0
   -4.5510   -2.0608    1.6242 H   0  0  0  0  0  0  0  0  0  0  0  0
   -4.1140   -2.7798    0.0522 H   0  0  0  0  0  0  0  0  0  0  0  0
   -2.4570   -2.1098    1.2172 C   0  0  0  0  0  0  0  0  0  0  0  0
   -1.5600   -2.7438    1.7572 O   0  0  0  0  0  0  0  0  0  0  0  0
   -2.2870   -0.8898    0.7102 N   0  0  0  0  0  0  0  0  0  0  0  0
   -3.0820   -0.4218    0.2992 H   0  0  0  0  0  0  0  0  0  0  0  0
   -1.0240   -0.1468    0.7262 C   0  0  1  0  0  0  0  0  0  0  0  0
   -0.3583   -0.6100    1.4558 H   0  0  0  0  0  0  0  0  0  0  0  0
   -0.3739   -0.2459   -0.6675 C   0  0  0  0  0  0  0  0  0  0  0  0
   -0.2608    0.7627   -1.0702 H   0  0  0  0  0  0  0  0  0  0  0  0
    0.6190   -0.6872   -0.5706 H   0  0  0  0  0  0  0  0  0  0  0  0
   -1.1998   -1.0713   -1.6664 C   0  0  0  0  0  0  0  0  0  0  0  0
   -1.6907   -0.4038   -2.3752 H   0  0  0  0  0  0  0  0  0  0  0  0
   -0.5357   -1.7451   -2.2110 H   0  0  0  0  0  0  0  0  0  0  0  0
   -2.2705   -1.8954   -0.9423 C   0  0  0  0  0  0  0  0  0  0  0  0
   -1.7949   -2.5633   -0.2234 H   0  0  0  0  0  0  0  0  0  0  0  0
   -2.9509   -1.2253   -0.4161 H   0  0  0  0  0  0  0  0  0  0  0  0
   -3.0594   -2.7240   -1.9543 C   0  0  0  0  0  0  0  0  0  0  0  0
   -3.5503   -2.0582   -2.6623 H   0  0  0  0  0  0  0  0  0  0  0  0
   -2.3789   -3.3811   -2.4933 H   0  0  0  0  0  0  0  0  0  0  0  0
   -4.0792   -3.5445   -1.2909 N   0  0  0  0  0  0  0  0  0  0  0  0
   -4.5889   -4.0664   -1.9886 H   0  0  0  0  0  0  0  0  0  0  0  0
   -3.6264   -4.1865   -0.6560 H   0  0  0  0  0  0  0  0  0  0  0  0
   -1.2712    1.3099    1.1517 C   0  0  0  0  0  0  0  0  0  0  0  0
   -2.2039    1.9448    0.6639 O   0  0  0  0  0  0  0  0  0  0  0  0
   -0.4306    1.8354    2.0503 N   0  0  0  0  0  0  0  0  0  0  0  0
    0.3001    1.2459    2.4139 H   0  0  0  0  0  0  0  0  0  0  0  0
   -0.5192    3.2082    2.5456 C   0  0  0  0  0  0  0  0  0  0  0  0
   -1.5166    3.3903    2.9518 H   0  0  0  0  0  0  0  0  0  0  0  0
    0.2240    3.3791    3.3257 H   0  0  0  0  0  0  0  0  0  0  0  0
   -0.3477    3.9067    1.7239 H   0  0  0  0  0  0  0  0  0  0  0  0
  5  6  2  0  0  0  0
  5  7  1  0  0  0  0
  2  3  1  0  0  0  0
  2  4  1  0  0  0  0
  2  5  1  0  0  0  0
  1  2  1  0  0  0  0
 26 27  2  0  0  0  0
 26 28  1  0  0  0  0
 23 24  1  0  0  0  0
 23 25  1  0  0  0  0
 20 21  1  0  0  0  0
 20 22  1  0  0  0  0
 20 23  1  0  0  0  0
 17 18  1  0  0  0  0
 17 19  1  0  0  0  0
 17 20  1  0  0  0  0
 14 15  1  0  0  0  0
 14 16  1  0  0  0  0
 14 17  1  0  0  0  0
 11 12  1  0  0  0  0
 11 13  1  0  0  0  0
 11 14  1  0  0  0  0
  9 10  1  0  0  0  0
  9 11  1  0  0  0  0
  9 26  1  0  0  0  0
  7  8  1  0  0  0  0
  7  9  1  0  0  0  0
 30 31  1  0  0  0  0
 30 32  1  0  0  0  0
 30 33  1  0  0  0  0
 28 29  1  0  0  0  0
 28 30  1  0  0  0  0
M  END
$$$$
default_name
  -OEChem-02102213163D

 33 32  0     1  0  0  0  0  0999 V2000
   -3.8420   -3.6918    1.5562 H   0  0  0  0  0  0  0  0  0  0  0  0
   -3.8430   -2.7008    1.1032 C   0  0  0  0  0  0  0  0  0  0  0  0
   -4.5510   -2.0608    1.6242 H   0  0  0  0  0  0  0  0  0  0  0  0
   -4.1140   -2.7798    0.0522 H   0  0  0  0  0  0  0  0  0  0  0  0
   -2.4570   -2.1098    1.2172 C   0  0  0  0  0  0  0  0  0  0  0  0
   -1.5600   -2.7438    1.7572 O   0  0  0  0  0  0  0  0  0  0  0  0
   -2.2870   -0.8898    0.7102 N   0  0  0  0  0  0  0  0  0  0  0  0
   -3.0820   -0.4218    0.2992 H   0  0  0  0  0  0  0  0  0  0  0  0
   -1.0240   -0.1468    0.7262 C   0  0  1  0  0  0  0  0  0  0  0  0
   -0.3583   -0.6100    1.4558 H   0  0  0  0  0  0  0  0  0  0  0  0
   -0.3739   -0.2459   -0.6675 C   0  0  0  0  0  0  0  0  0  0  0  0
   -0.2608    0.7627   -1.0702 H   0  0  0  0  0  0  0  0  0  0  0  0
    0.6190   -0.6872   -0.5706 H   0  0  0  0  0  0  0  0  0  0  0  0
   -1.1998   -1.0713   -1.6664 C   0  0  0  0  0  0  0  0  0  0  0  0
   -1.4698   -0.4493   -2.5203 H   0  0  0  0  0  0  0  0  0  0  0  0
   -0.6026   -1.9162   -2.0143 H   0  0  0  0  0  0  0  0  0  0  0  0
   -2.4833   -1.5965   -1.0133 C   0  0  0  0  0  0  0  0  0  0  0  0
   -2.2296   -2.2149   -0.1518 H   0  0  0  0  0  0  0  0  0  0  0  0
   -3.0948   -0.7553   -0.6854 H   0  0  0  0  0  0  0  0  0  0  0  0
   -3.2721   -2.4328   -2.0191 C   0  0  0  0  0  0  0  0  0  0  0  0
   -3.5425   -1.8123   -2.8719 H   0  0  0  0  0  0  0  0  0  0  0  0
   -2.6565   -3.2632   -2.3611 H   0  0  0  0  0  0  0  0  0  0  0  0
   -4.4976   -2.9717   -1.4183 N   0  0  0  0  0  0  0  0  0  0  0  0
   -4.9992   -3.5056   -2.1128 H   0  0  0  0  0  0  0  0  0  0  0  0
   -4.2509   -3.5740   -0.6459 H   0  0  0  0  0  0  0  0  0  0  0  0
   -1.2712    1.3099    1.1517 C   0  0  0  0  0  0  0  0  0  0  0  0
   -2.2039    1.9448    0.6639 O   0  0  0  0  0  0  0  0  0  0  0  0
   -0.4306    1.8354    2.0503 N   0  0  0  0  0  0  0  0  0  0  0  0
    0.3001    1.2459    2.4139 H   0  0  0  0  0  0  0  0  0  0  0  0
   -0.5192    3.2082    2.5456 C   0  0  0  0  0  0  0  0  0  0  0  0
   -1.5166    3.3903    2.9518 H   0  0  0  0  0  0  0  0  0  0  0  0
    0.2240    3.3791    3.3257 H   0  0  0  0  0  0  0  0  0  0  0  0
   -0.3477    3.9067    1.7239 H   0  0  0  0  0  0  0  0  0  0  0  0
  5  6  2  0  0  0  0
  5  7  1  0  0  0  0
  2  3  1  0  0  0  0
  2  4  1  0  0  0  0
  2  5  1  0  0  0  0
  1  2  1  0  0  0  0
 26 27  2  0  0  0  0
 26 28  1  0  0  0  0
 23 24  1  0  0  0  0
 23 25  1  0  0  0  0
 20 21  1  0  0  0  0
 20 22  1  0  0  0  0
 20 23  1  0  0  0  0
 17 18  1  0  0  0  0
 17 19  1  0  0  0  0
 17 20  1  0  0  0  0
 14 15  1  0  0  0  0
 14 16  1  0  0  0  0
 14 17  1  0  0  0  0
 11 12  1  0  0  0  0
 11 13  1  0  0  0  0
 11 14  1  0  0  0  0
  9 10  1  0  0  0  0
  9 11  1  0  0  0  0
  9 26  1  0  0  0  0
  7  8  1  0  0  0  0
  7  9  1  0  0  0  0
 30 31  1  0  0  0  0
 30 32  1  0  0  0  0
 30 33  1  0  0  0  0
 28 29  1  0  0  0  0
 28 30  1  0  0  0  0
M  END
$$$$
default_name
  -OEChem-02102213163D

 33 32  0     1  0  0  0  0  0999 V2000
   -3.8420   -3.6918    1.5562 H   0  0  0  0  0  0  0  0  0  0  0  0
   -3.8430   -2.7008    1.1032 C   0  0  0  0  0  0  0  0  0  0  0  0
   -4.5510   -2.0608    1.6242 H   0  0  0  0  0  0  0  0  0  0  0  0
   -4.1140   -2.7798    0.0522 H   0  0  0  0  0  0  0  0  0  0  0  0
   -2.4570   -2.1098    1.2172 C   0  0  0  0  0  0  0  0  0  0  0  0
   -1.5600   -2.7438    1.7572 O   0  0  0  0  0  0  0  0  0  0  0  0
   -2.2870   -0.8898    0.7102 N   0  0  0  0  0  0  0  0  0  0  0  0
   -3.0820   -0.4218    0.2992 H   0  0  0  0  0  0  0  0  0  0  0  0
   -1.0240   -0.1468    0.7262 C   0  0  1  0  0  0  0  0  0  0  0  0
   -0.3583   -0.6100    1.4558 H   0  0  0  0  0  0  0  0  0  0  0  0
   -0.3739   -0.2459   -0.6675 C   0  0  0  0  0  0  0  0  0  0  0  0
   -0.2608    0.7627   -1.0702 H   0  0  0  0  0  0  0  0  0  0  0  0
    0.6190   -0.6872   -0.5706 H   0  0  0  0  0  0  0  0  0  0  0  0
   -1.1998   -1.0713   -1.6664 C   0  0  0  0  0  0  0  0  0  0  0  0
   -1.2440   -0.5505   -2.6233 H   0  0  0  0  0  0  0  0  0  0  0  0
   -0.7233   -2.0428   -1.8099 H   0  0  0  0  0  0  0  0  0  0  0  0
   -2.6288   -1.2818   -1.1531 C   0  0  0  0  0  0  0  0  0  0  0  0
   -2.6009   -1.7953   -0.1916 H   0  0  0  0  0  0  0  0  0  0  0  0
   -3.1173   -0.3146   -1.0309 H   0  0  0  0  0  0  0  0  0  0  0  0
   -3.4195   -2.1248   -2.1517 C   0  0  0  0  0  0  0  0  0  0  0  0
   -3.4645   -1.6053   -3.1075 H   0  0  0  0  0  0  0  0  0  0  0  0
   -2.9233   -3.0842   -2.2885 H   0  0  0  0  0  0  0  0  0  0  0  0
   -4.7877   -2.3657   -1.6792 N   0  0  0  0  0  0  0  0  0  0  0  0
   -5.2839   -2.9121   -2.3678 H   0  0  0  0  0  0  0  0  0  0  0  0
   -4.7524   -2.8759   -0.8081 H   0  0  0  0  0  0  0  0  0  0  0  0
   -1.2712    1.3099    1.1517 C   0  0  0  0  0  0  0  0  0  0  0  0
   -2.2039    1.9448    0.6639 O   0  0  0  0  0  0  0  0  0  0  0  0
   -0.4306    1.8354    2.0503 N   0  0  0  0  0  0  0  0  0  0  0  0
    0.3001    1.2459    2.4139 H   0  0  0  0  0  0  0  0  0  0  0  0
   -0.5192    3.2082    2.5456 C   0  0  0  0  0  0  0  0  0  0  0  0
   -1.5166    3.3903    2.9518 H   0  0  0  0  0  0  0  0  0  0  0  0
    0.2240    3.3791    3.3257 H   0  0  0  0  0  0  0  0  0  0  0  0
   -0.3477    3.9067    1.7239 H   0  0  0  0  0  0  0  0  0  0  0  0
  5  6  2  0  0  0  0
  5  7  1  0  0  0  0
  2  3  1  0  0  0  0
  2  4  1  0  0  0  0
  2  5  1  0  0  0  0
  1  2  1  0  0  0  0
 26 27  2  0  0  0  0
 26 28  1  0  0  0  0
 23 24  1  0  0  0  0
 23 25  1  0  0  0  0
 20 21  1  0  0  0  0
 20 22  1  0  0  0  0
 20 23  1  0  0  0  0
 17 18  1  0  0  0  0
 17 19  1  0  0  0  0
 17 20  1  0  0  0  0
 14 15  1  0  0  0  0
 14 16  1  0  0  0  0
 14 17  1  0  0  0  0
 11 12  1  0  0  0  0
 11 13  1  0  0  0  0
 11 14  1  0  0  0  0
  9 10  1  0  0  0  0
  9 11  1  0  0  0  0
  9 26  1  0  0  0  0
  7  8  1  0  0  0  0
  7  9  1  0  0  0  0
 30 31  1  0  0  0  0
 30 32  1  0  0  0  0
 30 33  1  0  0  0  0
 28 29  1  0  0  0  0
 28 30  1  0  0  0  0
M  END
$$$$
default_name
  -OEChem-02102213163D

 33 32  0     1  0  0  0  0  0999 V2000
   -3.8420   -3.6918    1.5562 H   0  0  0  0  0  0  0  0  0  0  0  0
   -3.8430   -2.7008    1.1032 C   0  0  0  0  0  0  0  0  0  0  0  0
   -4.5510   -2.0608    1.6242 H   0  0  0  0  0  0  0  0  0  0  0  0
   -4.1140   -2.7798    0.0522 H   0  0  0  0  0  0  0  0  0  0  0  0
   -2.4570   -2.1098    1.2172 C   0  0  0  0  0  0  0  0  0  0  0  0
   -1.5600   -2.7438    1.7572 O   0  0  0  0  0  0  0  0  0  0  0  0
   -2.2870   -0.8898    0.7102 N   0  0  0  0  0  0  0  0  0  0  0  0
   -3.0820   -0.4218    0.2992 H   0  0  0  0  0  0  0  0  0  0  0  0
   -1.0240   -0.1468    0.7262 C   0  0  1  0  0  0  0  0  0  0  0  0
   -0.3583   -0.6100    1.4558 H   0  0  0  0  0  0  0  0  0  0  0  0
   -0.3739   -0.2459   -0.6675 C   0  0  0  0  0  0  0  0  0  0  0  0
   -0.2608    0.7627   -1.0702 H   0  0  0  0  0  0  0  0  0  0  0  0
    0.6190   -0.6872   -0.5706 H   0  0  0  0  0  0  0  0  0  0  0  0
   -1.1998   -1.0713   -1.6664 C   0  0  0  0  0  0  0  0  0  0  0  0
   -1.0285   -0.7007   -2.6774 H   0  0  0  0  0  0  0  0  0  0  0  0
   -0.8896   -2.1164   -1.6116 H   0  0  0  0  0  0  0  0  0  0  0  0
   -2.6969   -0.9728   -1.3521 C   0  0  0  0  0  0  0  0  0  0  0  0
   -2.8833   -1.3331   -0.3400 H   0  0  0  0  0  0  0  0  0  0  0  0
   -3.0169    0.0667   -1.4290 H   0  0  0  0  0  0  0  0  0  0  0  0
   -3.4916   -1.8209   -2.3432 C   0  0  0  0  0  0  0  0  0  0  0  0
   -3.3215   -1.4512   -3.3531 H   0  0  0  0  0  0  0  0  0  0  0  0
   -3.1609   -2.8563   -2.2803 H   0  0  0  0  0  0  0  0  0  0  0  0
   -4.9296   -1.7679   -2.0558 N   0  0  0  0  0  0  0  0  0  0  0  0
   -5.4236   -2.3264   -2.7363 H   0  0  0  0  0  0  0  0  0  0  0  0
   -5.0967   -2.1397   -1.1316 H   0  0  0  0  0  0  0  0  0  0  0  0
   -1.2712    1.3099    1.1517 C   0  0  0  0  0  0  0  0  0  0  0  0
   -2.2039    1.9448    0.6639 O   0  0  0  0  0  0  0  0  0  0  0  0
   -0.4306    1.8354    2.0503 N   0  0  0  0  0  0  0  0  0  0  0  0
    0.3001    1.2459    2.4139 H   0  0  0  0  0  0  0  0  0  0  0  0
   -0.5192    3.2082    2.5456 C   0  0  0  0  0  0  0  0  0  0  0  0
   -1.5166    3.3903    2.9518 H   0  0  0  0  0  0  0  0  0  0  0  0
    0.2240    3.3791    3.3257 H   0  0  0  0  0  0  0  0  0  0  0  0
   -0.3477    3.9067    1.7239 H   0  0  0  0  0  0  0  0  0  0  0  0
  5  6  2  0  0  0  0
  5  7  1  0  0  0  0
  2  3  1  0  0  0  0
  2  4  1  0  0  0  0
  2  5  1  0  0  0  0
  1  2  1  0  0  0  0
 26 27  2  0  0  0  0
 26 28  1  0  0  0  0
 23 24  1  0  0  0  0
 23 25  1  0  0  0  0
 20 21  1  0  0  0  0
 20 22  1  0  0  0  0
 20 23  1  0  0  0  0
 17 18  1  0  0  0  0
 17 19  1  0  0  0  0
 17 20  1  0  0  0  0
 14 15  1  0  0  0  0
 14 16  1  0  0  0  0
 14 17  1  0  0  0  0
 11 12  1  0  0  0  0
 11 13  1  0  0  0  0
 11 14  1  0  0  0  0
  9 10  1  0  0  0  0
  9 11  1  0  0  0  0
  9 26  1  0  0  0  0
  7  8  1  0  0  0  0
  7  9  1  0  0  0  0
 30 31  1  0  0  0  0
 30 32  1  0  0  0  0
 30 33  1  0  0  0  0
 28 29  1  0  0  0  0
 28 30  1  0  0  0  0
M  END
$$$$
default_name
  -OEChem-02102213163D

 33 32  0     1  0  0  0  0  0999 V2000
   -3.8420   -3.6918    1.5562 H   0  0  0  0  0  0  0  0  0  0  0  0
   -3.8430   -2.7008    1.1032 C   0  0  0  0  0  0  0  0  0  0  0  0
   -4.5510   -2.0608    1.6242 H   0  0  0  0  0  0  0  0  0  0  0  0
   -4.1140   -2.7798    0.0522 H   0  0  0  0  0  0  0  0  0  0  0  0
   -2.4570   -2.1098    1.2172 C   0  0  0  0  0  0  0  0  0  0  0  0
   -1.5600   -2.7438    1.7572 O   0  0  0  0  0  0  0  0  0  0  0  0
   -2.2870   -0.8898    0.7102 N   0  0  0  0  0  0  0  0  0  0  0  0
   -3.0820   -0.4218    0.2992 H   0  0  0  0  0  0  0  0  0  0  0  0
   -1.0240   -0.1468    0.7262 C   0  0  1  0  0  0  0  0  0  0  0  0
   -0.3583   -0.6100    1.4558 H   0  0  0  0  0  0  0  0  0  0  0  0
   -0.3739   -0.2459   -0.6675 C   0  0  0  0  0  0  0  0  0  0  0  0
   -0.2608    0.7627   -1.0702 H   0  0  0  0  0  0  0  0  0  0  0  0
    0.6190   -0.6872   -0.5706 H   0  0  0  0  0  0  0  0  0  0  0  0
   -1.1998   -1.0713   -1.6664 C   0  0  0  0  0  0  0  0  0  0  0  0
   -0.8381   -0.8894   -2.6788 H   0  0  0  0  0  0  0  0  0  0  0  0
   -1.0902   -2.1319   -1.4329 H   0  0  0  0  0  0  0  0  0  0  0  0
   -2.6830   -0.6906   -1.5968 C   0  0  0  0  0  0  0  0  0  0  0  0
   -3.0578   -0.8598   -0.5869 H   0  0  0  0  0  0  0  0  0  0  0  0
   -2.8003    0.3629   -1.8527 H   0  0  0  0  0  0  0  0  0  0  0  0
   -3.4835   -1.5419   -2.5804 C   0  0  0  0  0  0  0  0  0  0  0  0
   -3.1233   -1.3605   -3.5918 H   0  0  0  0  0  0  0  0  0  0  0  0
   -3.3533   -2.5951   -2.3372 H   0  0  0  0  0  0  0  0  0  0  0  0
   -4.9138   -1.2189   -2.5225 N   0  0  0  0  0  0  0  0  0  0  0  0
   -5.4088   -1.7884   -3.1931 H   0  0  0  0  0  0  0  0  0  0  0  0
   -5.2606   -1.4157   -1.5944 H   0  0  0  0  0  0  0  0  0  0  0  0
   -1.2712    1.3099    1.1517 C   0  0  0  0  0  0  0  0  0  0  0  0
   -2.2039    1.9448    0.6639 O   0  0  0  0  0  0  0  0  0  0  0  0
   -0.4306    1.8354    2.0503 N   0  0  0  0  0  0  0  0  0  0  0  0
    0.3001    1.2459    2.4139 H   0  0  0  0  0  0  0  0  0  0  0  0
   -0.5192    3.2082    2.5456 C   0  0  0  0  0  0  0  0  0  0  0  0
   -1.5166    3.3903    2.9518 H   0  0  0  0  0  0  0  0  0  0  0  0
    0.2240    3.3791    3.3257 H   0  0  0  0  0  0  0  0  0  0  0  0
   -0.3477    3.9067    1.7239 H   0  0  0  0  0  0  0  0  0  0  0  0
  5  6  2  0  0  0  0
  5  7  1  0  0  0  0
  2  3  1  0  0  0  0
  2  4  1  0  0  0  0
  2  5  1  0  0  0  0
  1  2  1  0  0  0  0
 26 27  2  0  0  0  0
 26 28  1  0  0  0  0
 23 24  1  0  0  0  0
 23 25  1  0  0  0  0
 20 21  1  0  0  0  0
 20 22  1  0  0  0  0
 20 23  1  0  0  0  0
 17 18  1  0  0  0  0
 17 19  1  0  0  0  0
 17 20  1  0  0  0  0
 14 15  1  0  0  0  0
 14 16  1  0  0  0  0
 14 17  1  0  0  0  0
 11 12  1  0  0  0  0
 11 13  1  0  0  0  0
 11 14  1  0  0  0  0
  9 10  1  0  0  0  0
  9 11  1  0  0  0  0
  9 26  1  0  0  0  0
  7  8  1  0  0  0  0
  7  9  1  0  0  0  0
 30 31  1  0  0  0  0
 30 32  1  0  0  0  0
 30 33  1  0  0  0  0
 28 29  1  0  0  0  0
 28 30  1  0  0  0  0
M  END
$$$$
default_name
  -OEChem-02102213163D

 33 32  0     1  0  0  0  0  0999 V2000
   -3.8420   -3.6918    1.5562 H   0  0  0  0  0  0  0  0  0  0  0  0
   -3.8430   -2.7008    1.1032 C   0  0  0  0  0  0  0  0  0  0  0  0
   -4.5510   -2.0608    1.6242 H   0  0  0  0  0  0  0  0  0  0  0  0
   -4.1140   -2.7798    0.0522 H   0  0  0  0  0  0  0  0  0  0  0  0
   -2.4570   -2.1098    1.2172 C   0  0  0  0  0  0  0  0  0  0  0  0
   -1.5600   -2.7438    1.7572 O   0  0  0  0  0  0  0  0  0  0  0  0
   -2.2870   -0.8898    0.7102 N   0  0  0  0  0  0  0  0  0  0  0  0
   -3.0820   -0.4218    0.2992 H   0  0  0  0  0  0  0  0  0  0  0  0
   -1.0240   -0.1468    0.7262 C   0  0  1  0  0  0  0  0  0  0  0  0
   -0.3583   -0.6100    1.4558 H   0  0  0  0  0  0  0  0  0  0  0  0
   -0.3739   -0.2459   -0.6675 C   0  0  0  0  0  0  0  0  0  0  0  0
   -0.2608    0.7627   -1.0702 H   0  0  0  0  0  0  0  0  0  0  0  0
    0.6190   -0.6872   -0.5706 H   0  0  0  0  0  0  0  0  0  0  0  0
   -1.1998   -1.0713   -1.6664 C   0  0  0  0  0  0  0  0  0  0  0  0
   -0.6858   -1.1040   -2.6275 H   0  0  0  0  0  0  0  0  0  0  0  0
   -1.3114   -2.0883   -1.2860 H   0  0  0  0  0  0  0  0  0  0  0  0
   -2.5881   -0.4543   -1.8704 C   0  0  0  0  0  0  0  0  0  0  0  0
   -3.1123   -0.4076   -0.9154 H   0  0  0  0  0  0  0  0  0  0  0  0
   -2.4825    0.5535   -2.2731 H   0  0  0  0  0  0  0  0  0  0  0  0
   -3.3958   -1.3067   -2.8473 C   0  0  0  0  0  0  0  0  0  0  0  0
   -2.8835   -1.3396   -3.8075 H   0  0  0  0  0  0  0  0  0  0  0  0
   -3.4872   -2.3183   -2.4552 H   0  0  0  0  0  0  0  0  0  0  0  0
   -4.7413   -0.7563   -3.0474 N   0  0  0  0  0  0  0  0  0  0  0  0
   -5.2404   -1.3348   -3.7071 H   0  0  0  0  0  0  0  0  0  0  0  0
   -5.2327   -0.7532   -2.1649 H   0  0  0  0  0  0  0  0  0  0  0  0
   -1.2712    1.3099    1.1517 C   0  0  0  0  0  0  0  0  0  0  0  0
   -2.2039    1.9448    0.6639 O   0  0  0  0  0  0  0  0  0  0  0  0
   -0.4306    1.8354    2.0503 N   0  0  0  0  0  0  0  0  0  0  0  0
    0.3001    1.2459    2.4139 H   0  0  0  0  0  0  0  0  0  0  0  0
   -0.5192    3.2082    2.5456 C   0  0  0  0  0  0  0  0  0  0  0  0
   -1.5166    3.3903    2.9518 H   0  0  0  0  0  0  0  0  0  0  0  0
    0.2240    3.3791    3.3257 H   0  0  0  0  0  0  0  0  0  0  0  0
   -0.3477    3.9067    1.7239 H   0  0  0  0  0  0  0  0  0  0  0  0
  5  6  2  0  0  0  0
  5  7  1  0  0  0  0
  2  3  1  0  0  0  0
  2  4  1  0  0  0  0
  2  5  1  0  0  0  0
  1  2  1  0  0  0  0
 26 27  2  0  0  0  0
 26 28  1  0  0  0  0
 23 24  1  0  0  0  0
 23 25  1  0  0  0  0
 20 21  1  0  0  0  0
 20 22  1  0  0  0  0
 20 23  1  0  0  0  0
 17 18  1  0  0  0  0
 17 19  1  0  0  0  0
 17 20  1  0  0  0  0
 14 15  1  0  0  0  0
 14 16  1  0  0  0  0
 14 17  1  0  0  0  0
 11 12  1  0  0  0  0
 11 13  1  0  0  0  0
 11 14  1  0  0  0  0
  9 10  1  0  0  0  0
  9 11  1  0  0  0  0
  9 26  1  0  0  0  0
  7  8  1  0  0  0  0
  7  9  1  0  0  0  0
 30 31  1  0  0  0  0
 30 32  1  0  0  0  0
 30 33  1  0  0  0  0
 28 29  1  0  0  0  0
 28 30  1  0  0  0  0
M  END
$$$$
default_name
  -OEChem-02102213163D

 33 32  0     1  0  0  0  0  0999 V2000
   -3.8420   -3.6918    1.5562 H   0  0  0  0  0  0  0  0  0  0  0  0
   -3.8430   -2.7008    1.1032 C   0  0  0  0  0  0  0  0  0  0  0  0
   -4.5510   -2.0608    1.6242 H   0  0  0  0  0  0  0  0  0  0  0  0
   -4.1140   -2.7798    0.0522 H   0  0  0  0  0  0  0  0  0  0  0  0
   -2.4570   -2.1098    1.2172 C   0  0  0  0  0  0  0  0  0  0  0  0
   -1.5600   -2.7438    1.7572 O   0  0  0  0  0  0  0  0  0  0  0  0
   -2.2870   -0.8898    0.7102 N   0  0  0  0  0  0  0  0  0  0  0  0
   -3.0820   -0.4218    0.2992 H   0  0  0  0  0  0  0  0  0  0  0  0
   -1.0240   -0.1468    0.7262 C   0  0  1  0  0  0  0  0  0  0  0  0
   -0.3583   -0.6100    1.4558 H   0  0  0  0  0  0  0  0  0  0  0  0
   -0.3739   -0.2459   -0.6675 C   0  0  0  0  0  0  0  0  0  0  0  0
   -0.2608    0.7627   -1.0702 H   0  0  0  0  0  0  0  0  0  0  0  0
    0.6190   -0.6872   -0.5706 H   0  0  0  0  0  0  0  0  0  0  0  0
   -1.1998   -1.0713   -1.6664 C   0  0  0  0  0  0  0  0  0  0  0  0
   -0.5819   -1.3298   -2.5268 H   0  0  0  0  0  0  0  0  0  0  0  0
   -1.5382   -1.9885   -1.1810 H   0  0  0  0  0  0  0  0  0  0  0  0
   -2.4187   -0.2801   -2.1545 C   0  0  0  0  0  0  0  0  0  0  0  0
   -3.0432   -0.0073   -1.3033 H   0  0  0  0  0  0  0  0  0  0  0  0
   -2.0849    0.6257   -2.6614 H   0  0  0  0  0  0  0  0  0  0  0  0
   -3.2344   -1.1314   -3.1255 C   0  0  0  0  0  0  0  0  0  0  0  0
   -2.6183   -1.3896   -3.9853 H   0  0  0  0  0  0  0  0  0  0  0  0
   -3.5536   -2.0448   -2.6263 H   0  0  0  0  0  0  0  0  0  0  0  0
   -4.4238   -0.4114   -3.5948 N   0  0  0  0  0  0  0  0  0  0  0  0
   -4.9300   -0.9965   -4.2433 H   0  0  0  0  0  0  0  0  0  0  0  0
   -5.0149   -0.1973   -2.8042 H   0  0  0  0  0  0  0  0  0  0  0  0
   -1.2712    1.3099    1.1517 C   0  0  0  0  0  0  0  0  0  0  0  0
   -2.2039    1.9448    0.6639 O   0  0  0  0  0  0  0  0  0  0  0  0
   -0.4306    1.8354    2.0503 N   0  0  0  0  0  0  0  0  0  0  0  0
    0.3001    1.2459    2.4139 H   0  0  0  0  0  0  0  0  0  0  0  0
   -0.5192    3.2082    2.5456 C   0  0  0  0  0  0  0  0  0  0  0  0
   -1.5166    3.3903    2.9518 H   0  0  0  0  0  0  0  0  0  0  0  0
    0.2240    3.3791    3.3257 H   0  0  0  0  0  0  0  0  0  0  0  0
   -0.3477    3.9067    1.7239 H   0  0  0  0  0  0  0  0  0  0  0  0
  5  6  2  0  0  0  0
  5  7  1  0  0  0  0
  2  3  1  0  0  0  0
  2  4  1  0  0  0  0
  2  5  1  0  0  0  0
  1  2  1  0  0  0  0
 26 27  2  0  0  0  0
 26 28  1  0  0  0  0
 23 24  1  0  0  0  0
 23 25  1  0  0  0  0
 20 21  1  0  0  0  0
 20 22  1  0  0  0  0
 20 23  1  0  0  0  0
 17 18  1  0  0  0  0
 17 19  1  0  0  0  0
 17 20  1  0  0  0  0
 14 15  1  0  0  0  0
 14 16  1  0  0  0  0
 14 17  1  0  0  0  0
 11 12  1  0  0  0  0
 11 13  1  0  0  0  0
 11 14  1  0  0  0  0
  9 10  1  0  0  0  0
  9 11  1  0  0  0  0
  9 26  1  0  0  0  0
  7  8  1  0  0  0  0
  7  9  1  0  0  0  0
 30 31  1  0  0  0  0
 30 32  1  0  0  0  0
 30 33  1  0  0  0  0
 28 29  1  0  0  0  0
 28 30  1  0  0  0  0
M  END
$$$$
default_name
  -OEChem-02102213163D

 33 32  0     1  0  0  0  0  0999 V2000
   -3.8420   -3.6918    1.5562 H   0  0  0  0  0  0  0  0  0  0  0  0
   -3.8430   -2.7008    1.1032 C   0  0  0  0  0  0  0  0  0  0  0  0
   -4.5510   -2.0608    1.6242 H   0  0  0  0  0  0  0  0  0  0  0  0
   -4.1140   -2.7798    0.0522 H   0  0  0  0  0  0  0  0  0  0  0  0
   -2.4570   -2.1098    1.2172 C   0  0  0  0  0  0  0  0  0  0  0  0
   -1.5600   -2.7438    1.7572 O   0  0  0  0  0  0  0  0  0  0  0  0
   -2.2870   -0.8898    0.7102 N   0  0  0  0  0  0  0  0  0  0  0  0
   -3.0820   -0.4218    0.2992 H   0  0  0  0  0  0  0  0  0  0  0  0
   -1.0240   -0.1468    0.7262 C   0  0  1  0  0  0  0  0  0  0  0  0
   -0.3583   -0.6100    1.4558 H   0  0  0  0  0  0  0  0  0  0  0  0
   -0.3739   -0.2459   -0.6675 C   0  0  0  0  0  0  0  0  0  0  0  0
   -0.2608    0.7627   -1.0702 H   0  0  0  0  0  0  0  0  0  0  0  0
    0.6190   -0.6872   -0.5706 H   0  0  0  0  0  0  0  0  0  0  0  0
   -1.1998   -1.0713   -1.6664 C   0  0  0  0  0  0  0  0  0  0  0  0
   -0.5335   -1.5513   -2.3837 H   0  0  0  0  0  0  0  0  0  0  0  0
   -1.7551   -1.8394   -1.1249 H   0  0  0  0  0  0  0  0  0  0  0  0
   -2.1862   -0.1799   -2.4295 C   0  0  0  0  0  0  0  0  0  0  0  0
   -2.8552    0.3138   -1.7240 H   0  0  0  0  0  0  0  0  0  0  0  0
   -1.6348    0.5745   -2.9913 H   0  0  0  0  0  0  0  0  0  0  0  0
   -3.0103   -1.0280   -3.3963 C   0  0  0  0  0  0  0  0  0  0  0  0
   -2.3458   -1.5074   -4.1133 H   0  0  0  0  0  0  0  0  0  0  0  0
   -3.5479   -1.7933   -2.8388 H   0  0  0  0  0  0  0  0  0  0  0  0
   -3.9830   -0.2079   -4.1274 N   0  0  0  0  0  0  0  0  0  0  0  0
   -4.4988   -0.7965   -4.7651 H   0  0  0  0  0  0  0  0  0  0  0  0
   -4.6222    0.2140   -3.4688 H   0  0  0  0  0  0  0  0  0  0  0  0
   -1.2712    1.3099    1.1517 C   0  0  0  0  0  0  0  0  0  0  0  0
   -2.2039    1.9448    0.6639 O   0  0  0  0  0  0  0  0  0  0  0  0
   -0.4306    1.8354    2.0503 N   0  0  0  0  0  0  0  0  0  0  0  0
    0.3001    1.2459    2.4139 H   0  0  0  0  0  0  0  0  0  0  0  0
   -0.5192    3.2082    2.5456 C   0  0  0  0  0  0  0  0  0  0  0  0
   -1.5166    3.3903    2.9518 H   0  0  0  0  0  0  0  0  0  0  0  0
    0.2240    3.3791    3.3257 H   0  0  0  0  0  0  0  0  0  0  0  0
   -0.3477    3.9067    1.7239 H   0  0  0  0  0  0  0  0  0  0  0  0
  5  6  2  0  0  0  0
  5  7  1  0  0  0  0
  2  3  1  0  0  0  0
  2  4  1  0  0  0  0
  2  5  1  0  0  0  0
  1  2  1  0  0  0  0
 26 27  2  0  0  0  0
 26 28  1  0  0  0  0
 23 24  1  0  0  0  0
 23 25  1  0  0  0  0
 20 21  1  0  0  0  0
 20 22  1  0  0  0  0
 20 23  1  0  0  0  0
 17 18  1  0  0  0  0
 17 19  1  0  0  0  0
 17 20  1  0  0  0  0
 14 15  1  0  0  0  0
 14 16  1  0  0  0  0
 14 17  1  0  0  0  0
 11 12  1  0  0  0  0
 11 13  1  0  0  0  0
 11 14  1  0  0  0  0
  9 10  1  0  0  0  0
  9 11  1  0  0  0  0
  9 26  1  0  0  0  0
  7  8  1  0  0  0  0
  7  9  1  0  0  0  0
 30 31  1  0  0  0  0
 30 32  1  0  0  0  0
 30 33  1  0  0  0  0
 28 29  1  0  0  0  0
 28 30  1  0  0  0  0
M  END
$$$$
default_name
  -OEChem-02102213163D

 33 32  0     1  0  0  0  0  0999 V2000
   -3.8420   -3.6918    1.5562 H   0  0  0  0  0  0  0  0  0  0  0  0
   -3.8430   -2.7008    1.1032 C   0  0  0  0  0  0  0  0  0  0  0  0
   -4.5510   -2.0608    1.6242 H   0  0  0  0  0  0  0  0  0  0  0  0
   -4.1140   -2.7798    0.0522 H   0  0  0  0  0  0  0  0  0  0  0  0
   -2.4570   -2.1098    1.2172 C   0  0  0  0  0  0  0  0  0  0  0  0
   -1.5600   -2.7438    1.7572 O   0  0  0  0  0  0  0  0  0  0  0  0
   -2.2870   -0.8898    0.7102 N   0  0  0  0  0  0  0  0  0  0  0  0
   -3.0820   -0.4218    0.2992 H   0  0  0  0  0  0  0  0  0  0  0  0
   -1.0240   -0.1468    0.7262 C   0  0  1  0  0  0  0  0  0  0  0  0
   -0.3583   -0.6100    1.4558 H   0  0  0  0  0  0  0  0  0  0  0  0
   -0.3739   -0.2459   -0.6675 C   0  0  0  0  0  0  0  0  0  0  0  0
   -0.2608    0.7627   -1.0702 H   0  0  0  0  0  0  0  0  0  0  0  0
    0.6190   -0.6872   -0.5706 H   0  0  0  0  0  0  0  0  0  0  0  0
   -1.1998   -1.0713   -1.6664 C   0  0  0  0  0  0  0  0  0  0  0  0
   -0.5440   -1.7536   -2.2080 H   0  0  0  0  0  0  0  0  0  0  0  0
   -1.9472   -1.6510   -1.1217 H   0  0  0  0  0  0  0  0  0  0  0  0
   -1.9065   -0.1605   -2.6767 C   0  0  0  0  0  0  0  0  0  0  0  0
   -2.5611    0.5338   -2.1489 H   0  0  0  0  0  0  0  0  0  0  0  0
   -1.1627    0.4035   -3.2402 H   0  0  0  0  0  0  0  0  0  0  0  0
   -2.7388   -1.0034   -3.6410 C   0  0  0  0  0  0  0  0  0  0  0  0
   -2.0847   -1.6848   -4.1827 H   0  0  0  0  0  0  0  0  0  0  0  0
   -3.4705   -1.5808   -3.0783 H   0  0  0  0  0  0  0  0  0  0  0  0
   -3.4490   -0.1596   -4.6089 N   0  0  0  0  0  0  0  0  0  0  0  0
   -3.9760   -0.7484   -5.2370 H   0  0  0  0  0  0  0  0  0  0  0  0
   -4.0812    0.4529   -4.1134 H   0  0  0  0  0  0  0  0  0  0  0  0
   -1.2712    1.3099    1.1517 C   0  0  0  0  0  0  0  0  0  0  0  0
   -2.2039    1.9448    0.6639 O   0  0  0  0  0  0  0  0  0  0  0  0
   -0.4306    1.8354    2.0503 N   0  0  0  0  0  0  0  0  0  0  0  0
    0.3001    1.2459    2.4139 H   0  0  0  0  0  0  0  0  0  0  0  0
   -0.5192    3.2082    2.5456 C   0  0  0  0  0  0  0  0  0  0  0  0
   -1.5166    3.3903    2.9518 H   0  0  0  0  0  0  0  0  0  0  0  0
    0.2240    3.3791    3.3257 H   0  0  0  0  0  0  0  0  0  0  0  0
   -0.3477    3.9067    1.7239 H   0  0  0  0  0  0  0  0  0  0  0  0
  5  6  2  0  0  0  0
  5  7  1  0  0  0  0
  2  3  1  0  0  0  0
  2  4  1  0  0  0  0
  2  5  1  0  0  0  0
  1  2  1  0  0  0  0
 26 27  2  0  0  0  0
 26 28  1  0  0  0  0
 23 24  1  0  0  0  0
 23 25  1  0  0  0  0
 20 21  1  0  0  0  0
 20 22  1  0  0  0  0
 20 23  1  0  0  0  0
 17 18  1  0  0  0  0
 17 19  1  0  0  0  0
 17 20  1  0  0  0  0
 14 15  1  0  0  0  0
 14 16  1  0  0  0  0
 14 17  1  0  0  0  0
 11 12  1  0  0  0  0
 11 13  1  0  0  0  0
 11 14  1  0  0  0  0
  9 10  1  0  0  0  0
  9 11  1  0  0  0  0
  9 26  1  0  0  0  0
  7  8  1  0  0  0  0
  7  9  1  0  0  0  0
 30 31  1  0  0  0  0
 30 32  1  0  0  0  0
 30 33  1  0  0  0  0
 28 29  1  0  0  0  0
 28 30  1  0  0  0  0
M  END
$$$$
default_name
  -OEChem-02102213163D

 33 32  0     1  0  0  0  0  0999 V2000
   -3.8420   -3.6918    1.5562 H   0  0  0  0  0  0  0  0  0  0  0  0
   -3.8430   -2.7008    1.1032 C   0  0  0  0  0  0  0  0  0  0  0  0
   -4.5510   -2.0608    1.6242 H   0  0  0  0  0  0  0  0  0  0  0  0
   -4.1140   -2.7798    0.0522 H   0  0  0  0  0  0  0  0  0  0  0  0
   -2.4570   -2.1098    1.2172 C   0  0  0  0  0  0  0  0  0  0  0  0
   -1.5600   -2.7438    1.7572 O   0  0  0  0  0  0  0  0  0  0  0  0
   -2.2870   -0.8898    0.7102 N   0  0  0  0  0  0  0  0  0  0  0  0
   -3.0820   -0.4218    0.2992 H   0  0  0  0  0  0  0  0  0  0  0  0
   -1.0240   -0.1468    0.7262 C   0  0  1  0  0  0  0  0  0  0  0  0
   -0.3583   -0.6100    1.4558 H   0  0  0  0  0  0  0  0  0  0  0  0
   -0.3739   -0.2459   -0.6675 C   0  0  0  0  0  0  0  0  0  0  0  0
   -0.2608    0.7627   -1.0702 H   0  0  0  0  0  0  0  0  0  0  0  0
    0.6190   -0.6872   -0.5706 H   0  0  0  0  0  0  0  0  0  0  0  0
   -1.1998   -1.0713   -1.6664 C   0  0  0  0  0  0  0  0  0  0  0  0
   -0.6125   -1.9227   -2.0116 H   0  0  0  0  0  0  0  0  0  0  0  0
   -2.1016   -1.4363   -1.1715 H   0  0  0  0  0  0  0  0  0  0  0  0
   -1.5988   -0.2232   -2.8794 C   0  0  0  0  0  0  0  0  0  0  0  0
   -2.1810    0.6376   -2.5491 H   0  0  0  0  0  0  0  0  0  0  0  0
   -0.7009    0.1242   -3.3913 H   0  0  0  0  0  0  0  0  0  0  0  0
   -2.4384   -1.0595   -3.8431 C   0  0  0  0  0  0  0  0  0  0  0  0
   -1.8526   -1.9097   -4.1887 H   0  0  0  0  0  0  0  0  0  0  0  0
   -3.3268   -1.4220   -3.3284 H   0  0  0  0  0  0  0  0  0  0  0  0
   -2.8580   -0.2697   -5.0065 N   0  0  0  0  0  0  0  0  0  0  0  0
   -3.3973   -0.8557   -5.6268 H   0  0  0  0  0  0  0  0  0  0  0  0
   -3.4289    0.5029   -4.6941 H   0  0  0  0  0  0  0  0  0  0  0  0
   -1.2712    1.3099    1.1517 C   0  0  0  0  0  0  0  0  0  0  0  0
   -2.2039    1.9448    0.6639 O   0  0  0  0  0  0  0  0  0  0  0  0
   -0.4306    1.8354    2.0503 N   0  0  0  0  0  0  0  0  0  0  0  0
    0.3001    1.2459    2.4139 H   0  0  0  0  0  0  0  0  0  0  0  0
   -0.5192    3.2082    2.5456 C   0  0  0  0  0  0  0  0  0  0  0  0
   -1.5166    3.3903    2.9518 H   0  0  0  0  0  0  0  0  0  0  0  0
    0.2240    3.3791    3.3257 H   0  0  0  0  0  0  0  0  0  0  0  0
   -0.3477    3.9067    1.7239 H   0  0  0  0  0  0  0  0  0  0  0  0
  5  6  2  0  0  0  0
  5  7  1  0  0  0  0
  2  3  1  0  0  0  0
  2  4  1  0  0  0  0
  2  5  1  0  0  0  0
  1  2  1  0  0  0  0
 26 27  2  0  0  0  0
 26 28  1  0  0  0  0
 23 24  1  0  0  0  0
 23 25  1  0  0  0  0
 20 21  1  0  0  0  0
 20 22  1  0  0  0  0
 20 23  1  0  0  0  0
 17 18  1  0  0  0  0
 17 19  1  0  0  0  0
 17 20  1  0  0  0  0
 14 15  1  0  0  0  0
 14 16  1  0  0  0  0
 14 17  1  0  0  0  0
 11 12  1  0  0  0  0
 11 13  1  0  0  0  0
 11 14  1  0  0  0  0
  9 10  1  0  0  0  0
  9 11  1  0  0  0  0
  9 26  1  0  0  0  0
  7  8  1  0  0  0  0
  7  9  1  0  0  0  0
 30 31  1  0  0  0  0
 30 32  1  0  0  0  0
 30 33  1  0  0  0  0
 28 29  1  0  0  0  0
 28 30  1  0  0  0  0
M  END
$$$$
default_name
  -OEChem-02102213163D

 33 32  0     1  0  0  0  0  0999 V2000
   -3.8420   -3.6918    1.5562 H   0  0  0  0  0  0  0  0  0  0  0  0
   -3.8430   -2.7008    1.1032 C   0  0  0  0  0  0  0  0  0  0  0  0
   -4.5510   -2.0608    1.6242 H   0  0  0  0  0  0  0  0  0  0  0  0
   -4.1140   -2.7798    0.0522 H   0  0  0  0  0  0  0  0  0  0  0  0
   -2.4570   -2.1098    1.2172 C   0  0  0  0  0  0  0  0  0  0  0  0
   -1.5600   -2.7438    1.7572 O   0  0  0  0  0  0  0  0  0  0  0  0
   -2.2870   -0.8898    0.7102 N   0  0  0  0  0  0  0  0  0  0  0  0
   -3.0820   -0.4218    0.2992 H   0  0  0  0  0  0  0  0  0  0  0  0
   -1.0240   -0.1468    0.7262 C   0  0  1  0  0  0  0  0  0  0  0  0
   -0.3583   -0.6100    1.4558 H   0  0  0  0  0  0  0  0  0  0  0  0
   -0.3739   -0.2459   -0.6675 C   0  0  0  0  0  0  0  0  0  0  0  0
   -0.2608    0.7627   -1.0702 H   0  0  0  0  0  0  0  0  0  0  0  0
    0.6190   -0.6872   -0.5706 H   0  0  0  0  0  0  0  0  0  0  0  0
   -1.1998   -1.0713   -1.6664 C   0  0  0  0  0  0  0  0  0  0  0  0
   -0.7345   -2.0472   -1.8079 H   0  0  0  0  0  0  0  0  0  0  0  0
   -2.2077   -1.2099   -1.2709 H   0  0  0  0  0  0  0  0  0  0  0  0
   -1.2839   -0.3637   -3.0236 C   0  0  0  0  0  0  0  0  0  0  0  0
   -1.7406    0.6183   -2.8972 H   0  0  0  0  0  0  0  0  0  0  0  0
   -0.2808   -0.2443   -3.4341 H   0  0  0  0  0  0  0  0  0  0  0  0
   -2.1296   -1.1922   -3.9887 C   0  0  0  0  0  0  0  0  0  0  0  0
   -1.6655   -2.1668   -4.1309 H   0  0  0  0  0  0  0  0  0  0  0  0
   -3.1264   -1.3275   -3.5721 H   0  0  0  0  0  0  0  0  0  0  0  0
   -2.2505   -0.5308   -5.2930 N   0  0  0  0  0  0  0  0  0  0  0  0
   -2.8022   -1.1108   -5.9080 H   0  0  0  0  0  0  0  0  0  0  0  0
   -2.7097    0.3606   -5.1712 H   0  0  0  0  0  0  0  0  0  0  0  0
   -1.2712    1.3099    1.1517 C   0  0  0  0  0  0  0  0  0  0  0  0
   -2.2039    1.9448    0.6639 O   0  0  0  0  0  0  0  0  0  0  0  0
   -0.4306    1.8354    2.0503 N   0  0  0  0  0  0  0  0  0  0  0  0
    0.3001    1.2459    2.4139 H   0  0  0  0  0  0  0  0  0  0  0  0
   -0.5192    3.2082    2.5456 C   0  0  0  0  0  0  0  0  0  0  0  0
   -1.5166    3.3903    2.9518 H   0  0  0  0  0  0  0  0  0  0  0  0
    0.2240    3.3791    3.3257 H   0  0  0  0  0  0  0  0  0  0  0  0
   -0.3477    3.9067    1.7239 H   0  0  0  0  0  0  0  0  0  0  0  0
  5  6  2  0  0  0  0
  5  7  1  0  0  0  0
  2  3  1  0  0  0  0
  2  4  1  0  0  0  0
  2  5  1  0  0  0  0
  1  2  1  0  0  0  0
 26 27  2  0  0  0  0
 26 28  1  0  0  0  0
 23 24  1  0  0  0  0
 23 25  1  0  0  0  0
 20 21  1  0  0  0  0
 20 22  1  0  0  0  0
 20 23  1  0  0  0  0
 17 18  1  0  0  0  0
 17 19  1  0  0  0  0
 17 20  1  0  0  0  0
 14 15  1  0  0  0  0
 14 16  1  0  0  0  0
 14 17  1  0  0  0  0
 11 12  1  0  0  0  0
 11 13  1  0  0  0  0
 11 14  1  0  0  0  0
  9 10  1  0  0  0  0
  9 11  1  0  0  0  0
  9 26  1  0  0  0  0
  7  8  1  0  0  0  0
  7  9  1  0  0  0  0
 30 31  1  0  0  0  0
 30 32  1  0  0  0  0
 30 33  1  0  0  0  0
 28 29  1  0  0  0  0
 28 30  1  0  0  0  0
M  END
$$$$
default_name
  -OEChem-02102213163D

 33 32  0     1  0  0  0  0  0999 V2000
   -3.8420   -3.6918    1.5562 H   0  0  0  0  0  0  0  0  0  0  0  0
   -3.8430   -2.7008    1.1032 C   0  0  0  0  0  0  0  0  0  0  0  0
   -4.5510   -2.0608    1.6242 H   0  0  0  0  0  0  0  0  0  0  0  0
   -4.1140   -2.7798    0.0522 H   0  0  0  0  0  0  0  0  0  0  0  0
   -2.4570   -2.1098    1.2172 C   0  0  0  0  0  0  0  0  0  0  0  0
   -1.5600   -2.7438    1.7572 O   0  0  0  0  0  0  0  0  0  0  0  0
   -2.2870   -0.8898    0.7102 N   0  0  0  0  0  0  0  0  0  0  0  0
   -3.0820   -0.4218    0.2992 H   0  0  0  0  0  0  0  0  0  0  0  0
   -1.0240   -0.1468    0.7262 C   0  0  1  0  0  0  0  0  0  0  0  0
   -0.3583   -0.6100    1.4558 H   0  0  0  0  0  0  0  0  0  0  0  0
   -0.3739   -0.2459   -0.6675 C   0  0  0  0  0  0  0  0  0  0  0  0
   -0.2608    0.7627   -1.0702 H   0  0  0  0  0  0  0  0  0  0  0  0
    0.6190   -0.6872   -0.5706 H   0  0  0  0  0  0  0  0  0  0  0  0
   -1.1998   -1.0713   -1.6664 C   0  0  0  0  0  0  0  0  0  0  0  0
   -0.9016   -2.1186   -1.6107 H   0  0  0  0  0  0  0  0  0  0  0  0
   -2.2582   -0.9871   -1.4131 H   0  0  0  0  0  0  0  0  0  0  0  0
   -0.9833   -0.5725   -3.0996 C   0  0  0  0  0  0  0  0  0  0  0  0
   -1.2702    0.4772   -3.1696 H   0  0  0  0  0  0  0  0  0  0  0  0
    0.0689   -0.6769   -3.3658 H   0  0  0  0  0  0  0  0  0  0  0  0
   -1.8334   -1.3927   -4.0680 C   0  0  0  0  0  0  0  0  0  0  0  0
   -1.5360   -2.4386   -4.0134 H   0  0  0  0  0  0  0  0  0  0  0  0
   -2.8831   -1.3038   -3.7928 H   0  0  0  0  0  0  0  0  0  0  0  0
   -1.6678   -0.9251   -5.4490 N   0  0  0  0  0  0  0  0  0  0  0  0
   -2.2312   -1.4965   -6.0614 H   0  0  0  0  0  0  0  0  0  0  0  0
   -1.9725    0.0359   -5.5123 H   0  0  0  0  0  0  0  0  0  0  0  0
   -1.2712    1.3099    1.1517 C   0  0  0  0  0  0  0  0  0  0  0  0
   -2.2039    1.9448    0.6639 O   0  0  0  0  0  0  0  0  0  0  0  0
   -0.4306    1.8354    2.0503 N   0  0  0  0  0  0  0  0  0  0  0  0
    0.3001    1.2459    2.4139 H   0  0  0  0  0  0  0  0  0  0  0  0
   -0.5192    3.2082    2.5456 C   0  0  0  0  0  0  0  0  0  0  0  0
   -1.5166    3.3903    2.9518 H   0  0  0  0  0  0  0  0  0  0  0  0
    0.2240    3.3791    3.3257 H   0  0  0  0  0  0  0  0  0  0  0  0
   -0.3477    3.9067    1.7239 H   0  0  0  0  0  0  0  0  0  0  0  0
  5  6  2  0  0  0  0
  5  7  1  0  0  0  0
  2  3  1  0  0  0  0
  2  4  1  0  0  0  0
  2  5  1  0  0  0  0
  1  2  1  0  0  0  0
 26 27  2  0  0  0  0
 26 28  1  0  0  0  0
 23 24  1  0  0  0  0
 23 25  1  0  0  0  0
 20 21  1  0  0  0  0
 20 22  1  0  0  0  0
 20 23  1  0  0  0  0
 17 18  1  0  0  0  0
 17 19  1  0  0  0  0
 17 20  1  0  0  0  0
 14 15  1  0  0  0  0
 14 16  1  0  0  0  0
 14 17  1  0  0  0  0
 11 12  1  0  0  0  0
 11 13  1  0  0  0  0
 11 14  1  0  0  0  0
  9 10  1  0  0  0  0
  9 11  1  0  0  0  0
  9 26  1  0  0  0  0
  7  8  1  0  0  0  0
  7  9  1  0  0  0  0
 30 31  1  0  0  0  0
 30 32  1  0  0  0  0
 30 33  1  0  0  0  0
 28 29  1  0  0  0  0
 28 30  1  0  0  0  0
M  END
$$$$
default_name
  -OEChem-02102213163D

 33 32  0     1  0  0  0  0  0999 V2000
   -3.8420   -3.6918    1.5562 H   0  0  0  0  0  0  0  0  0  0  0  0
   -3.8430   -2.7008    1.1032 C   0  0  0  0  0  0  0  0  0  0  0  0
   -4.5510   -2.0608    1.6242 H   0  0  0  0  0  0  0  0  0  0  0  0
   -4.1140   -2.7798    0.0522 H   0  0  0  0  0  0  0  0  0  0  0  0
   -2.4570   -2.1098    1.2172 C   0  0  0  0  0  0  0  0  0  0  0  0
   -1.5600   -2.7438    1.7572 O   0  0  0  0  0  0  0  0  0  0  0  0
   -2.2870   -0.8898    0.7102 N   0  0  0  0  0  0  0  0  0  0  0  0
   -3.0820   -0.4218    0.2992 H   0  0  0  0  0  0  0  0  0  0  0  0
   -1.0240   -0.1468    0.7262 C   0  0  1  0  0  0  0  0  0  0  0  0
   -0.3583   -0.6100    1.4558 H   0  0  0  0  0  0  0  0  0  0  0  0
   -0.3739   -0.2459   -0.6675 C   0  0  0  0  0  0  0  0  0  0  0  0
   -0.2608    0.7627   -1.0702 H   0  0  0  0  0  0  0  0  0  0  0  0
    0.6190   -0.6872   -0.5706 H   0  0  0  0  0  0  0  0  0  0  0  0
   -1.1998   -1.0713   -1.6664 C   0  0  0  0  0  0  0  0  0  0  0  0
   -1.1024   -2.1321   -1.4336 H   0  0  0  0  0  0  0  0  0  0  0  0
   -2.2498   -0.7833   -1.5886 H   0  0  0  0  0  0  0  0  0  0  0  0
   -0.7175   -0.8353   -3.1022 C   0  0  0  0  0  0  0  0  0  0  0  0
   -0.8016    0.2238   -3.3476 H   0  0  0  0  0  0  0  0  0  0  0  0
    0.3245   -1.1440   -3.1911 H   0  0  0  0  0  0  0  0  0  0  0  0
   -1.5700   -1.6471   -4.0755 C   0  0  0  0  0  0  0  0  0  0  0  0
   -1.4730   -2.7066   -3.8440 H   0  0  0  0  0  0  0  0  0  0  0  0
   -2.6134   -1.3527   -3.9755 H   0  0  0  0  0  0  0  0  0  0  0  0
   -1.1495   -1.4257   -5.4638 N   0  0  0  0  0  0  0  0  0  0  0  0
   -1.7232   -1.9865   -6.0765 H   0  0  0  0  0  0  0  0  0  0  0  0
   -1.2678   -0.4493   -5.6941 H   0  0  0  0  0  0  0  0  0  0  0  0
   -1.2712    1.3099    1.1517 C   0  0  0  0  0  0  0  0  0  0  0  0
   -2.2039    1.9448    0.6639 O   0  0  0  0  0  0  0  0  0  0  0  0
   -0.4306    1.8354    2.0503 N   0  0  0  0  0  0  0  0  0  0  0  0
    0.3001    1.2459    2.4139 H   0  0  0  0  0  0  0  0  0  0  0  0
   -0.5192    3.2082    2.5456 C   0  0  0  0  0  0  0  0  0  0  0  0
   -1.5166    3.3903    2.9518 H   0  0  0  0  0  0  0  0  0  0  0  0
    0.2240    3.3791    3.3257 H   0  0  0  0  0  0  0  0  0  0  0  0
   -0.3477    3.9067    1.7239 H   0  0  0  0  0  0  0  0  0  0  0  0
  5  6  2  0  0  0  0
  5  7  1  0  0  0  0
  2  3  1  0  0  0  0
  2  4  1  0  0  0  0
  2  5  1  0  0  0  0
  1  2  1  0  0  0  0
 26 27  2  0  0  0  0
 26 28  1  0  0  0  0
 23 24  1  0  0  0  0
 23 25  1  0  0  0  0
 20 21  1  0  0  0  0
 20 22  1  0  0  0  0
 20 23  1  0  0  0  0
 17 18  1  0  0  0  0
 17 19  1  0  0  0  0
 17 20  1  0  0  0  0
 14 15  1  0  0  0  0
 14 16  1  0  0  0  0
 14 17  1  0  0  0  0
 11 12  1  0  0  0  0
 11 13  1  0  0  0  0
 11 14  1  0  0  0  0
  9 10  1  0  0  0  0
  9 11  1  0  0  0  0
  9 26  1  0  0  0  0
  7  8  1  0  0  0  0
  7  9  1  0  0  0  0
 30 31  1  0  0  0  0
 30 32  1  0  0  0  0
 30 33  1  0  0  0  0
 28 29  1  0  0  0  0
 28 30  1  0  0  0  0
M  END
$$$$
default_name
  -OEChem-02102213163D

 33 32  0     1  0  0  0  0  0999 V2000
   -3.8420   -3.6918    1.5562 H   0  0  0  0  0  0  0  0  0  0  0  0
   -3.8430   -2.7008    1.1032 C   0  0  0  0  0  0  0  0  0  0  0  0
   -4.5510   -2.0608    1.6242 H   0  0  0  0  0  0  0  0  0  0  0  0
   -4.1140   -2.7798    0.0522 H   0  0  0  0  0  0  0  0  0  0  0  0
   -2.4570   -2.1098    1.2172 C   0  0  0  0  0  0  0  0  0  0  0  0
   -1.5600   -2.7438    1.7572 O   0  0  0  0  0  0  0  0  0  0  0  0
   -2.2870   -0.8898    0.7102 N   0  0  0  0  0  0  0  0  0  0  0  0
   -3.0820   -0.4218    0.2992 H   0  0  0  0  0  0  0  0  0  0  0  0
   -1.0240   -0.1468    0.7262 C   0  0  1  0  0  0  0  0  0  0  0  0
   -0.3583   -0.6100    1.4558 H   0  0  0  0  0  0  0  0  0  0  0  0
   -0.3739   -0.2459   -0.6675 C   0  0  0  0  0  0  0  0  0  0  0  0
   -0.0169    0.7451   -0.9552 H   0  0  0  0  0  0  0  0  0  0  0  0
    0.4854   -0.9159   -0.6167 H   0  0  0  0  0  0  0  0  0  0  0  0
   -1.3395   -0.7422   -1.7550 C   0  0  0  0  0  0  0  0  0  0  0  0
   -1.7074   -1.7345   -1.4928 H   0  0  0  0  0  0  0  0  0  0  0  0
   -2.1845   -0.0548   -1.8256 H   0  0  0  0  0  0  0  0  0  0  0  0
   -0.6380   -0.8200   -3.1157 C   0  0  0  0  0  0  0  0  0  0  0  0
   -0.2572    0.1647   -3.3886 H   0  0  0  0  0  0  0  0  0  0  0  0
    0.1927   -1.5238   -3.0568 H   0  0  0  0  0  0  0  0  0  0  0  0
   -1.6252   -1.2914   -4.1817 C   0  0  0  0  0  0  0  0  0  0  0  0
   -1.9929   -2.2825   -3.9209 H   0  0  0  0  0  0  0  0  0  0  0  0
   -2.4643   -0.5992   -4.2296 H   0  0  0  0  0  0  0  0  0  0  0  0
   -0.9913   -1.3546   -5.5036 N   0  0  0  0  0  0  0  0  0  0  0  0
   -1.6665   -1.6820   -6.1788 H   0  0  0  0  0  0  0  0  0  0  0  0
   -0.6767   -0.4309   -5.7647 H   0  0  0  0  0  0  0  0  0  0  0  0
   -1.2712    1.3099    1.1517 C   0  0  0  0  0  0  0  0  0  0  0  0
   -2.2039    1.9448    0.6639 O   0  0  0  0  0  0  0  0  0  0  0  0
   -0.4306    1.8354    2.0503 N   0  0  0  0  0  0  0  0  0  0  0  0
    0.3001    1.2459    2.4139 H   0  0  0  0  0  0  0  0  0  0  0  0
   -0.5192    3.2082    2.5456 C   0  0  0  0  0  0  0  0  0  0  0  0
   -1.5166    3.3903    2.9518 H   0  0  0  0  0  0  0  0  0  0  0  0
    0.2240    3.3791    3.3257 H   0  0  0  0  0  0  0  0  0  0  0  0
   -0.3477    3.9067    1.7239 H   0  0  0  0  0  0  0  0  0  0  0  0
  5  6  2  0  0  0  0
  5  7  1  0  0  0  0
  2  3  1  0  0  0  0
  2  4  1  0  0  0  0
  2  5  1  0  0  0  0
  1  2  1  0  0  0  0
 26 27  2  0  0  0  0
 26 28  1  0  0  0  0
 23 24  1  0  0  0  0
 23 25  1  0  0  0  0
 20 21  1  0  0  0  0
 20 22  1  0  0  0  0
 20 23  1  0  0  0  0
 17 18  1  0  0  0  0
 17 19  1  0  0  0  0
 17 20  1  0  0  0  0
 14 15  1  0  0  0  0
 14 16  1  0  0  0  0
 14 17  1  0  0  0  0
 11 12  1  0  0  0  0
 11 13  1  0  0  0  0
 11 14  1  0  0  0  0
  9 10  1  0  0  0  0
  9 11  1  0  0  0  0
  9 26  1  0  0  0  0
  7  8  1  0  0  0  0
  7  9  1  0  0  0  0
 30 31  1  0  0  0  0
 30 32  1  0  0  0  0
 30 33  1  0  0  0  0
 28 29  1  0  0  0  0
 28 30  1  0  0  0  0
M  END
$$$$
default_name
  -OEChem-02102213163D

 33 32  0     1  0  0  0  0  0999 V2000
   -3.8420   -3.6918    1.5562 H   0  0  0  0  0  0  0  0  0  0  0  0
   -3.8430   -2.7008    1.1032 C   0  0  0  0  0  0  0  0  0  0  0  0
   -4.5510   -2.0608    1.6242 H   0  0  0  0  0  0  0  0  0  0  0  0
   -4.1140   -2.7798    0.0522 H   0  0  0  0  0  0  0  0  0  0  0  0
   -2.4570   -2.1098    1.2172 C   0  0  0  0  0  0  0  0  0  0  0  0
   -1.5600   -2.7438    1.7572 O   0  0  0  0  0  0  0  0  0  0  0  0
   -2.2870   -0.8898    0.7102 N   0  0  0  0  0  0  0  0  0  0  0  0
   -3.0820   -0.4218    0.2992 H   0  0  0  0  0  0  0  0  0  0  0  0
   -1.0240   -0.1468    0.7262 C   0  0  1  0  0  0  0  0  0  0  0  0
   -0.3583   -0.6100    1.4558 H   0  0  0  0  0  0  0  0  0  0  0  0
   -0.3739   -0.2459   -0.6675 C   0  0  0  0  0  0  0  0  0  0  0  0
   -0.0169    0.7451   -0.9552 H   0  0  0  0  0  0  0  0  0  0  0  0
    0.4854   -0.9159   -0.6167 H   0  0  0  0  0  0  0  0  0  0  0  0
   -1.3395   -0.7422   -1.7550 C   0  0  0  0  0  0  0  0  0  0  0  0
   -1.9064   -1.5947   -1.3799 H   0  0  0  0  0  0  0  0  0  0  0  0
   -2.0316    0.0611   -2.0143 H   0  0  0  0  0  0  0  0  0  0  0  0
   -0.5742   -1.1731   -3.0113 C   0  0  0  0  0  0  0  0  0  0  0  0
    0.0047   -0.3321   -3.3944 H   0  0  0  0  0  0  0  0  0  0  0  0
    0.1016   -1.9919   -2.7623 H   0  0  0  0  0  0  0  0  0  0  0  0
   -1.5577   -1.6378   -4.0836 C   0  0  0  0  0  0  0  0  0  0  0  0
   -2.1240   -2.4895   -3.7100 H   0  0  0  0  0  0  0  0  0  0  0  0
   -2.2446   -0.8271   -4.3207 H   0  0  0  0  0  0  0  0  0  0  0  0
   -0.8584   -2.0361   -5.3106 N   0  0  0  0  0  0  0  0  0  0  0  0
   -1.5357   -2.3496   -5.9903 H   0  0  0  0  0  0  0  0  0  0  0  0
   -0.3568   -1.2405   -5.6792 H   0  0  0  0  0  0  0  0  0  0  0  0
   -1.2712    1.3099    1.1517 C   0  0  0  0  0  0  0  0  0  0  0  0
   -2.2039    1.9448    0.6639 O   0  0  0  0  0  0  0  0  0  0  0  0
   -0.4306    1.8354    2.0503 N   0  0  0  0  0  0  0  0  0  0  0  0
    0.3001    1.2459    2.4139 H   0  0  0  0  0  0  0  0  0  0  0  0
   -0.5192    3.2082    2.5456 C   0  0  0  0  0  0  0  0  0  0  0  0
   -1.5166    3.3903    2.9518 H   0  0  0  0  0  0  0  0  0  0  0  0
    0.2240    3.3791    3.3257 H   0  0  0  0  0  0  0  0  0  0  0  0
   -0.3477    3.9067    1.7239 H   0  0  0  0  0  0  0  0  0  0  0  0
  5  6  2  0  0  0  0
  5  7  1  0  0  0  0
  2  3  1  0  0  0  0
  2  4  1  0  0  0  0
  2  5  1  0  0  0  0
  1  2  1  0  0  0  0
 26 27  2  0  0  0  0
 26 28  1  0  0  0  0
 23 24  1  0  0  0  0
 23 25  1  0  0  0  0
 20 21  1  0  0  0  0
 20 22  1  0  0  0  0
 20 23  1  0  0  0  0
 17 18  1  0  0  0  0
 17 19  1  0  0  0  0
 17 20  1  0  0  0  0
 14 15  1  0  0  0  0
 14 16  1  0  0  0  0
 14 17  1  0  0  0  0
 11 12  1  0  0  0  0
 11 13  1  0  0  0  0
 11 14  1  0  0  0  0
  9 10  1  0  0  0  0
  9 11  1  0  0  0  0
  9 26  1  0  0  0  0
  7  8  1  0  0  0  0
  7  9  1  0  0  0  0
 30 31  1  0  0  0  0
 30 32  1  0  0  0  0
 30 33  1  0  0  0  0
 28 29  1  0  0  0  0
 28 30  1  0  0  0  0
M  END
$$$$
default_name
  -OEChem-02102213163D

 33 32  0     1  0  0  0  0  0999 V2000
   -3.8420   -3.6918    1.5562 H   0  0  0  0  0  0  0  0  0  0  0  0
   -3.8430   -2.7008    1.1032 C   0  0  0  0  0  0  0  0  0  0  0  0
   -4.5510   -2.0608    1.6242 H   0  0  0  0  0  0  0  0  0  0  0  0
   -4.1140   -2.7798    0.0522 H   0  0  0  0  0  0  0  0  0  0  0  0
   -2.4570   -2.1098    1.2172 C   0  0  0  0  0  0  0  0  0  0  0  0
   -1.5600   -2.7438    1.7572 O   0  0  0  0  0  0  0  0  0  0  0  0
   -2.2870   -0.8898    0.7102 N   0  0  0  0  0  0  0  0  0  0  0  0
   -3.0820   -0.4218    0.2992 H   0  0  0  0  0  0  0  0  0  0  0  0
   -1.0240   -0.1468    0.7262 C   0  0  1  0  0  0  0  0  0  0  0  0
   -0.3583   -0.6100    1.4558 H   0  0  0  0  0  0  0  0  0  0  0  0
   -0.3739   -0.2459   -0.6675 C   0  0  0  0  0  0  0  0  0  0  0  0
   -0.0169    0.7451   -0.9552 H   0  0  0  0  0  0  0  0  0  0  0  0
    0.4854   -0.9159   -0.6167 H   0  0  0  0  0  0  0  0  0  0  0  0
   -1.3395   -0.7422   -1.7550 C   0  0  0  0  0  0  0  0  0  0  0  0
   -2.0824   -1.4048   -1.3102 H   0  0  0  0  0  0  0  0  0  0  0  0
   -1.8469    0.1144   -2.2026 H   0  0  0  0  0  0  0  0  0  0  0  0
   -0.5859   -1.5090   -2.8476 C   0  0  0  0  0  0  0  0  0  0  0  0
    0.1671   -0.8610   -3.2972 H   0  0  0  0  0  0  0  0  0  0  0  0
   -0.0968   -2.3794   -2.4094 H   0  0  0  0  0  0  0  0  0  0  0  0
   -1.5641   -1.9689   -3.9268 C   0  0  0  0  0  0  0  0  0  0  0  0
   -2.3062   -2.6311   -3.4837 H   0  0  0  0  0  0  0  0  0  0  0  0
   -2.0665   -1.1022   -4.3532 H   0  0  0  0  0  0  0  0  0  0  0  0
   -0.8709   -2.6873   -5.0023 N   0  0  0  0  0  0  0  0  0  0  0  0
   -1.5474   -2.9878   -5.6887 H   0  0  0  0  0  0  0  0  0  0  0  0
   -0.2033   -2.0673   -5.4383 H   0  0  0  0  0  0  0  0  0  0  0  0
   -1.2712    1.3099    1.1517 C   0  0  0  0  0  0  0  0  0  0  0  0
   -2.2039    1.9448    0.6639 O   0  0  0  0  0  0  0  0  0  0  0  0
   -0.4306    1.8354    2.0503 N   0  0  0  0  0  0  0  0  0  0  0  0
    0.3001    1.2459    2.4139 H   0  0  0  0  0  0  0  0  0  0  0  0
   -0.5192    3.2082    2.5456 C   0  0  0  0  0  0  0  0  0  0  0  0
   -1.5166    3.3903    2.9518 H   0  0  0  0  0  0  0  0  0  0  0  0
    0.2240    3.3791    3.3257 H   0  0  0  0  0  0  0  0  0  0  0  0
   -0.3477    3.9067    1.7239 H   0  0  0  0  0  0  0  0  0  0  0  0
  5  6  2  0  0  0  0
  5  7  1  0  0  0  0
  2  3  1  0  0  0  0
  2  4  1  0  0  0  0
  2  5  1  0  0  0  0
  1  2  1  0  0  0  0
 26 27  2  0  0  0  0
 26 28  1  0  0  0  0
 23 24  1  0  0  0  0
 23 25  1  0  0  0  0
 20 21  1  0  0  0  0
 20 22  1  0  0  0  0
 20 23  1  0  0  0  0
 17 18  1  0  0  0  0
 17 19  1  0  0  0  0
 17 20  1  0  0  0  0
 14 15  1  0  0  0  0
 14 16  1  0  0  0  0
 14 17  1  0  0  0  0
 11 12  1  0  0  0  0
 11 13  1  0  0  0  0
 11 14  1  0  0  0  0
  9 10  1  0  0  0  0
  9 11  1  0  0  0  0
  9 26  1  0  0  0  0
  7  8  1  0  0  0  0
  7  9  1  0  0  0  0
 30 31  1  0  0  0  0
 30 32  1  0  0  0  0
 30 33  1  0  0  0  0
 28 29  1  0  0  0  0
 28 30  1  0  0  0  0
M  END
$$$$
default_name
  -OEChem-02102213163D

 33 32  0     1  0  0  0  0  0999 V2000
   -3.8420   -3.6918    1.5562 H   0  0  0  0  0  0  0  0  0  0  0  0
   -3.8430   -2.7008    1.1032 C   0  0  0  0  0  0  0  0  0  0  0  0
   -4.5510   -2.0608    1.6242 H   0  0  0  0  0  0  0  0  0  0  0  0
   -4.1140   -2.7798    0.0522 H   0  0  0  0  0  0  0  0  0  0  0  0
   -2.4570   -2.1098    1.2172 C   0  0  0  0  0  0  0  0  0  0  0  0
   -1.5600   -2.7438    1.7572 O   0  0  0  0  0  0  0  0  0  0  0  0
   -2.2870   -0.8898    0.7102 N   0  0  0  0  0  0  0  0  0  0  0  0
   -3.0820   -0.4218    0.2992 H   0  0  0  0  0  0  0  0  0  0  0  0
   -1.0240   -0.1468    0.7262 C   0  0  1  0  0  0  0  0  0  0  0  0
   -0.3583   -0.6100    1.4558 H   0  0  0  0  0  0  0  0  0  0  0  0
   -0.3739   -0.2459   -0.6675 C   0  0  0  0  0  0  0  0  0  0  0  0
   -0.0169    0.7451   -0.9552 H   0  0  0  0  0  0  0  0  0  0  0  0
    0.4854   -0.9159   -0.6167 H   0  0  0  0  0  0  0  0  0  0  0  0
   -1.3395   -0.7422   -1.7550 C   0  0  0  0  0  0  0  0  0  0  0  0
   -2.2235   -1.1778   -1.2885 H   0  0  0  0  0  0  0  0  0  0  0  0
   -1.6430    0.1014   -2.3777 H   0  0  0  0  0  0  0  0  0  0  0  0
   -0.6724   -1.8046   -2.6359 C   0  0  0  0  0  0  0  0  0  0  0  0
    0.2189   -1.3857   -3.1039 H   0  0  0  0  0  0  0  0  0  0  0  0
   -0.3888   -2.6600   -2.0221 H   0  0  0  0  0  0  0  0  0  0  0  0
   -1.6440   -2.2620   -3.7221 C   0  0  0  0  0  0  0  0  0  0  0  0
   -2.5270   -2.6976   -3.2572 H   0  0  0  0  0  0  0  0  0  0  0  0
   -1.9422   -1.4058   -4.3251 H   0  0  0  0  0  0  0  0  0  0  0  0
   -1.0282   -3.2640   -4.5996 N   0  0  0  0  0  0  0  0  0  0  0  0
   -1.7008   -3.5530   -5.2946 H   0  0  0  0  0  0  0  0  0  0  0  0
   -0.2265   -2.8548   -5.0583 H   0  0  0  0  0  0  0  0  0  0  0  0
   -1.2712    1.3099    1.1517 C   0  0  0  0  0  0  0  0  0  0  0  0
   -2.2039    1.9448    0.6639 O   0  0  0  0  0  0  0  0  0  0  0  0
   -0.4306    1.8354    2.0503 N   0  0  0  0  0  0  0  0  0  0  0  0
    0.3001    1.2459    2.4139 H   0  0  0  0  0  0  0  0  0  0  0  0
   -0.5192    3.2082    2.5456 C   0  0  0  0  0  0  0  0  0  0  0  0
   -1.5166    3.3903    2.9518 H   0  0  0  0  0  0  0  0  0  0  0  0
    0.2240    3.3791    3.3257 H   0  0  0  0  0  0  0  0  0  0  0  0
   -0.3477    3.9067    1.7239 H   0  0  0  0  0  0  0  0  0  0  0  0
  5  6  2  0  0  0  0
  5  7  1  0  0  0  0
  2  3  1  0  0  0  0
  2  4  1  0  0  0  0
  2  5  1  0  0  0  0
  1  2  1  0  0  0  0
 26 27  2  0  0  0  0
 26 28  1  0  0  0  0
 23 24  1  0  0  0  0
 23 25  1  0  0  0  0
 20 21  1  0  0  0  0
 20 22  1  0  0  0  0
 20 23  1  0  0  0  0
 17 18  1  0  0  0  0
 17 19  1  0  0  0  0
 17 20  1  0  0  0  0
 14 15  1  0  0  0  0
 14 16  1  0  0  0  0
 14 17  1  0  0  0  0
 11 12  1  0  0  0  0
 11 13  1  0  0  0  0
 11 14  1  0  0  0  0
  9 10  1  0  0  0  0
  9 11  1  0  0  0  0
  9 26  1  0  0  0  0
  7  8  1  0  0  0  0
  7  9  1  0  0  0  0
 30 31  1  0  0  0  0
 30 32  1  0  0  0  0
 30 33  1  0  0  0  0
 28 29  1  0  0  0  0
 28 30  1  0  0  0  0
M  END
$$$$
default_name
  -OEChem-02102213163D

 33 32  0     1  0  0  0  0  0999 V2000
   -3.8420   -3.6918    1.5562 H   0  0  0  0  0  0  0  0  0  0  0  0
   -3.8430   -2.7008    1.1032 C   0  0  0  0  0  0  0  0  0  0  0  0
   -4.5510   -2.0608    1.6242 H   0  0  0  0  0  0  0  0  0  0  0  0
   -4.1140   -2.7798    0.0522 H   0  0  0  0  0  0  0  0  0  0  0  0
   -2.4570   -2.1098    1.2172 C   0  0  0  0  0  0  0  0  0  0  0  0
   -1.5600   -2.7438    1.7572 O   0  0  0  0  0  0  0  0  0  0  0  0
   -2.2870   -0.8898    0.7102 N   0  0  0  0  0  0  0  0  0  0  0  0
   -3.0820   -0.4218    0.2992 H   0  0  0  0  0  0  0  0  0  0  0  0
   -1.0240   -0.1468    0.7262 C   0  0  1  0  0  0  0  0  0  0  0  0
   -0.3583   -0.6100    1.4558 H   0  0  0  0  0  0  0  0  0  0  0  0
   -0.3739   -0.2459   -0.6675 C   0  0  0  0  0  0  0  0  0  0  0  0
   -0.0169    0.7451   -0.9552 H   0  0  0  0  0  0  0  0  0  0  0  0
    0.4854   -0.9159   -0.6167 H   0  0  0  0  0  0  0  0  0  0  0  0
   -1.3395   -0.7422   -1.7550 C   0  0  0  0  0  0  0  0  0  0  0  0
   -2.3200   -0.9292   -1.3163 H   0  0  0  0  0  0  0  0  0  0  0  0
   -1.4338    0.0230   -2.5277 H   0  0  0  0  0  0  0  0  0  0  0  0
   -0.8279   -2.0399   -2.3905 C   0  0  0  0  0  0  0  0  0  0  0  0
    0.1568   -1.8706   -2.8274 H   0  0  0  0  0  0  0  0  0  0  0  0
   -0.7547   -2.8145   -1.6267 H   0  0  0  0  0  0  0  0  0  0  0  0
   -1.7921   -2.4972   -3.4834 C   0  0  0  0  0  0  0  0  0  0  0  0
   -2.7714   -2.6847   -3.0461 H   0  0  0  0  0  0  0  0  0  0  0  0
   -1.8800   -1.7174   -4.2381 H   0  0  0  0  0  0  0  0  0  0  0  0
   -1.3193   -3.7267   -4.1300 N   0  0  0  0  0  0  0  0  0  0  0  0
   -1.9854   -4.0067   -4.8349 H   0  0  0  0  0  0  0  0  0  0  0  0
   -0.4251   -3.5495   -4.5650 H   0  0  0  0  0  0  0  0  0  0  0  0
   -1.2712    1.3099    1.1517 C   0  0  0  0  0  0  0  0  0  0  0  0
   -2.2039    1.9448    0.6639 O   0  0  0  0  0  0  0  0  0  0  0  0
   -0.4306    1.8354    2.0503 N   0  0  0  0  0  0  0  0  0  0  0  0
    0.3001    1.2459    2.4139 H   0  0  0  0  0  0  0  0  0  0  0  0
   -0.5192    3.2082    2.5456 C   0  0  0  0  0  0  0  0  0  0  0  0
   -1.5166    3.3903    2.9518 H   0  0  0  0  0  0  0  0  0  0  0  0
    0.2240    3.3791    3.3257 H   0  0  0  0  0  0  0  0  0  0  0  0
   -0.3477    3.9067    1.7239 H   0  0  0  0  0  0  0  0  0  0  0  0
  5  6  2  0  0  0  0
  5  7  1  0  0  0  0
  2  3  1  0  0  0  0
  2  4  1  0  0  0  0
  2  5  1  0  0  0  0
  1  2  1  0  0  0  0
 26 27  2  0  0  0  0
 26 28  1  0  0  0  0
 23 24  1  0  0  0  0
 23 25  1  0  0  0  0
 20 21  1  0  0  0  0
 20 22  1  0  0  0  0
 20 23  1  0  0  0  0
 17 18  1  0  0  0  0
 17 19  1  0  0  0  0
 17 20  1  0  0  0  0
 14 15  1  0  0  0  0
 14 16  1  0  0  0  0
 14 17  1  0  0  0  0
 11 12  1  0  0  0  0
 11 13  1  0  0  0  0
 11 14  1  0  0  0  0
  9 10  1  0  0  0  0
  9 11  1  0  0  0  0
  9 26  1  0  0  0  0
  7  8  1  0  0  0  0
  7  9  1  0  0  0  0
 30 31  1  0  0  0  0
 30 32  1  0  0  0  0
 30 33  1  0  0  0  0
 28 29  1  0  0  0  0
 28 30  1  0  0  0  0
M  END
$$$$
default_name
  -OEChem-02102213163D

 33 32  0     1  0  0  0  0  0999 V2000
   -3.8420   -3.6918    1.5562 H   0  0  0  0  0  0  0  0  0  0  0  0
   -3.8430   -2.7008    1.1032 C   0  0  0  0  0  0  0  0  0  0  0  0
   -4.5510   -2.0608    1.6242 H   0  0  0  0  0  0  0  0  0  0  0  0
   -4.1140   -2.7798    0.0522 H   0  0  0  0  0  0  0  0  0  0  0  0
   -2.4570   -2.1098    1.2172 C   0  0  0  0  0  0  0  0  0  0  0  0
   -1.5600   -2.7438    1.7572 O   0  0  0  0  0  0  0  0  0  0  0  0
   -2.2870   -0.8898    0.7102 N   0  0  0  0  0  0  0  0  0  0  0  0
   -3.0820   -0.4218    0.2992 H   0  0  0  0  0  0  0  0  0  0  0  0
   -1.0240   -0.1468    0.7262 C   0  0  1  0  0  0  0  0  0  0  0  0
   -0.3583   -0.6100    1.4558 H   0  0  0  0  0  0  0  0  0  0  0  0
   -0.3739   -0.2459   -0.6675 C   0  0  0  0  0  0  0  0  0  0  0  0
   -0.0169    0.7451   -0.9552 H   0  0  0  0  0  0  0  0  0  0  0  0
    0.4854   -0.9159   -0.6167 H   0  0  0  0  0  0  0  0  0  0  0  0
   -1.3395   -0.7422   -1.7550 C   0  0  0  0  0  0  0  0  0  0  0  0
   -2.3654   -0.6759   -1.3916 H   0  0  0  0  0  0  0  0  0  0  0  0
   -1.2335   -0.1154   -2.6424 H   0  0  0  0  0  0  0  0  0  0  0  0
   -1.0416   -2.1988   -2.1283 C   0  0  0  0  0  0  0  0  0  0  0  0
   -0.0152   -2.2827   -2.4867 H   0  0  0  0  0  0  0  0  0  0  0  0
   -1.1695   -2.8325   -1.2502 H   0  0  0  0  0  0  0  0  0  0  0  0
   -1.9981   -2.6584   -3.2269 C   0  0  0  0  0  0  0  0  0  0  0  0
   -3.0228   -2.5930   -2.8648 H   0  0  0  0  0  0  0  0  0  0  0  0
   -1.8843   -2.0155   -4.0982 H   0  0  0  0  0  0  0  0  0  0  0  0
   -1.7245   -4.0439   -3.6255 N   0  0  0  0  0  0  0  0  0  0  0  0
   -2.3819   -4.3181   -4.3407 H   0  0  0  0  0  0  0  0  0  0  0  0
   -0.7853   -4.1039   -3.9923 H   0  0  0  0  0  0  0  0  0  0  0  0
   -1.2712    1.3099    1.1517 C   0  0  0  0  0  0  0  0  0  0  0  0
   -2.2039    1.9448    0.6639 O   0  0  0  0  0  0  0  0  0  0  0  0
   -0.4306    1.8354    2.0503 N   0  0  0  0  0  0  0  0  0  0  0  0
    0.3001    1.2459    2.4139 H   0  0  0  0  0  0  0  0  0  0  0  0
   -0.5192    3.2082    2.5456 C   0  0  0  0  0  0  0  0  0  0  0  0
   -1.5166    3.3903    2.9518 H   0  0  0  0  0  0  0  0  0  0  0  0
    0.2240    3.3791    3.3257 H   0  0  0  0  0  0  0  0  0  0  0  0
   -0.3477    3.9067    1.7239 H   0  0  0  0  0  0  0  0  0  0  0  0
  5  6  2  0  0  0  0
  5  7  1  0  0  0  0
  2  3  1  0  0  0  0
  2  4  1  0  0  0  0
  2  5  1  0  0  0  0
  1  2  1  0  0  0  0
 26 27  2  0  0  0  0
 26 28  1  0  0  0  0
 23 24  1  0  0  0  0
 23 25  1  0  0  0  0
 20 21  1  0  0  0  0
 20 22  1  0  0  0  0
 20 23  1  0  0  0  0
 17 18  1  0  0  0  0
 17 19  1  0  0  0  0
 17 20  1  0  0  0  0
 14 15  1  0  0  0  0
 14 16  1  0  0  0  0
 14 17  1  0  0  0  0
 11 12  1  0  0  0  0
 11 13  1  0  0  0  0
 11 14  1  0  0  0  0
  9 10  1  0  0  0  0
  9 11  1  0  0  0  0
  9 26  1  0  0  0  0
  7  8  1  0  0  0  0
  7  9  1  0  0  0  0
 30 31  1  0  0  0  0
 30 32  1  0  0  0  0
 30 33  1  0  0  0  0
 28 29  1  0  0  0  0
 28 30  1  0  0  0  0
M  END
$$$$
default_name
  -OEChem-02102213163D

 33 32  0     1  0  0  0  0  0999 V2000
   -3.8420   -3.6918    1.5562 H   0  0  0  0  0  0  0  0  0  0  0  0
   -3.8430   -2.7008    1.1032 C   0  0  0  0  0  0  0  0  0  0  0  0
   -4.5510   -2.0608    1.6242 H   0  0  0  0  0  0  0  0  0  0  0  0
   -4.1140   -2.7798    0.0522 H   0  0  0  0  0  0  0  0  0  0  0  0
   -2.4570   -2.1098    1.2172 C   0  0  0  0  0  0  0  0  0  0  0  0
   -1.5600   -2.7438    1.7572 O   0  0  0  0  0  0  0  0  0  0  0  0
   -2.2870   -0.8898    0.7102 N   0  0  0  0  0  0  0  0  0  0  0  0
   -3.0820   -0.4218    0.2992 H   0  0  0  0  0  0  0  0  0  0  0  0
   -1.0240   -0.1468    0.7262 C   0  0  1  0  0  0  0  0  0  0  0  0
   -0.3583   -0.6100    1.4558 H   0  0  0  0  0  0  0  0  0  0  0  0
   -0.3739   -0.2459   -0.6675 C   0  0  0  0  0  0  0  0  0  0  0  0
   -0.0169    0.7451   -0.9552 H   0  0  0  0  0  0  0  0  0  0  0  0
    0.4854   -0.9159   -0.6167 H   0  0  0  0  0  0  0  0  0  0  0  0
   -1.3395   -0.7422   -1.7550 C   0  0  0  0  0  0  0  0  0  0  0  0
   -2.3565   -0.4352   -1.5093 H   0  0  0  0  0  0  0  0  0  0  0  0
   -1.0558   -0.3044   -2.7139 H   0  0  0  0  0  0  0  0  0  0  0  0
   -1.2991   -2.2704   -1.8669 C   0  0  0  0  0  0  0  0  0  0  0  0
   -0.2853   -2.5938   -2.1049 H   0  0  0  0  0  0  0  0  0  0  0  0
   -1.6049   -2.7126   -0.9183 H   0  0  0  0  0  0  0  0  0  0  0  0
   -2.2480   -2.7347   -2.9702 C   0  0  0  0  0  0  0  0  0  0  0  0
   -3.2640   -2.4290   -2.7255 H   0  0  0  0  0  0  0  0  0  0  0  0
   -1.9548   -2.2799   -3.9150 H   0  0  0  0  0  0  0  0  0  0  0  0
   -2.2162   -4.1940   -3.1204 N   0  0  0  0  0  0  0  0  0  0  0  0
   -2.8632   -4.4659   -3.8460 H   0  0  0  0  0  0  0  0  0  0  0  0
   -1.2826   -4.4802   -3.3789 H   0  0  0  0  0  0  0  0  0  0  0  0
   -1.2712    1.3099    1.1517 C   0  0  0  0  0  0  0  0  0  0  0  0
   -2.2039    1.9448    0.6639 O   0  0  0  0  0  0  0  0  0  0  0  0
   -0.4306    1.8354    2.0503 N   0  0  0  0  0  0  0  0  0  0  0  0
    0.3001    1.2459    2.4139 H   0  0  0  0  0  0  0  0  0  0  0  0
   -0.5192    3.2082    2.5456 C   0  0  0  0  0  0  0  0  0  0  0  0
   -1.5166    3.3903    2.9518 H   0  0  0  0  0  0  0  0  0  0  0  0
    0.2240    3.3791    3.3257 H   0  0  0  0  0  0  0  0  0  0  0  0
   -0.3477    3.9067    1.7239 H   0  0  0  0  0  0  0  0  0  0  0  0
  5  6  2  0  0  0  0
  5  7  1  0  0  0  0
  2  3  1  0  0  0  0
  2  4  1  0  0  0  0
  2  5  1  0  0  0  0
  1  2  1  0  0  0  0
 26 27  2  0  0  0  0
 26 28  1  0  0  0  0
 23 24  1  0  0  0  0
 23 25  1  0  0  0  0
 20 21  1  0  0  0  0
 20 22  1  0  0  0  0
 20 23  1  0  0  0  0
 17 18  1  0  0  0  0
 17 19  1  0  0  0  0
 17 20  1  0  0  0  0
 14 15  1  0  0  0  0
 14 16  1  0  0  0  0
 14 17  1  0  0  0  0
 11 12  1  0  0  0  0
 11 13  1  0  0  0  0
 11 14  1  0  0  0  0
  9 10  1  0  0  0  0
  9 11  1  0  0  0  0
  9 26  1  0  0  0  0
  7  8  1  0  0  0  0
  7  9  1  0  0  0  0
 30 31  1  0  0  0  0
 30 32  1  0  0  0  0
 30 33  1  0  0  0  0
 28 29  1  0  0  0  0
 28 30  1  0  0  0  0
M  END
$$$$
default_name
  -OEChem-02102213163D

 33 32  0     1  0  0  0  0  0999 V2000
   -3.8420   -3.6918    1.5562 H   0  0  0  0  0  0  0  0  0  0  0  0
   -3.8430   -2.7008    1.1032 C   0  0  0  0  0  0  0  0  0  0  0  0
   -4.5510   -2.0608    1.6242 H   0  0  0  0  0  0  0  0  0  0  0  0
   -4.1140   -2.7798    0.0522 H   0  0  0  0  0  0  0  0  0  0  0  0
   -2.4570   -2.1098    1.2172 C   0  0  0  0  0  0  0  0  0  0  0  0
   -1.5600   -2.7438    1.7572 O   0  0  0  0  0  0  0  0  0  0  0  0
   -2.2870   -0.8898    0.7102 N   0  0  0  0  0  0  0  0  0  0  0  0
   -3.0820   -0.4218    0.2992 H   0  0  0  0  0  0  0  0  0  0  0  0
   -1.0240   -0.1468    0.7262 C   0  0  1  0  0  0  0  0  0  0  0  0
   -0.3583   -0.6100    1.4558 H   0  0  0  0  0  0  0  0  0  0  0  0
   -0.3739   -0.2459   -0.6675 C   0  0  0  0  0  0  0  0  0  0  0  0
   -0.0169    0.7451   -0.9552 H   0  0  0  0  0  0  0  0  0  0  0  0
    0.4854   -0.9159   -0.6167 H   0  0  0  0  0  0  0  0  0  0  0  0
   -1.3395   -0.7422   -1.7550 C   0  0  0  0  0  0  0  0  0  0  0  0
   -2.2940   -0.2234   -1.6614 H   0  0  0  0  0  0  0  0  0  0  0  0
   -0.9128   -0.5312   -2.7373 H   0  0  0  0  0  0  0  0  0  0  0  0
   -1.5828   -2.2500   -1.6244 C   0  0  0  0  0  0  0  0  0  0  0  0
   -0.6350   -2.7827   -1.7082 H   0  0  0  0  0  0  0  0  0  0  0  0
   -2.0312   -2.4631   -0.6536 H   0  0  0  0  0  0  0  0  0  0  0  0
   -2.5249   -2.7208   -2.7307 C   0  0  0  0  0  0  0  0  0  0  0  0
   -3.4785   -2.2037   -2.6378 H   0  0  0  0  0  0  0  0  0  0  0  0
   -2.0866   -2.4927   -3.7009 H   0  0  0  0  0  0  0  0  0  0  0  0
   -2.7608   -4.1668   -2.6492 N   0  0  0  0  0  0  0  0  0  0  0  0
   -3.3965   -4.4401   -3.3842 H   0  0  0  0  0  0  0  0  0  0  0  0
   -1.8832   -4.6529   -2.7669 H   0  0  0  0  0  0  0  0  0  0  0  0
   -1.2712    1.3099    1.1517 C   0  0  0  0  0  0  0  0  0  0  0  0
   -2.2039    1.9448    0.6639 O   0  0  0  0  0  0  0  0  0  0  0  0
   -0.4306    1.8354    2.0503 N   0  0  0  0  0  0  0  0  0  0  0  0
    0.3001    1.2459    2.4139 H   0  0  0  0  0  0  0  0  0  0  0  0
   -0.5192    3.2082    2.5456 C   0  0  0  0  0  0  0  0  0  0  0  0
   -1.5166    3.3903    2.9518 H   0  0  0  0  0  0  0  0  0  0  0  0
    0.2240    3.3791    3.3257 H   0  0  0  0  0  0  0  0  0  0  0  0
   -0.3477    3.9067    1.7239 H   0  0  0  0  0  0  0  0  0  0  0  0
  5  6  2  0  0  0  0
  5  7  1  0  0  0  0
  2  3  1  0  0  0  0
  2  4  1  0  0  0  0
  2  5  1  0  0  0  0
  1  2  1  0  0  0  0
 26 27  2  0  0  0  0
 26 28  1  0  0  0  0
 23 24  1  0  0  0  0
 23 25  1  0  0  0  0
 20 21  1  0  0  0  0
 20 22  1  0  0  0  0
 20 23  1  0  0  0  0
 17 18  1  0  0  0  0
 17 19  1  0  0  0  0
 17 20  1  0  0  0  0
 14 15  1  0  0  0  0
 14 16  1  0  0  0  0
 14 17  1  0  0  0  0
 11 12  1  0  0  0  0
 11 13  1  0  0  0  0
 11 14  1  0  0  0  0
  9 10  1  0  0  0  0
  9 11  1  0  0  0  0
  9 26  1  0  0  0  0
  7  8  1  0  0  0  0
  7  9  1  0  0  0  0
 30 31  1  0  0  0  0
 30 32  1  0  0  0  0
 30 33  1  0  0  0  0
 28 29  1  0  0  0  0
 28 30  1  0  0  0  0
M  END
$$$$
default_name
  -OEChem-02102213163D

 33 32  0     1  0  0  0  0  0999 V2000
   -3.8420   -3.6918    1.5562 H   0  0  0  0  0  0  0  0  0  0  0  0
   -3.8430   -2.7008    1.1032 C   0  0  0  0  0  0  0  0  0  0  0  0
   -4.5510   -2.0608    1.6242 H   0  0  0  0  0  0  0  0  0  0  0  0
   -4.1140   -2.7798    0.0522 H   0  0  0  0  0  0  0  0  0  0  0  0
   -2.4570   -2.1098    1.2172 C   0  0  0  0  0  0  0  0  0  0  0  0
   -1.5600   -2.7438    1.7572 O   0  0  0  0  0  0  0  0  0  0  0  0
   -2.2870   -0.8898    0.7102 N   0  0  0  0  0  0  0  0  0  0  0  0
   -3.0820   -0.4218    0.2992 H   0  0  0  0  0  0  0  0  0  0  0  0
   -1.0240   -0.1468    0.7262 C   0  0  1  0  0  0  0  0  0  0  0  0
   -0.3583   -0.6100    1.4558 H   0  0  0  0  0  0  0  0  0  0  0  0
   -0.3739   -0.2459   -0.6675 C   0  0  0  0  0  0  0  0  0  0  0  0
   -0.0169    0.7451   -0.9552 H   0  0  0  0  0  0  0  0  0  0  0  0
    0.4854   -0.9159   -0.6167 H   0  0  0  0  0  0  0  0  0  0  0  0
   -1.3395   -0.7422   -1.7550 C   0  0  0  0  0  0  0  0  0  0  0  0
   -2.1821   -0.0551   -1.8376 H   0  0  0  0  0  0  0  0  0  0  0  0
   -0.8143   -0.7802   -2.7111 H   0  0  0  0  0  0  0  0  0  0  0  0
   -1.8733   -2.1388   -1.4172 C   0  0  0  0  0  0  0  0  0  0  0  0
   -1.0406   -2.8366   -1.3235 H   0  0  0  0  0  0  0  0  0  0  0  0
   -2.4195   -2.1010   -0.4742 H   0  0  0  0  0  0  0  0  0  0  0  0
   -2.8098   -2.6178   -2.5247 C   0  0  0  0  0  0  0  0  0  0  0  0
   -3.6518   -1.9325   -2.6077 H   0  0  0  0  0  0  0  0  0  0  0  0
   -2.2708   -2.6392   -3.4705 H   0  0  0  0  0  0  0  0  0  0  0  0
   -3.3213   -3.9642   -2.2441 N   0  0  0  0  0  0  0  0  0  0  0  0
   -3.9456   -4.2423   -2.9870 H   0  0  0  0  0  0  0  0  0  0  0  0
   -2.5461   -4.6102   -2.1978 H   0  0  0  0  0  0  0  0  0  0  0  0
   -1.2712    1.3099    1.1517 C   0  0  0  0  0  0  0  0  0  0  0  0
   -2.2039    1.9448    0.6639 O   0  0  0  0  0  0  0  0  0  0  0  0
   -0.4306    1.8354    2.0503 N   0  0  0  0  0  0  0  0  0  0  0  0
    0.3001    1.2459    2.4139 H   0  0  0  0  0  0  0  0  0  0  0  0
   -0.5192    3.2082    2.5456 C   0  0  0  0  0  0  0  0  0  0  0  0
   -1.5166    3.3903    2.9518 H   0  0  0  0  0  0  0  0  0  0  0  0
    0.2240    3.3791    3.3257 H   0  0  0  0  0  0  0  0  0  0  0  0
   -0.3477    3.9067    1.7239 H   0  0  0  0  0  0  0  0  0  0  0  0
  5  6  2  0  0  0  0
  5  7  1  0  0  0  0
  2  3  1  0  0  0  0
  2  4  1  0  0  0  0
  2  5  1  0  0  0  0
  1  2  1  0  0  0  0
 26 27  2  0  0  0  0
 26 28  1  0  0  0  0
 23 24  1  0  0  0  0
 23 25  1  0  0  0  0
 20 21  1  0  0  0  0
 20 22  1  0  0  0  0
 20 23  1  0  0  0  0
 17 18  1  0  0  0  0
 17 19  1  0  0  0  0
 17 20  1  0  0  0  0
 14 15  1  0  0  0  0
 14 16  1  0  0  0  0
 14 17  1  0  0  0  0
 11 12  1  0  0  0  0
 11 13  1  0  0  0  0
 11 14  1  0  0  0  0
  9 10  1  0  0  0  0
  9 11  1  0  0  0  0
  9 26  1  0  0  0  0
  7  8  1  0  0  0  0
  7  9  1  0  0  0  0
 30 31  1  0  0  0  0
 30 32  1  0  0  0  0
 30 33  1  0  0  0  0
 28 29  1  0  0  0  0
 28 30  1  0  0  0  0
M  END
$$$$
default_name
  -OEChem-02102213163D

 33 32  0     1  0  0  0  0  0999 V2000
   -3.8420   -3.6918    1.5562 H   0  0  0  0  0  0  0  0  0  0  0  0
   -3.8430   -2.7008    1.1032 C   0  0  0  0  0  0  0  0  0  0  0  0
   -4.5510   -2.0608    1.6242 H   0  0  0  0  0  0  0  0  0  0  0  0
   -4.1140   -2.7798    0.0522 H   0  0  0  0  0  0  0  0  0  0  0  0
   -2.4570   -2.1098    1.2172 C   0  0  0  0  0  0  0  0  0  0  0  0
   -1.5600   -2.7438    1.7572 O   0  0  0  0  0  0  0  0  0  0  0  0
   -2.2870   -0.8898    0.7102 N   0  0  0  0  0  0  0  0  0  0  0  0
   -3.0820   -0.4218    0.2992 H   0  0  0  0  0  0  0  0  0  0  0  0
   -1.0240   -0.1468    0.7262 C   0  0  1  0  0  0  0  0  0  0  0  0
   -0.3583   -0.6100    1.4558 H   0  0  0  0  0  0  0  0  0  0  0  0
   -0.3739   -0.2459   -0.6675 C   0  0  0  0  0  0  0  0  0  0  0  0
   -0.0169    0.7451   -0.9552 H   0  0  0  0  0  0  0  0  0  0  0  0
    0.4854   -0.9159   -0.6167 H   0  0  0  0  0  0  0  0  0  0  0  0
   -1.3395   -0.7422   -1.7550 C   0  0  0  0  0  0  0  0  0  0  0  0
   -2.0285    0.0584   -2.0258 H   0  0  0  0  0  0  0  0  0  0  0  0
   -0.7670   -1.0346   -2.6371 H   0  0  0  0  0  0  0  0  0  0  0  0
   -2.1509   -1.9445   -1.2593 C   0  0  0  0  0  0  0  0  0  0  0  0
   -1.4745   -2.7518   -0.9770 H   0  0  0  0  0  0  0  0  0  0  0  0
   -2.7431   -1.6509   -0.3922 H   0  0  0  0  0  0  0  0  0  0  0  0
   -3.0833   -2.4326   -2.3664 C   0  0  0  0  0  0  0  0  0  0  0  0
   -3.7720   -1.6339   -2.6371 H   0  0  0  0  0  0  0  0  0  0  0  0
   -2.4948   -2.7095   -3.2395 H   0  0  0  0  0  0  0  0  0  0  0  0
   -3.8594   -3.5999   -1.9325 N   0  0  0  0  0  0  0  0  0  0  0  0
   -4.4728   -3.8861   -2.6814 H   0  0  0  0  0  0  0  0  0  0  0  0
   -3.2262   -4.3549   -1.7104 H   0  0  0  0  0  0  0  0  0  0  0  0
   -1.2712    1.3099    1.1517 C   0  0  0  0  0  0  0  0  0  0  0  0
   -2.2039    1.9448    0.6639 O   0  0  0  0  0  0  0  0  0  0  0  0
   -0.4306    1.8354    2.0503 N   0  0  0  0  0  0  0  0  0  0  0  0
    0.3001    1.2459    2.4139 H   0  0  0  0  0  0  0  0  0  0  0  0
   -0.5192    3.2082    2.5456 C   0  0  0  0  0  0  0  0  0  0  0  0
   -1.5166    3.3903    2.9518 H   0  0  0  0  0  0  0  0  0  0  0  0
    0.2240    3.3791    3.3257 H   0  0  0  0  0  0  0  0  0  0  0  0
   -0.3477    3.9067    1.7239 H   0  0  0  0  0  0  0  0  0  0  0  0
  5  6  2  0  0  0  0
  5  7  1  0  0  0  0
  2  3  1  0  0  0  0
  2  4  1  0  0  0  0
  2  5  1  0  0  0  0
  1  2  1  0  0  0  0
 26 27  2  0  0  0  0
 26 28  1  0  0  0  0
 23 24  1  0  0  0  0
 23 25  1  0  0  0  0
 20 21  1  0  0  0  0
 20 22  1  0  0  0  0
 20 23  1  0  0  0  0
 17 18  1  0  0  0  0
 17 19  1  0  0  0  0
 17 20  1  0  0  0  0
 14 15  1  0  0  0  0
 14 16  1  0  0  0  0
 14 17  1  0  0  0  0
 11 12  1  0  0  0  0
 11 13  1  0  0  0  0
 11 14  1  0  0  0  0
  9 10  1  0  0  0  0
  9 11  1  0  0  0  0
  9 26  1  0  0  0  0
  7  8  1  0  0  0  0
  7  9  1  0  0  0  0
 30 31  1  0  0  0  0
 30 32  1  0  0  0  0
 30 33  1  0  0  0  0
 28 29  1  0  0  0  0
 28 30  1  0  0  0  0
M  END
$$$$
default_name
  -OEChem-02102213163D

 33 32  0     1  0  0  0  0  0999 V2000
   -3.8420   -3.6918    1.5562 H   0  0  0  0  0  0  0  0  0  0  0  0
   -3.8430   -2.7008    1.1032 C   0  0  0  0  0  0  0  0  0  0  0  0
   -4.5510   -2.0608    1.6242 H   0  0  0  0  0  0  0  0  0  0  0  0
   -4.1140   -2.7798    0.0522 H   0  0  0  0  0  0  0  0  0  0  0  0
   -2.4570   -2.1098    1.2172 C   0  0  0  0  0  0  0  0  0  0  0  0
   -1.5600   -2.7438    1.7572 O   0  0  0  0  0  0  0  0  0  0  0  0
   -2.2870   -0.8898    0.7102 N   0  0  0  0  0  0  0  0  0  0  0  0
   -3.0820   -0.4218    0.2992 H   0  0  0  0  0  0  0  0  0  0  0  0
   -1.0240   -0.1468    0.7262 C   0  0  1  0  0  0  0  0  0  0  0  0
   -0.3583   -0.6100    1.4558 H   0  0  0  0  0  0  0  0  0  0  0  0
   -0.3739   -0.2459   -0.6675 C   0  0  0  0  0  0  0  0  0  0  0  0
   -0.0169    0.7451   -0.9552 H   0  0  0  0  0  0  0  0  0  0  0  0
    0.4854   -0.9159   -0.6167 H   0  0  0  0  0  0  0  0  0  0  0  0
   -1.3395   -0.7422   -1.7550 C   0  0  0  0  0  0  0  0  0  0  0  0
   -1.8436    0.1092   -2.2132 H   0  0  0  0  0  0  0  0  0  0  0  0
   -0.7740   -1.2769   -2.5203 H   0  0  0  0  0  0  0  0  0  0  0  0
   -2.3966   -1.6804   -1.1617 C   0  0  0  0  0  0  0  0  0  0  0  0
   -1.9069   -2.5341   -0.6923 H   0  0  0  0  0  0  0  0  0  0  0  0
   -2.9802   -1.1435   -0.4132 H   0  0  0  0  0  0  0  0  0  0  0  0
   -3.3268   -2.1778   -2.2664 C   0  0  0  0  0  0  0  0  0  0  0  0
   -3.8310   -1.3283   -2.7242 H   0  0  0  0  0  0  0  0  0  0  0  0
   -2.7434   -2.6988   -3.0237 H   0  0  0  0  0  0  0  0  0  0  0  0
   -4.3386   -3.0988   -1.7358 N   0  0  0  0  0  0  0  0  0  0  0  0
   -4.9425   -3.3957   -2.4882 H   0  0  0  0  0  0  0  0  0  0  0  0
   -3.8771   -3.9045   -1.3381 H   0  0  0  0  0  0  0  0  0  0  0  0
   -1.2712    1.3099    1.1517 C   0  0  0  0  0  0  0  0  0  0  0  0
   -2.2039    1.9448    0.6639 O   0  0  0  0  0  0  0  0  0  0  0  0
   -0.4306    1.8354    2.0503 N   0  0  0  0  0  0  0  0  0  0  0  0
    0.3001    1.2459    2.4139 H   0  0  0  0  0  0  0  0  0  0  0  0
   -0.5192    3.2082    2.5456 C   0  0  0  0  0  0  0  0  0  0  0  0
   -1.5166    3.3903    2.9518 H   0  0  0  0  0  0  0  0  0  0  0  0
    0.2240    3.3791    3.3257 H   0  0  0  0  0  0  0  0  0  0  0  0
   -0.3477    3.9067    1.7239 H   0  0  0  0  0  0  0  0  0  0  0  0
  5  6  2  0  0  0  0
  5  7  1  0  0  0  0
  2  3  1  0  0  0  0
  2  4  1  0  0  0  0
  2  5  1  0  0  0  0
  1  2  1  0  0  0  0
 26 27  2  0  0  0  0
 26 28  1  0  0  0  0
 23 24  1  0  0  0  0
 23 25  1  0  0  0  0
 20 21  1  0  0  0  0
 20 22  1  0  0  0  0
 20 23  1  0  0  0  0
 17 18  1  0  0  0  0
 17 19  1  0  0  0  0
 17 20  1  0  0  0  0
 14 15  1  0  0  0  0
 14 16  1  0  0  0  0
 14 17  1  0  0  0  0
 11 12  1  0  0  0  0
 11 13  1  0  0  0  0
 11 14  1  0  0  0  0
  9 10  1  0  0  0  0
  9 11  1  0  0  0  0
  9 26  1  0  0  0  0
  7  8  1  0  0  0  0
  7  9  1  0  0  0  0
 30 31  1  0  0  0  0
 30 32  1  0  0  0  0
 30 33  1  0  0  0  0
 28 29  1  0  0  0  0
 28 30  1  0  0  0  0
M  END
$$$$
default_name
  -OEChem-02102213163D

 33 32  0     1  0  0  0  0  0999 V2000
   -3.8420   -3.6918    1.5562 H   0  0  0  0  0  0  0  0  0  0  0  0
   -3.8430   -2.7008    1.1032 C   0  0  0  0  0  0  0  0  0  0  0  0
   -4.5510   -2.0608    1.6242 H   0  0  0  0  0  0  0  0  0  0  0  0
   -4.1140   -2.7798    0.0522 H   0  0  0  0  0  0  0  0  0  0  0  0
   -2.4570   -2.1098    1.2172 C   0  0  0  0  0  0  0  0  0  0  0  0
   -1.5600   -2.7438    1.7572 O   0  0  0  0  0  0  0  0  0  0  0  0
   -2.2870   -0.8898    0.7102 N   0  0  0  0  0  0  0  0  0  0  0  0
   -3.0820   -0.4218    0.2992 H   0  0  0  0  0  0  0  0  0  0  0  0
   -1.0240   -0.1468    0.7262 C   0  0  1  0  0  0  0  0  0  0  0  0
   -0.3583   -0.6100    1.4558 H   0  0  0  0  0  0  0  0  0  0  0  0
   -0.3739   -0.2459   -0.6675 C   0  0  0  0  0  0  0  0  0  0  0  0
   -0.0169    0.7451   -0.9552 H   0  0  0  0  0  0  0  0  0  0  0  0
    0.4854   -0.9159   -0.6167 H   0  0  0  0  0  0  0  0  0  0  0  0
   -1.3395   -0.7422   -1.7550 C   0  0  0  0  0  0  0  0  0  0  0  0
   -1.6400    0.0940   -2.3870 H   0  0  0  0  0  0  0  0  0  0  0  0
   -0.8349   -1.4907   -2.3687 H   0  0  0  0  0  0  0  0  0  0  0  0
   -2.5938   -1.3643   -1.1309 C   0  0  0  0  0  0  0  0  0  0  0  0
   -2.3086   -2.1983   -0.4890 H   0  0  0  0  0  0  0  0  0  0  0  0
   -3.1145   -0.6134   -0.5359 H   0  0  0  0  0  0  0  0  0  0  0  0
   -3.5238   -1.8709   -2.2316 C   0  0  0  0  0  0  0  0  0  0  0  0
   -3.8248   -1.0364   -2.8630 H   0  0  0  0  0  0  0  0  0  0  0  0
   -2.9995   -2.6079   -2.8378 H   0  0  0  0  0  0  0  0  0  0  0  0
   -4.7260   -2.4950   -1.6673 N   0  0  0  0  0  0  0  0  0  0  0  0
   -5.3224   -2.8047   -2.4205 H   0  0  0  0  0  0  0  0  0  0  0  0
   -4.4544   -3.2897   -1.1060 H   0  0  0  0  0  0  0  0  0  0  0  0
   -1.2712    1.3099    1.1517 C   0  0  0  0  0  0  0  0  0  0  0  0
   -2.2039    1.9448    0.6639 O   0  0  0  0  0  0  0  0  0  0  0  0
   -0.4306    1.8354    2.0503 N   0  0  0  0  0  0  0  0  0  0  0  0
    0.3001    1.2459    2.4139 H   0  0  0  0  0  0  0  0  0  0  0  0
   -0.5192    3.2082    2.5456 C   0  0  0  0  0  0  0  0  0  0  0  0
   -1.5166    3.3903    2.9518 H   0  0  0  0  0  0  0  0  0  0  0  0
    0.2240    3.3791    3.3257 H   0  0  0  0  0  0  0  0  0  0  0  0
   -0.3477    3.9067    1.7239 H   0  0  0  0  0  0  0  0  0  0  0  0
  5  6  2  0  0  0  0
  5  7  1  0  0  0  0
  2  3  1  0  0  0  0
  2  4  1  0  0  0  0
  2  5  1  0  0  0  0
  1  2  1  0  0  0  0
 26 27  2  0  0  0  0
 26 28  1  0  0  0  0
 23 24  1  0  0  0  0
 23 25  1  0  0  0  0
 20 21  1  0  0  0  0
 20 22  1  0  0  0  0
 20 23  1  0  0  0  0
 17 18  1  0  0  0  0
 17 19  1  0  0  0  0
 17 20  1  0  0  0  0
 14 15  1  0  0  0  0
 14 16  1  0  0  0  0
 14 17  1  0  0  0  0
 11 12  1  0  0  0  0
 11 13  1  0  0  0  0
 11 14  1  0  0  0  0
  9 10  1  0  0  0  0
  9 11  1  0  0  0  0
  9 26  1  0  0  0  0
  7  8  1  0  0  0  0
  7  9  1  0  0  0  0
 30 31  1  0  0  0  0
 30 32  1  0  0  0  0
 30 33  1  0  0  0  0
 28 29  1  0  0  0  0
 28 30  1  0  0  0  0
M  END
$$$$
default_name
  -OEChem-02102213163D

 33 32  0     1  0  0  0  0  0999 V2000
   -3.8420   -3.6918    1.5562 H   0  0  0  0  0  0  0  0  0  0  0  0
   -3.8430   -2.7008    1.1032 C   0  0  0  0  0  0  0  0  0  0  0  0
   -4.5510   -2.0608    1.6242 H   0  0  0  0  0  0  0  0  0  0  0  0
   -4.1140   -2.7798    0.0522 H   0  0  0  0  0  0  0  0  0  0  0  0
   -2.4570   -2.1098    1.2172 C   0  0  0  0  0  0  0  0  0  0  0  0
   -1.5600   -2.7438    1.7572 O   0  0  0  0  0  0  0  0  0  0  0  0
   -2.2870   -0.8898    0.7102 N   0  0  0  0  0  0  0  0  0  0  0  0
   -3.0820   -0.4218    0.2992 H   0  0  0  0  0  0  0  0  0  0  0  0
   -1.0240   -0.1468    0.7262 C   0  0  1  0  0  0  0  0  0  0  0  0
   -0.3583   -0.6100    1.4558 H   0  0  0  0  0  0  0  0  0  0  0  0
   -0.3739   -0.2459   -0.6675 C   0  0  0  0  0  0  0  0  0  0  0  0
   -0.0169    0.7451   -0.9552 H   0  0  0  0  0  0  0  0  0  0  0  0
    0.4854   -0.9159   -0.6167 H   0  0  0  0  0  0  0  0  0  0  0  0
   -1.3395   -0.7422   -1.7550 C   0  0  0  0  0  0  0  0  0  0  0  0
   -1.4316    0.0138   -2.5354 H   0  0  0  0  0  0  0  0  0  0  0  0
   -0.9456   -1.6614   -2.1925 H   0  0  0  0  0  0  0  0  0  0  0  0
   -2.7289   -1.0179   -1.1690 C   0  0  0  0  0  0  0  0  0  0  0  0
   -2.6520   -1.7673   -0.3807 H   0  0  0  0  0  0  0  0  0  0  0  0
   -3.1368   -0.0967   -0.7518 H   0  0  0  0  0  0  0  0  0  0  0  0
   -3.6607   -1.5327   -2.2644 C   0  0  0  0  0  0  0  0  0  0  0  0
   -3.7536   -0.7782   -3.0440 H   0  0  0  0  0  0  0  0  0  0  0  0
   -3.2459   -2.4429   -2.6944 H   0  0  0  0  0  0  0  0  0  0  0  0
   -4.9953   -1.8296   -1.7317 N   0  0  0  0  0  0  0  0  0  0  0  0
   -5.5868   -2.1531   -2.4831 H   0  0  0  0  0  0  0  0  0  0  0  0
   -4.9188   -2.5523   -1.0301 H   0  0  0  0  0  0  0  0  0  0  0  0
   -1.2712    1.3099    1.1517 C   0  0  0  0  0  0  0  0  0  0  0  0
   -2.2039    1.9448    0.6639 O   0  0  0  0  0  0  0  0  0  0  0  0
   -0.4306    1.8354    2.0503 N   0  0  0  0  0  0  0  0  0  0  0  0
    0.3001    1.2459    2.4139 H   0  0  0  0  0  0  0  0  0  0  0  0
   -0.5192    3.2082    2.5456 C   0  0  0  0  0  0  0  0  0  0  0  0
   -1.5166    3.3903    2.9518 H   0  0  0  0  0  0  0  0  0  0  0  0
    0.2240    3.3791    3.3257 H   0  0  0  0  0  0  0  0  0  0  0  0
   -0.3477    3.9067    1.7239 H   0  0  0  0  0  0  0  0  0  0  0  0
  5  6  2  0  0  0  0
  5  7  1  0  0  0  0
  2  3  1  0  0  0  0
  2  4  1  0  0  0  0
  2  5  1  0  0  0  0
  1  2  1  0  0  0  0
 26 27  2  0  0  0  0
 26 28  1  0  0  0  0
 23 24  1  0  0  0  0
 23 25  1  0  0  0  0
 20 21  1  0  0  0  0
 20 22  1  0  0  0  0
 20 23  1  0  0  0  0
 17 18  1  0  0  0  0
 17 19  1  0  0  0  0
 17 20  1  0  0  0  0
 14 15  1  0  0  0  0
 14 16  1  0  0  0  0
 14 17  1  0  0  0  0
 11 12  1  0  0  0  0
 11 13  1  0  0  0  0
 11 14  1  0  0  0  0
  9 10  1  0  0  0  0
  9 11  1  0  0  0  0
  9 26  1  0  0  0  0
  7  8  1  0  0  0  0
  7  9  1  0  0  0  0
 30 31  1  0  0  0  0
 30 32  1  0  0  0  0
 30 33  1  0  0  0  0
 28 29  1  0  0  0  0
 28 30  1  0  0  0  0
M  END
$$$$
default_name
  -OEChem-02102213163D

 33 32  0     1  0  0  0  0  0999 V2000
   -3.8420   -3.6918    1.5562 H   0  0  0  0  0  0  0  0  0  0  0  0
   -3.8430   -2.7008    1.1032 C   0  0  0  0  0  0  0  0  0  0  0  0
   -4.5510   -2.0608    1.6242 H   0  0  0  0  0  0  0  0  0  0  0  0
   -4.1140   -2.7798    0.0522 H   0  0  0  0  0  0  0  0  0  0  0  0
   -2.4570   -2.1098    1.2172 C   0  0  0  0  0  0  0  0  0  0  0  0
   -1.5600   -2.7438    1.7572 O   0  0  0  0  0  0  0  0  0  0  0  0
   -2.2870   -0.8898    0.7102 N   0  0  0  0  0  0  0  0  0  0  0  0
   -3.0820   -0.4218    0.2992 H   0  0  0  0  0  0  0  0  0  0  0  0
   -1.0240   -0.1468    0.7262 C   0  0  1  0  0  0  0  0  0  0  0  0
   -0.3583   -0.6100    1.4558 H   0  0  0  0  0  0  0  0  0  0  0  0
   -0.3739   -0.2459   -0.6675 C   0  0  0  0  0  0  0  0  0  0  0  0
   -0.0169    0.7451   -0.9552 H   0  0  0  0  0  0  0  0  0  0  0  0
    0.4854   -0.9159   -0.6167 H   0  0  0  0  0  0  0  0  0  0  0  0
   -1.3395   -0.7422   -1.7550 C   0  0  0  0  0  0  0  0  0  0  0  0
   -1.2326   -0.1261   -2.6482 H   0  0  0  0  0  0  0  0  0  0  0  0
   -1.0986   -1.7773   -2.0038 H   0  0  0  0  0  0  0  0  0  0  0  0
   -2.7927   -0.6647   -1.2735 C   0  0  0  0  0  0  0  0  0  0  0  0
   -2.9138   -1.2705   -0.3749 H   0  0  0  0  0  0  0  0  0  0  0  0
   -3.0457    0.3713   -1.0463 H   0  0  0  0  0  0  0  0  0  0  0  0
   -3.7282   -1.1862   -2.3625 C   0  0  0  0  0  0  0  0  0  0  0  0
   -3.6225   -0.5713   -3.2548 H   0  0  0  0  0  0  0  0  0  0  0  0
   -3.4656   -2.2150   -2.6033 H   0  0  0  0  0  0  0  0  0  0  0  0
   -5.1283   -1.1481   -1.9247 N   0  0  0  0  0  0  0  0  0  0  0  0
   -5.7176   -1.4855   -2.6716 H   0  0  0  0  0  0  0  0  0  0  0  0
   -5.2387   -1.7426   -1.1156 H   0  0  0  0  0  0  0  0  0  0  0  0
   -1.2712    1.3099    1.1517 C   0  0  0  0  0  0  0  0  0  0  0  0
   -2.2039    1.9448    0.6639 O   0  0  0  0  0  0  0  0  0  0  0  0
   -0.4306    1.8354    2.0503 N   0  0  0  0  0  0  0  0  0  0  0  0
    0.3001    1.2459    2.4139 H   0  0  0  0  0  0  0  0  0  0  0  0
   -0.5192    3.2082    2.5456 C   0  0  0  0  0  0  0  0  0  0  0  0
   -1.5166    3.3903    2.9518 H   0  0  0  0  0  0  0  0  0  0  0  0
    0.2240    3.3791    3.3257 H   0  0  0  0  0  0  0  0  0  0  0  0
   -0.3477    3.9067    1.7239 H   0  0  0  0  0  0  0  0  0  0  0  0
  5  6  2  0  0  0  0
  5  7  1  0  0  0  0
  2  3  1  0  0  0  0
  2  4  1  0  0  0  0
  2  5  1  0  0  0  0
  1  2  1  0  0  0  0
 26 27  2  0  0  0  0
 26 28  1  0  0  0  0
 23 24  1  0  0  0  0
 23 25  1  0  0  0  0
 20 21  1  0  0  0  0
 20 22  1  0  0  0  0
 20 23  1  0  0  0  0
 17 18  1  0  0  0  0
 17 19  1  0  0  0  0
 17 20  1  0  0  0  0
 14 15  1  0  0  0  0
 14 16  1  0  0  0  0
 14 17  1  0  0  0  0
 11 12  1  0  0  0  0
 11 13  1  0  0  0  0
 11 14  1  0  0  0  0
  9 10  1  0  0  0  0
  9 11  1  0  0  0  0
  9 26  1  0  0  0  0
  7  8  1  0  0  0  0
  7  9  1  0  0  0  0
 30 31  1  0  0  0  0
 30 32  1  0  0  0  0
 30 33  1  0  0  0  0
 28 29  1  0  0  0  0
 28 30  1  0  0  0  0
M  END
$$$$
default_name
  -OEChem-02102213163D

 33 32  0     1  0  0  0  0  0999 V2000
   -3.8420   -3.6918    1.5562 H   0  0  0  0  0  0  0  0  0  0  0  0
   -3.8430   -2.7008    1.1032 C   0  0  0  0  0  0  0  0  0  0  0  0
   -4.5510   -2.0608    1.6242 H   0  0  0  0  0  0  0  0  0  0  0  0
   -4.1140   -2.7798    0.0522 H   0  0  0  0  0  0  0  0  0  0  0  0
   -2.4570   -2.1098    1.2172 C   0  0  0  0  0  0  0  0  0  0  0  0
   -1.5600   -2.7438    1.7572 O   0  0  0  0  0  0  0  0  0  0  0  0
   -2.2870   -0.8898    0.7102 N   0  0  0  0  0  0  0  0  0  0  0  0
   -3.0820   -0.4218    0.2992 H   0  0  0  0  0  0  0  0  0  0  0  0
   -1.0240   -0.1468    0.7262 C   0  0  1  0  0  0  0  0  0  0  0  0
   -0.3583   -0.6100    1.4558 H   0  0  0  0  0  0  0  0  0  0  0  0
   -0.3739   -0.2459   -0.6675 C   0  0  0  0  0  0  0  0  0  0  0  0
   -0.0169    0.7451   -0.9552 H   0  0  0  0  0  0  0  0  0  0  0  0
    0.4854   -0.9159   -0.6167 H   0  0  0  0  0  0  0  0  0  0  0  0
   -1.3395   -0.7422   -1.7550 C   0  0  0  0  0  0  0  0  0  0  0  0
   -1.0566   -0.3159   -2.7179 H   0  0  0  0  0  0  0  0  0  0  0  0
   -1.2833   -1.8306   -1.8155 H   0  0  0  0  0  0  0  0  0  0  0  0
   -2.7810   -0.3288   -1.4371 C   0  0  0  0  0  0  0  0  0  0  0  0
   -3.0762   -0.7416   -0.4720 H   0  0  0  0  0  0  0  0  0  0  0  0
   -2.8474    0.7589   -1.3992 H   0  0  0  0  0  0  0  0  0  0  0  0
   -3.7218   -0.8552   -2.5193 C   0  0  0  0  0  0  0  0  0  0  0  0
   -3.4403   -0.4297   -3.4812 H   0  0  0  0  0  0  0  0  0  0  0  0
   -3.6436   -1.9399   -2.5707 H   0  0  0  0  0  0  0  0  0  0  0  0
   -5.1157   -0.4968   -2.2330 N   0  0  0  0  0  0  0  0  0  0  0  0
   -5.7059   -0.8474   -2.9732 H   0  0  0  0  0  0  0  0  0  0  0  0
   -5.3922   -0.9159   -1.3565 H   0  0  0  0  0  0  0  0  0  0  0  0
   -1.2712    1.3099    1.1517 C   0  0  0  0  0  0  0  0  0  0  0  0
   -2.2039    1.9448    0.6639 O   0  0  0  0  0  0  0  0  0  0  0  0
   -0.4306    1.8354    2.0503 N   0  0  0  0  0  0  0  0  0  0  0  0
    0.3001    1.2459    2.4139 H   0  0  0  0  0  0  0  0  0  0  0  0
   -0.5192    3.2082    2.5456 C   0  0  0  0  0  0  0  0  0  0  0  0
   -1.5166    3.3903    2.9518 H   0  0  0  0  0  0  0  0  0  0  0  0
    0.2240    3.3791    3.3257 H   0  0  0  0  0  0  0  0  0  0  0  0
   -0.3477    3.9067    1.7239 H   0  0  0  0  0  0  0  0  0  0  0  0
  5  6  2  0  0  0  0
  5  7  1  0  0  0  0
  2  3  1  0  0  0  0
  2  4  1  0  0  0  0
  2  5  1  0  0  0  0
  1  2  1  0  0  0  0
 26 27  2  0  0  0  0
 26 28  1  0  0  0  0
 23 24  1  0  0  0  0
 23 25  1  0  0  0  0
 20 21  1  0  0  0  0
 20 22  1  0  0  0  0
 20 23  1  0  0  0  0
 17 18  1  0  0  0  0
 17 19  1  0  0  0  0
 17 20  1  0  0  0  0
 14 15  1  0  0  0  0
 14 16  1  0  0  0  0
 14 17  1  0  0  0  0
 11 12  1  0  0  0  0
 11 13  1  0  0  0  0
 11 14  1  0  0  0  0
  9 10  1  0  0  0  0
  9 11  1  0  0  0  0
  9 26  1  0  0  0  0
  7  8  1  0  0  0  0
  7  9  1  0  0  0  0
 30 31  1  0  0  0  0
 30 32  1  0  0  0  0
 30 33  1  0  0  0  0
 28 29  1  0  0  0  0
 28 30  1  0  0  0  0
M  END
$$$$
default_name
  -OEChem-02102213163D

 33 32  0     1  0  0  0  0  0999 V2000
   -3.8420   -3.6918    1.5562 H   0  0  0  0  0  0  0  0  0  0  0  0
   -3.8430   -2.7008    1.1032 C   0  0  0  0  0  0  0  0  0  0  0  0
   -4.5510   -2.0608    1.6242 H   0  0  0  0  0  0  0  0  0  0  0  0
   -4.1140   -2.7798    0.0522 H   0  0  0  0  0  0  0  0  0  0  0  0
   -2.4570   -2.1098    1.2172 C   0  0  0  0  0  0  0  0  0  0  0  0
   -1.5600   -2.7438    1.7572 O   0  0  0  0  0  0  0  0  0  0  0  0
   -2.2870   -0.8898    0.7102 N   0  0  0  0  0  0  0  0  0  0  0  0
   -3.0820   -0.4218    0.2992 H   0  0  0  0  0  0  0  0  0  0  0  0
   -1.0240   -0.1468    0.7262 C   0  0  1  0  0  0  0  0  0  0  0  0
   -0.3583   -0.6100    1.4558 H   0  0  0  0  0  0  0  0  0  0  0  0
   -0.3739   -0.2459   -0.6675 C   0  0  0  0  0  0  0  0  0  0  0  0
   -0.0169    0.7451   -0.9552 H   0  0  0  0  0  0  0  0  0  0  0  0
    0.4854   -0.9159   -0.6167 H   0  0  0  0  0  0  0  0  0  0  0  0
   -1.3395   -0.7422   -1.7550 C   0  0  0  0  0  0  0  0  0  0  0  0
   -0.9155   -0.5429   -2.7396 H   0  0  0  0  0  0  0  0  0  0  0  0
   -1.4872   -1.8176   -1.6404 H   0  0  0  0  0  0  0  0  0  0  0  0
   -2.6945   -0.0332   -1.6489 C   0  0  0  0  0  0  0  0  0  0  0  0
   -3.1281   -0.2169   -0.6654 H   0  0  0  0  0  0  0  0  0  0  0  0
   -2.5553    1.0395   -1.7866 H   0  0  0  0  0  0  0  0  0  0  0  0
   -3.6419   -0.5621   -2.7240 C   0  0  0  0  0  0  0  0  0  0  0  0
   -3.2195   -0.3631   -3.7076 H   0  0  0  0  0  0  0  0  0  0  0  0
   -3.7680   -1.6362   -2.5988 H   0  0  0  0  0  0  0  0  0  0  0  0
   -4.9585    0.0798   -2.6357 N   0  0  0  0  0  0  0  0  0  0  0  0
   -5.5525   -0.2822   -3.3673 H   0  0  0  0  0  0  0  0  0  0  0  0
   -5.3690   -0.1283   -1.7365 H   0  0  0  0  0  0  0  0  0  0  0  0
   -1.2712    1.3099    1.1517 C   0  0  0  0  0  0  0  0  0  0  0  0
   -2.2039    1.9448    0.6639 O   0  0  0  0  0  0  0  0  0  0  0  0
   -0.4306    1.8354    2.0503 N   0  0  0  0  0  0  0  0  0  0  0  0
    0.3001    1.2459    2.4139 H   0  0  0  0  0  0  0  0  0  0  0  0
   -0.5192    3.2082    2.5456 C   0  0  0  0  0  0  0  0  0  0  0  0
   -1.5166    3.3903    2.9518 H   0  0  0  0  0  0  0  0  0  0  0  0
    0.2240    3.3791    3.3257 H   0  0  0  0  0  0  0  0  0  0  0  0
   -0.3477    3.9067    1.7239 H   0  0  0  0  0  0  0  0  0  0  0  0
  5  6  2  0  0  0  0
  5  7  1  0  0  0  0
  2  3  1  0  0  0  0
  2  4  1  0  0  0  0
  2  5  1  0  0  0  0
  1  2  1  0  0  0  0
 26 27  2  0  0  0  0
 26 28  1  0  0  0  0
 23 24  1  0  0  0  0
 23 25  1  0  0  0  0
 20 21  1  0  0  0  0
 20 22  1  0  0  0  0
 20 23  1  0  0  0  0
 17 18  1  0  0  0  0
 17 19  1  0  0  0  0
 17 20  1  0  0  0  0
 14 15  1  0  0  0  0
 14 16  1  0  0  0  0
 14 17  1  0  0  0  0
 11 12  1  0  0  0  0
 11 13  1  0  0  0  0
 11 14  1  0  0  0  0
  9 10  1  0  0  0  0
  9 11  1  0  0  0  0
  9 26  1  0  0  0  0
  7  8  1  0  0  0  0
  7  9  1  0  0  0  0
 30 31  1  0  0  0  0
 30 32  1  0  0  0  0
 30 33  1  0  0  0  0
 28 29  1  0  0  0  0
 28 30  1  0  0  0  0
M  END
$$$$
default_name
  -OEChem-02102213163D

 33 32  0     1  0  0  0  0  0999 V2000
   -3.8420   -3.6918    1.5562 H   0  0  0  0  0  0  0  0  0  0  0  0
   -3.8430   -2.7008    1.1032 C   0  0  0  0  0  0  0  0  0  0  0  0
   -4.5510   -2.0608    1.6242 H   0  0  0  0  0  0  0  0  0  0  0  0
   -4.1140   -2.7798    0.0522 H   0  0  0  0  0  0  0  0  0  0  0  0
   -2.4570   -2.1098    1.2172 C   0  0  0  0  0  0  0  0  0  0  0  0
   -1.5600   -2.7438    1.7572 O   0  0  0  0  0  0  0  0  0  0  0  0
   -2.2870   -0.8898    0.7102 N   0  0  0  0  0  0  0  0  0  0  0  0
   -3.0820   -0.4218    0.2992 H   0  0  0  0  0  0  0  0  0  0  0  0
   -1.0240   -0.1468    0.7262 C   0  0  1  0  0  0  0  0  0  0  0  0
   -0.3583   -0.6100    1.4558 H   0  0  0  0  0  0  0  0  0  0  0  0
   -0.3739   -0.2459   -0.6675 C   0  0  0  0  0  0  0  0  0  0  0  0
   -0.0169    0.7451   -0.9552 H   0  0  0  0  0  0  0  0  0  0  0  0
    0.4854   -0.9159   -0.6167 H   0  0  0  0  0  0  0  0  0  0  0  0
   -1.3395   -0.7422   -1.7550 C   0  0  0  0  0  0  0  0  0  0  0  0
   -0.8190   -0.7915   -2.7118 H   0  0  0  0  0  0  0  0  0  0  0  0
   -1.6964   -1.7392   -1.4904 H   0  0  0  0  0  0  0  0  0  0  0  0
   -2.5390    0.2021   -1.8942 C   0  0  0  0  0  0  0  0  0  0  0  0
   -3.0660    0.2680   -0.9419 H   0  0  0  0  0  0  0  0  0  0  0  0
   -2.1894    1.1940   -2.1819 H   0  0  0  0  0  0  0  0  0  0  0  0
   -3.4938   -0.3269   -2.9627 C   0  0  0  0  0  0  0  0  0  0  0  0
   -2.9751   -0.3761   -3.9187 H   0  0  0  0  0  0  0  0  0  0  0  0
   -3.8301   -1.3247   -2.6858 H   0  0  0  0  0  0  0  0  0  0  0  0
   -4.6674    0.5425   -3.1053 N   0  0  0  0  0  0  0  0  0  0  0  0
   -5.2679    0.1716   -3.8270 H   0  0  0  0  0  0  0  0  0  0  0  0
   -5.1704    0.5663   -2.2298 H   0  0  0  0  0  0  0  0  0  0  0  0
   -1.2712    1.3099    1.1517 C   0  0  0  0  0  0  0  0  0  0  0  0
   -2.2039    1.9448    0.6639 O   0  0  0  0  0  0  0  0  0  0  0  0
   -0.4306    1.8354    2.0503 N   0  0  0  0  0  0  0  0  0  0  0  0
    0.3001    1.2459    2.4139 H   0  0  0  0  0  0  0  0  0  0  0  0
   -0.5192    3.2082    2.5456 C   0  0  0  0  0  0  0  0  0  0  0  0
   -1.5166    3.3903    2.9518 H   0  0  0  0  0  0  0  0  0  0  0  0
    0.2240    3.3791    3.3257 H   0  0  0  0  0  0  0  0  0  0  0  0
   -0.3477    3.9067    1.7239 H   0  0  0  0  0  0  0  0  0  0  0  0
  5  6  2  0  0  0  0
  5  7  1  0  0  0  0
  2  3  1  0  0  0  0
  2  4  1  0  0  0  0
  2  5  1  0  0  0  0
  1  2  1  0  0  0  0
 26 27  2  0  0  0  0
 26 28  1  0  0  0  0
 23 24  1  0  0  0  0
 23 25  1  0  0  0  0
 20 21  1  0  0  0  0
 20 22  1  0  0  0  0
 20 23  1  0  0  0  0
 17 18  1  0  0  0  0
 17 19  1  0  0  0  0
 17 20  1  0  0  0  0
 14 15  1  0  0  0  0
 14 16  1  0  0  0  0
 14 17  1  0  0  0  0
 11 12  1  0  0  0  0
 11 13  1  0  0  0  0
 11 14  1  0  0  0  0
  9 10  1  0  0  0  0
  9 11  1  0  0  0  0
  9 26  1  0  0  0  0
  7  8  1  0  0  0  0
  7  9  1  0  0  0  0
 30 31  1  0  0  0  0
 30 32  1  0  0  0  0
 30 33  1  0  0  0  0
 28 29  1  0  0  0  0
 28 30  1  0  0  0  0
M  END
$$$$
default_name
  -OEChem-02102213163D

 33 32  0     1  0  0  0  0  0999 V2000
   -3.8420   -3.6918    1.5562 H   0  0  0  0  0  0  0  0  0  0  0  0
   -3.8430   -2.7008    1.1032 C   0  0  0  0  0  0  0  0  0  0  0  0
   -4.5510   -2.0608    1.6242 H   0  0  0  0  0  0  0  0  0  0  0  0
   -4.1140   -2.7798    0.0522 H   0  0  0  0  0  0  0  0  0  0  0  0
   -2.4570   -2.1098    1.2172 C   0  0  0  0  0  0  0  0  0  0  0  0
   -1.5600   -2.7438    1.7572 O   0  0  0  0  0  0  0  0  0  0  0  0
   -2.2870   -0.8898    0.7102 N   0  0  0  0  0  0  0  0  0  0  0  0
   -3.0820   -0.4218    0.2992 H   0  0  0  0  0  0  0  0  0  0  0  0
   -1.0240   -0.1468    0.7262 C   0  0  1  0  0  0  0  0  0  0  0  0
   -0.3583   -0.6100    1.4558 H   0  0  0  0  0  0  0  0  0  0  0  0
   -0.3739   -0.2459   -0.6675 C   0  0  0  0  0  0  0  0  0  0  0  0
   -0.0169    0.7451   -0.9552 H   0  0  0  0  0  0  0  0  0  0  0  0
    0.4854   -0.9159   -0.6167 H   0  0  0  0  0  0  0  0  0  0  0  0
   -1.3395   -0.7422   -1.7550 C   0  0  0  0  0  0  0  0  0  0  0  0
   -0.7737   -1.0448   -2.6365 H   0  0  0  0  0  0  0  0  0  0  0  0
   -1.8967   -1.6008   -1.3758 H   0  0  0  0  0  0  0  0  0  0  0  0
   -2.3253    0.3609   -2.1565 C   0  0  0  0  0  0  0  0  0  0  0  0
   -2.8940    0.6801   -1.2826 H   0  0  0  0  0  0  0  0  0  0  0  0
   -1.7746    1.2119   -2.5584 H   0  0  0  0  0  0  0  0  0  0  0  0
   -3.2878   -0.1657   -3.2192 C   0  0  0  0  0  0  0  0  0  0  0  0
   -2.7237   -0.4677   -4.1001 H   0  0  0  0  0  0  0  0  0  0  0  0
   -3.8258   -1.0266   -2.8257 H   0  0  0  0  0  0  0  0  0  0  0  0
   -4.2622    0.8597   -3.6099 N   0  0  0  0  0  0  0  0  0  0  0  0
   -4.8714    0.4830   -4.3212 H   0  0  0  0  0  0  0  0  0  0  0  0
   -4.8102    1.1207   -2.8025 H   0  0  0  0  0  0  0  0  0  0  0  0
   -1.2712    1.3099    1.1517 C   0  0  0  0  0  0  0  0  0  0  0  0
   -2.2039    1.9448    0.6639 O   0  0  0  0  0  0  0  0  0  0  0  0
   -0.4306    1.8354    2.0503 N   0  0  0  0  0  0  0  0  0  0  0  0
    0.3001    1.2459    2.4139 H   0  0  0  0  0  0  0  0  0  0  0  0
   -0.5192    3.2082    2.5456 C   0  0  0  0  0  0  0  0  0  0  0  0
   -1.5166    3.3903    2.9518 H   0  0  0  0  0  0  0  0  0  0  0  0
    0.2240    3.3791    3.3257 H   0  0  0  0  0  0  0  0  0  0  0  0
   -0.3477    3.9067    1.7239 H   0  0  0  0  0  0  0  0  0  0  0  0
  5  6  2  0  0  0  0
  5  7  1  0  0  0  0
  2  3  1  0  0  0  0
  2  4  1  0  0  0  0
  2  5  1  0  0  0  0
  1  2  1  0  0  0  0
 26 27  2  0  0  0  0
 26 28  1  0  0  0  0
 23 24  1  0  0  0  0
 23 25  1  0  0  0  0
 20 21  1  0  0  0  0
 20 22  1  0  0  0  0
 20 23  1  0  0  0  0
 17 18  1  0  0  0  0
 17 19  1  0  0  0  0
 17 20  1  0  0  0  0
 14 15  1  0  0  0  0
 14 16  1  0  0  0  0
 14 17  1  0  0  0  0
 11 12  1  0  0  0  0
 11 13  1  0  0  0  0
 11 14  1  0  0  0  0
  9 10  1  0  0  0  0
  9 11  1  0  0  0  0
  9 26  1  0  0  0  0
  7  8  1  0  0  0  0
  7  9  1  0  0  0  0
 30 31  1  0  0  0  0
 30 32  1  0  0  0  0
 30 33  1  0  0  0  0
 28 29  1  0  0  0  0
 28 30  1  0  0  0  0
M  END
$$$$
default_name
  -OEChem-02102213163D

 33 32  0     1  0  0  0  0  0999 V2000
   -3.8420   -3.6918    1.5562 H   0  0  0  0  0  0  0  0  0  0  0  0
   -3.8430   -2.7008    1.1032 C   0  0  0  0  0  0  0  0  0  0  0  0
   -4.5510   -2.0608    1.6242 H   0  0  0  0  0  0  0  0  0  0  0  0
   -4.1140   -2.7798    0.0522 H   0  0  0  0  0  0  0  0  0  0  0  0
   -2.4570   -2.1098    1.2172 C   0  0  0  0  0  0  0  0  0  0  0  0
   -1.5600   -2.7438    1.7572 O   0  0  0  0  0  0  0  0  0  0  0  0
   -2.2870   -0.8898    0.7102 N   0  0  0  0  0  0  0  0  0  0  0  0
   -3.0820   -0.4218    0.2992 H   0  0  0  0  0  0  0  0  0  0  0  0
   -1.0240   -0.1468    0.7262 C   0  0  1  0  0  0  0  0  0  0  0  0
   -0.3583   -0.6100    1.4558 H   0  0  0  0  0  0  0  0  0  0  0  0
   -0.3739   -0.2459   -0.6675 C   0  0  0  0  0  0  0  0  0  0  0  0
   -0.0169    0.7451   -0.9552 H   0  0  0  0  0  0  0  0  0  0  0  0
    0.4854   -0.9159   -0.6167 H   0  0  0  0  0  0  0  0  0  0  0  0
   -1.3395   -0.7422   -1.7550 C   0  0  0  0  0  0  0  0  0  0  0  0
   -0.7825   -1.2855   -2.5188 H   0  0  0  0  0  0  0  0  0  0  0  0
   -2.0743   -1.4117   -1.3043 H   0  0  0  0  0  0  0  0  0  0  0  0
   -2.0678    0.4326   -2.4178 C   0  0  0  0  0  0  0  0  0  0  0  0
   -2.6239    0.9912   -1.6643 H   0  0  0  0  0  0  0  0  0  0  0  0
   -1.3393    1.0921   -2.8903 H   0  0  0  0  0  0  0  0  0  0  0  0
   -3.0379   -0.0894   -3.4759 C   0  0  0  0  0  0  0  0  0  0  0  0
   -2.4825   -0.6318   -4.2394 H   0  0  0  0  0  0  0  0  0  0  0  0
   -3.7553   -0.7621   -3.0089 H   0  0  0  0  0  0  0  0  0  0  0  0
   -3.7705    1.0098   -4.1149 N   0  0  0  0  0  0  0  0  0  0  0  0
   -4.3901    0.6308   -4.8159 H   0  0  0  0  0  0  0  0  0  0  0  0
   -4.3129    1.4971   -3.4159 H   0  0  0  0  0  0  0  0  0  0  0  0
   -1.2712    1.3099    1.1517 C   0  0  0  0  0  0  0  0  0  0  0  0
   -2.2039    1.9448    0.6639 O   0  0  0  0  0  0  0  0  0  0  0  0
   -0.4306    1.8354    2.0503 N   0  0  0  0  0  0  0  0  0  0  0  0
    0.3001    1.2459    2.4139 H   0  0  0  0  0  0  0  0  0  0  0  0
   -0.5192    3.2082    2.5456 C   0  0  0  0  0  0  0  0  0  0  0  0
   -1.5166    3.3903    2.9518 H   0  0  0  0  0  0  0  0  0  0  0  0
    0.2240    3.3791    3.3257 H   0  0  0  0  0  0  0  0  0  0  0  0
   -0.3477    3.9067    1.7239 H   0  0  0  0  0  0  0  0  0  0  0  0
  5  6  2  0  0  0  0
  5  7  1  0  0  0  0
  2  3  1  0  0  0  0
  2  4  1  0  0  0  0
  2  5  1  0  0  0  0
  1  2  1  0  0  0  0
 26 27  2  0  0  0  0
 26 28  1  0  0  0  0
 23 24  1  0  0  0  0
 23 25  1  0  0  0  0
 20 21  1  0  0  0  0
 20 22  1  0  0  0  0
 20 23  1  0  0  0  0
 17 18  1  0  0  0  0
 17 19  1  0  0  0  0
 17 20  1  0  0  0  0
 14 15  1  0  0  0  0
 14 16  1  0  0  0  0
 14 17  1  0  0  0  0
 11 12  1  0  0  0  0
 11 13  1  0  0  0  0
 11 14  1  0  0  0  0
  9 10  1  0  0  0  0
  9 11  1  0  0  0  0
  9 26  1  0  0  0  0
  7  8  1  0  0  0  0
  7  9  1  0  0  0  0
 30 31  1  0  0  0  0
 30 32  1  0  0  0  0
 30 33  1  0  0  0  0
 28 29  1  0  0  0  0
 28 30  1  0  0  0  0
M  END
$$$$
default_name
  -OEChem-02102213163D

 33 32  0     1  0  0  0  0  0999 V2000
   -3.8420   -3.6918    1.5562 H   0  0  0  0  0  0  0  0  0  0  0  0
   -3.8430   -2.7008    1.1032 C   0  0  0  0  0  0  0  0  0  0  0  0
   -4.5510   -2.0608    1.6242 H   0  0  0  0  0  0  0  0  0  0  0  0
   -4.1140   -2.7798    0.0522 H   0  0  0  0  0  0  0  0  0  0  0  0
   -2.4570   -2.1098    1.2172 C   0  0  0  0  0  0  0  0  0  0  0  0
   -1.5600   -2.7438    1.7572 O   0  0  0  0  0  0  0  0  0  0  0  0
   -2.2870   -0.8898    0.7102 N   0  0  0  0  0  0  0  0  0  0  0  0
   -3.0820   -0.4218    0.2992 H   0  0  0  0  0  0  0  0  0  0  0  0
   -1.0240   -0.1468    0.7262 C   0  0  1  0  0  0  0  0  0  0  0  0
   -0.3583   -0.6100    1.4558 H   0  0  0  0  0  0  0  0  0  0  0  0
   -0.3739   -0.2459   -0.6675 C   0  0  0  0  0  0  0  0  0  0  0  0
   -0.0169    0.7451   -0.9552 H   0  0  0  0  0  0  0  0  0  0  0  0
    0.4854   -0.9159   -0.6167 H   0  0  0  0  0  0  0  0  0  0  0  0
   -1.3395   -0.7422   -1.7550 C   0  0  0  0  0  0  0  0  0  0  0  0
   -0.8450   -1.4973   -2.3667 H   0  0  0  0  0  0  0  0  0  0  0  0
   -2.2173   -1.1850   -1.2808 H   0  0  0  0  0  0  0  0  0  0  0  0
   -1.7841    0.4121   -2.6604 C   0  0  0  0  0  0  0  0  0  0  0  0
   -2.2742    1.1801   -2.0611 H   0  0  0  0  0  0  0  0  0  0  0  0
   -0.9129    0.8426   -3.1550 H   0  0  0  0  0  0  0  0  0  0  0  0
   -2.7610   -0.1032   -3.7154 C   0  0  0  0  0  0  0  0  0  0  0  0
   -2.2680   -0.8571   -4.3271 H   0  0  0  0  0  0  0  0  0  0  0  0
   -3.6235   -0.5494   -3.2230 H   0  0  0  0  0  0  0  0  0  0  0  0
   -3.2258    0.9827   -4.5861 N   0  0  0  0  0  0  0  0  0  0  0  0
   -3.8567    0.6049   -5.2777 H   0  0  0  0  0  0  0  0  0  0  0  0
   -3.7123    1.6698   -4.0279 H   0  0  0  0  0  0  0  0  0  0  0  0
   -1.2712    1.3099    1.1517 C   0  0  0  0  0  0  0  0  0  0  0  0
   -2.2039    1.9448    0.6639 O   0  0  0  0  0  0  0  0  0  0  0  0
   -0.4306    1.8354    2.0503 N   0  0  0  0  0  0  0  0  0  0  0  0
    0.3001    1.2459    2.4139 H   0  0  0  0  0  0  0  0  0  0  0  0
   -0.5192    3.2082    2.5456 C   0  0  0  0  0  0  0  0  0  0  0  0
   -1.5166    3.3903    2.9518 H   0  0  0  0  0  0  0  0  0  0  0  0
    0.2240    3.3791    3.3257 H   0  0  0  0  0  0  0  0  0  0  0  0
   -0.3477    3.9067    1.7239 H   0  0  0  0  0  0  0  0  0  0  0  0
  5  6  2  0  0  0  0
  5  7  1  0  0  0  0
  2  3  1  0  0  0  0
  2  4  1  0  0  0  0
  2  5  1  0  0  0  0
  1  2  1  0  0  0  0
 26 27  2  0  0  0  0
 26 28  1  0  0  0  0
 23 24  1  0  0  0  0
 23 25  1  0  0  0  0
 20 21  1  0  0  0  0
 20 22  1  0  0  0  0
 20 23  1  0  0  0  0
 17 18  1  0  0  0  0
 17 19  1  0  0  0  0
 17 20  1  0  0  0  0
 14 15  1  0  0  0  0
 14 16  1  0  0  0  0
 14 17  1  0  0  0  0
 11 12  1  0  0  0  0
 11 13  1  0  0  0  0
 11 14  1  0  0  0  0
  9 10  1  0  0  0  0
  9 11  1  0  0  0  0
  9 26  1  0  0  0  0
  7  8  1  0  0  0  0
  7  9  1  0  0  0  0
 30 31  1  0  0  0  0
 30 32  1  0  0  0  0
 30 33  1  0  0  0  0
 28 29  1  0  0  0  0
 28 30  1  0  0  0  0
M  END
$$$$
default_name
  -OEChem-02102213163D

 33 32  0     1  0  0  0  0  0999 V2000
   -3.8420   -3.6918    1.5562 H   0  0  0  0  0  0  0  0  0  0  0  0
   -3.8430   -2.7008    1.1032 C   0  0  0  0  0  0  0  0  0  0  0  0
   -4.5510   -2.0608    1.6242 H   0  0  0  0  0  0  0  0  0  0  0  0
   -4.1140   -2.7798    0.0522 H   0  0  0  0  0  0  0  0  0  0  0  0
   -2.4570   -2.1098    1.2172 C   0  0  0  0  0  0  0  0  0  0  0  0
   -1.5600   -2.7438    1.7572 O   0  0  0  0  0  0  0  0  0  0  0  0
   -2.2870   -0.8898    0.7102 N   0  0  0  0  0  0  0  0  0  0  0  0
   -3.0820   -0.4218    0.2992 H   0  0  0  0  0  0  0  0  0  0  0  0
   -1.0240   -0.1468    0.7262 C   0  0  1  0  0  0  0  0  0  0  0  0
   -0.3583   -0.6100    1.4558 H   0  0  0  0  0  0  0  0  0  0  0  0
   -0.3739   -0.2459   -0.6675 C   0  0  0  0  0  0  0  0  0  0  0  0
   -0.0169    0.7451   -0.9552 H   0  0  0  0  0  0  0  0  0  0  0  0
    0.4854   -0.9159   -0.6167 H   0  0  0  0  0  0  0  0  0  0  0  0
   -1.3395   -0.7422   -1.7550 C   0  0  0  0  0  0  0  0  0  0  0  0
   -0.9569   -1.6656   -2.1905 H   0  0  0  0  0  0  0  0  0  0  0  0
   -2.3158   -0.9359   -1.3070 H   0  0  0  0  0  0  0  0  0  0  0  0
   -1.4936    0.3010   -2.8676 C   0  0  0  0  0  0  0  0  0  0  0  0
   -1.8686    1.2340   -2.4458 H   0  0  0  0  0  0  0  0  0  0  0  0
   -0.5247    0.4804   -3.3344 H   0  0  0  0  0  0  0  0  0  0  0  0
   -2.4761   -0.2063   -3.9214 C   0  0  0  0  0  0  0  0  0  0  0  0
   -2.0947   -1.1283   -4.3572 H   0  0  0  0  0  0  0  0  0  0  0  0
   -3.4393   -0.4029   -3.4534 H   0  0  0  0  0  0  0  0  0  0  0  0
   -2.6653    0.7800   -4.9913 N   0  0  0  0  0  0  0  0  0  0  0  0
   -3.3077    0.4072   -5.6749 H   0  0  0  0  0  0  0  0  0  0  0  0
   -3.0494    1.6270   -4.5970 H   0  0  0  0  0  0  0  0  0  0  0  0
   -1.2712    1.3099    1.1517 C   0  0  0  0  0  0  0  0  0  0  0  0
   -2.2039    1.9448    0.6639 O   0  0  0  0  0  0  0  0  0  0  0  0
   -0.4306    1.8354    2.0503 N   0  0  0  0  0  0  0  0  0  0  0  0
    0.3001    1.2459    2.4139 H   0  0  0  0  0  0  0  0  0  0  0  0
   -0.5192    3.2082    2.5456 C   0  0  0  0  0  0  0  0  0  0  0  0
   -1.5166    3.3903    2.9518 H   0  0  0  0  0  0  0  0  0  0  0  0
    0.2240    3.3791    3.3257 H   0  0  0  0  0  0  0  0  0  0  0  0
   -0.3477    3.9067    1.7239 H   0  0  0  0  0  0  0  0  0  0  0  0
  5  6  2  0  0  0  0
  5  7  1  0  0  0  0
  2  3  1  0  0  0  0
  2  4  1  0  0  0  0
  2  5  1  0  0  0  0
  1  2  1  0  0  0  0
 26 27  2  0  0  0  0
 26 28  1  0  0  0  0
 23 24  1  0  0  0  0
 23 25  1  0  0  0  0
 20 21  1  0  0  0  0
 20 22  1  0  0  0  0
 20 23  1  0  0  0  0
 17 18  1  0  0  0  0
 17 19  1  0  0  0  0
 17 20  1  0  0  0  0
 14 15  1  0  0  0  0
 14 16  1  0  0  0  0
 14 17  1  0  0  0  0
 11 12  1  0  0  0  0
 11 13  1  0  0  0  0
 11 14  1  0  0  0  0
  9 10  1  0  0  0  0
  9 11  1  0  0  0  0
  9 26  1  0  0  0  0
  7  8  1  0  0  0  0
  7  9  1  0  0  0  0
 30 31  1  0  0  0  0
 30 32  1  0  0  0  0
 30 33  1  0  0  0  0
 28 29  1  0  0  0  0
 28 30  1  0  0  0  0
M  END
$$$$
default_name
  -OEChem-02102213163D

 33 32  0     1  0  0  0  0  0999 V2000
   -3.8420   -3.6918    1.5562 H   0  0  0  0  0  0  0  0  0  0  0  0
   -3.8430   -2.7008    1.1032 C   0  0  0  0  0  0  0  0  0  0  0  0
   -4.5510   -2.0608    1.6242 H   0  0  0  0  0  0  0  0  0  0  0  0
   -4.1140   -2.7798    0.0522 H   0  0  0  0  0  0  0  0  0  0  0  0
   -2.4570   -2.1098    1.2172 C   0  0  0  0  0  0  0  0  0  0  0  0
   -1.5600   -2.7438    1.7572 O   0  0  0  0  0  0  0  0  0  0  0  0
   -2.2870   -0.8898    0.7102 N   0  0  0  0  0  0  0  0  0  0  0  0
   -3.0820   -0.4218    0.2992 H   0  0  0  0  0  0  0  0  0  0  0  0
   -1.0240   -0.1468    0.7262 C   0  0  1  0  0  0  0  0  0  0  0  0
   -0.3583   -0.6100    1.4558 H   0  0  0  0  0  0  0  0  0  0  0  0
   -0.3739   -0.2459   -0.6675 C   0  0  0  0  0  0  0  0  0  0  0  0
   -0.0169    0.7451   -0.9552 H   0  0  0  0  0  0  0  0  0  0  0  0
    0.4854   -0.9159   -0.6167 H   0  0  0  0  0  0  0  0  0  0  0  0
   -1.3395   -0.7422   -1.7550 C   0  0  0  0  0  0  0  0  0  0  0  0
   -1.1105   -1.7791   -2.0023 H   0  0  0  0  0  0  0  0  0  0  0  0
   -2.3632   -0.6816   -1.3810 H   0  0  0  0  0  0  0  0  0  0  0  0
   -1.2160    0.1067   -3.0254 C   0  0  0  0  0  0  0  0  0  0  0  0
   -1.4347    1.1492   -2.7923 H   0  0  0  0  0  0  0  0  0  0  0  0
   -0.2010    0.0303   -3.4164 H   0  0  0  0  0  0  0  0  0  0  0  0
   -2.2026   -0.3915   -4.0797 C   0  0  0  0  0  0  0  0  0  0  0  0
   -1.9744   -1.4268   -4.3277 H   0  0  0  0  0  0  0  0  0  0  0  0
   -3.2153   -0.3326   -3.6844 H   0  0  0  0  0  0  0  0  0  0  0  0
   -2.1272    0.4157   -5.3029 N   0  0  0  0  0  0  0  0  0  0  0  0
   -2.7804    0.0510   -5.9805 H   0  0  0  0  0  0  0  0  0  0  0  0
   -2.3693    1.3717   -5.0844 H   0  0  0  0  0  0  0  0  0  0  0  0
   -1.2712    1.3099    1.1517 C   0  0  0  0  0  0  0  0  0  0  0  0
   -2.2039    1.9448    0.6639 O   0  0  0  0  0  0  0  0  0  0  0  0
   -0.4306    1.8354    2.0503 N   0  0  0  0  0  0  0  0  0  0  0  0
    0.3001    1.2459    2.4139 H   0  0  0  0  0  0  0  0  0  0  0  0
   -0.5192    3.2082    2.5456 C   0  0  0  0  0  0  0  0  0  0  0  0
   -1.5166    3.3903    2.9518 H   0  0  0  0  0  0  0  0  0  0  0  0
    0.2240    3.3791    3.3257 H   0  0  0  0  0  0  0  0  0  0  0  0
   -0.3477    3.9067    1.7239 H   0  0  0  0  0  0  0  0  0  0  0  0
  5  6  2  0  0  0  0
  5  7  1  0  0  0  0
  2  3  1  0  0  0  0
  2  4  1  0  0  0  0
  2  5  1  0  0  0  0
  1  2  1  0  0  0  0
 26 27  2  0  0  0  0
 26 28  1  0  0  0  0
 23 24  1  0  0  0  0
 23 25  1  0  0  0  0
 20 21  1  0  0  0  0
 20 22  1  0  0  0  0
 20 23  1  0  0  0  0
 17 18  1  0  0  0  0
 17 19  1  0  0  0  0
 17 20  1  0  0  0  0
 14 15  1  0  0  0  0
 14 16  1  0  0  0  0
 14 17  1  0  0  0  0
 11 12  1  0  0  0  0
 11 13  1  0  0  0  0
 11 14  1  0  0  0  0
  9 10  1  0  0  0  0
  9 11  1  0  0  0  0
  9 26  1  0  0  0  0
  7  8  1  0  0  0  0
  7  9  1  0  0  0  0
 30 31  1  0  0  0  0
 30 32  1  0  0  0  0
 30 33  1  0  0  0  0
 28 29  1  0  0  0  0
 28 30  1  0  0  0  0
M  END
$$$$
default_name
  -OEChem-02102213163D

 33 32  0     1  0  0  0  0  0999 V2000
   -3.8420   -3.6918    1.5562 H   0  0  0  0  0  0  0  0  0  0  0  0
   -3.8430   -2.7008    1.1032 C   0  0  0  0  0  0  0  0  0  0  0  0
   -4.5510   -2.0608    1.6242 H   0  0  0  0  0  0  0  0  0  0  0  0
   -4.1140   -2.7798    0.0522 H   0  0  0  0  0  0  0  0  0  0  0  0
   -2.4570   -2.1098    1.2172 C   0  0  0  0  0  0  0  0  0  0  0  0
   -1.5600   -2.7438    1.7572 O   0  0  0  0  0  0  0  0  0  0  0  0
   -2.2870   -0.8898    0.7102 N   0  0  0  0  0  0  0  0  0  0  0  0
   -3.0820   -0.4218    0.2992 H   0  0  0  0  0  0  0  0  0  0  0  0
   -1.0240   -0.1468    0.7262 C   0  0  1  0  0  0  0  0  0  0  0  0
   -0.3583   -0.6100    1.4558 H   0  0  0  0  0  0  0  0  0  0  0  0
   -0.3739   -0.2459   -0.6675 C   0  0  0  0  0  0  0  0  0  0  0  0
   -0.0169    0.7451   -0.9552 H   0  0  0  0  0  0  0  0  0  0  0  0
    0.4854   -0.9159   -0.6167 H   0  0  0  0  0  0  0  0  0  0  0  0
   -1.3395   -0.7422   -1.7550 C   0  0  0  0  0  0  0  0  0  0  0  0
   -1.2955   -1.8300   -1.8150 H   0  0  0  0  0  0  0  0  0  0  0  0
   -2.3561   -0.4392   -1.4978 H   0  0  0  0  0  0  0  0  0  0  0  0
   -0.9703   -0.1575   -3.1231 C   0  0  0  0  0  0  0  0  0  0  0  0
   -1.0023    0.9315   -3.0769 H   0  0  0  0  0  0  0  0  0  0  0  0
    0.0361   -0.4771   -3.3954 H   0  0  0  0  0  0  0  0  0  0  0  0
   -1.9591   -0.6462   -4.1797 C   0  0  0  0  0  0  0  0  0  0  0  0
   -1.9154   -1.7325   -4.2406 H   0  0  0  0  0  0  0  0  0  0  0  0
   -2.9668   -0.3433   -3.9002 H   0  0  0  0  0  0  0  0  0  0  0  0
   -1.6481   -0.0854   -5.4996 N   0  0  0  0  0  0  0  0  0  0  0  0
   -2.3108   -0.4394   -6.1737 H   0  0  0  0  0  0  0  0  0  0  0  0
   -1.7184    0.9213   -5.4567 H   0  0  0  0  0  0  0  0  0  0  0  0
   -1.2712    1.3099    1.1517 C   0  0  0  0  0  0  0  0  0  0  0  0
   -2.2039    1.9448    0.6639 O   0  0  0  0  0  0  0  0  0  0  0  0
   -0.4306    1.8354    2.0503 N   0  0  0  0  0  0  0  0  0  0  0  0
    0.3001    1.2459    2.4139 H   0  0  0  0  0  0  0  0  0  0  0  0
   -0.5192    3.2082    2.5456 C   0  0  0  0  0  0  0  0  0  0  0  0
   -1.5166    3.3903    2.9518 H   0  0  0  0  0  0  0  0  0  0  0  0
    0.2240    3.3791    3.3257 H   0  0  0  0  0  0  0  0  0  0  0  0
   -0.3477    3.9067    1.7239 H   0  0  0  0  0  0  0  0  0  0  0  0
  5  6  2  0  0  0  0
  5  7  1  0  0  0  0
  2  3  1  0  0  0  0
  2  4  1  0  0  0  0
  2  5  1  0  0  0  0
  1  2  1  0  0  0  0
 26 27  2  0  0  0  0
 26 28  1  0  0  0  0
 23 24  1  0  0  0  0
 23 25  1  0  0  0  0
 20 21  1  0  0  0  0
 20 22  1  0  0  0  0
 20 23  1  0  0  0  0
 17 18  1  0  0  0  0
 17 19  1  0  0  0  0
 17 20  1  0  0  0  0
 14 15  1  0  0  0  0
 14 16  1  0  0  0  0
 14 17  1  0  0  0  0
 11 12  1  0  0  0  0
 11 13  1  0  0  0  0
 11 14  1  0  0  0  0
  9 10  1  0  0  0  0
  9 11  1  0  0  0  0
  9 26  1  0  0  0  0
  7  8  1  0  0  0  0
  7  9  1  0  0  0  0
 30 31  1  0  0  0  0
 30 32  1  0  0  0  0
 30 33  1  0  0  0  0
 28 29  1  0  0  0  0
 28 30  1  0  0  0  0
M  END
$$$$
default_name
  -OEChem-02102213163D

 33 32  0     1  0  0  0  0  0999 V2000
   -3.8420   -3.6918    1.5562 H   0  0  0  0  0  0  0  0  0  0  0  0
   -3.8430   -2.7008    1.1032 C   0  0  0  0  0  0  0  0  0  0  0  0
   -4.5510   -2.0608    1.6242 H   0  0  0  0  0  0  0  0  0  0  0  0
   -4.1140   -2.7798    0.0522 H   0  0  0  0  0  0  0  0  0  0  0  0
   -2.4570   -2.1098    1.2172 C   0  0  0  0  0  0  0  0  0  0  0  0
   -1.5600   -2.7438    1.7572 O   0  0  0  0  0  0  0  0  0  0  0  0
   -2.2870   -0.8898    0.7102 N   0  0  0  0  0  0  0  0  0  0  0  0
   -3.0820   -0.4218    0.2992 H   0  0  0  0  0  0  0  0  0  0  0  0
   -1.0240   -0.1468    0.7262 C   0  0  1  0  0  0  0  0  0  0  0  0
   -0.3583   -0.6100    1.4558 H   0  0  0  0  0  0  0  0  0  0  0  0
   -0.3739   -0.2459   -0.6675 C   0  0  0  0  0  0  0  0  0  0  0  0
   -0.0169    0.7451   -0.9552 H   0  0  0  0  0  0  0  0  0  0  0  0
    0.4854   -0.9159   -0.6167 H   0  0  0  0  0  0  0  0  0  0  0  0
   -1.3395   -0.7422   -1.7550 C   0  0  0  0  0  0  0  0  0  0  0  0
   -1.4990   -1.8147   -1.6411 H   0  0  0  0  0  0  0  0  0  0  0  0
   -2.2952   -0.2255   -1.6495 H   0  0  0  0  0  0  0  0  0  0  0  0
   -0.7731   -0.4735   -3.1539 C   0  0  0  0  0  0  0  0  0  0  0  0
   -0.6006    0.5957   -3.2803 H   0  0  0  0  0  0  0  0  0  0  0  0
    0.1703   -1.0072   -3.2727 H   0  0  0  0  0  0  0  0  0  0  0  0
   -1.7621   -0.9532   -4.2145 C   0  0  0  0  0  0  0  0  0  0  0  0
   -1.9217   -2.0243   -4.1019 H   0  0  0  0  0  0  0  0  0  0  0  0
   -2.7106   -0.4342   -4.0862 H   0  0  0  0  0  0  0  0  0  0  0  0
   -1.2607   -0.6892   -5.5681 N   0  0  0  0  0  0  0  0  0  0  0  0
   -1.9309   -1.0305   -6.2414 H   0  0  0  0  0  0  0  0  0  0  0  0
   -1.1411    0.3065   -5.6888 H   0  0  0  0  0  0  0  0  0  0  0  0
   -1.2712    1.3099    1.1517 C   0  0  0  0  0  0  0  0  0  0  0  0
   -2.2039    1.9448    0.6639 O   0  0  0  0  0  0  0  0  0  0  0  0
   -0.4306    1.8354    2.0503 N   0  0  0  0  0  0  0  0  0  0  0  0
    0.3001    1.2459    2.4139 H   0  0  0  0  0  0  0  0  0  0  0  0
   -0.5192    3.2082    2.5456 C   0  0  0  0  0  0  0  0  0  0  0  0
   -1.5166    3.3903    2.9518 H   0  0  0  0  0  0  0  0  0  0  0  0
    0.2240    3.3791    3.3257 H   0  0  0  0  0  0  0  0  0  0  0  0
   -0.3477    3.9067    1.7239 H   0  0  0  0  0  0  0  0  0  0  0  0
  5  6  2  0  0  0  0
  5  7  1  0  0  0  0
  2  3  1  0  0  0  0
  2  4  1  0  0  0  0
  2  5  1  0  0  0  0
  1  2  1  0  0  0  0
 26 27  2  0  0  0  0
 26 28  1  0  0  0  0
 23 24  1  0  0  0  0
 23 25  1  0  0  0  0
 20 21  1  0  0  0  0
 20 22  1  0  0  0  0
 20 23  1  0  0  0  0
 17 18  1  0  0  0  0
 17 19  1  0  0  0  0
 17 20  1  0  0  0  0
 14 15  1  0  0  0  0
 14 16  1  0  0  0  0
 14 17  1  0  0  0  0
 11 12  1  0  0  0  0
 11 13  1  0  0  0  0
 11 14  1  0  0  0  0
  9 10  1  0  0  0  0
  9 11  1  0  0  0  0
  9 26  1  0  0  0  0
  7  8  1  0  0  0  0
  7  9  1  0  0  0  0
 30 31  1  0  0  0  0
 30 32  1  0  0  0  0
 30 33  1  0  0  0  0
 28 29  1  0  0  0  0
 28 30  1  0  0  0  0
M  END
$$$$
default_name
  -OEChem-02102213163D

 33 32  0     1  0  0  0  0  0999 V2000
   -3.8420   -3.6918    1.5562 H   0  0  0  0  0  0  0  0  0  0  0  0
   -3.8430   -2.7008    1.1032 C   0  0  0  0  0  0  0  0  0  0  0  0
   -4.5510   -2.0608    1.6242 H   0  0  0  0  0  0  0  0  0  0  0  0
   -4.1140   -2.7798    0.0522 H   0  0  0  0  0  0  0  0  0  0  0  0
   -2.4570   -2.1098    1.2172 C   0  0  0  0  0  0  0  0  0  0  0  0
   -1.5600   -2.7438    1.7572 O   0  0  0  0  0  0  0  0  0  0  0  0
   -2.2870   -0.8898    0.7102 N   0  0  0  0  0  0  0  0  0  0  0  0
   -3.0820   -0.4218    0.2992 H   0  0  0  0  0  0  0  0  0  0  0  0
   -1.0240   -0.1468    0.7262 C   0  0  1  0  0  0  0  0  0  0  0  0
   -0.3583   -0.6100    1.4558 H   0  0  0  0  0  0  0  0  0  0  0  0
   -0.3739   -0.2459   -0.6675 C   0  0  0  0  0  0  0  0  0  0  0  0
    0.2127    0.6584   -0.8420 H   0  0  0  0  0  0  0  0  0  0  0  0
    0.3036   -1.1006   -0.6883 H   0  0  0  0  0  0  0  0  0  0  0  0
   -1.3959   -0.3818   -1.8070 C   0  0  0  0  0  0  0  0  0  0  0  0
   -1.9927   -1.2821   -1.6580 H   0  0  0  0  0  0  0  0  0  0  0  0
   -2.0549    0.4884   -1.8038 H   0  0  0  0  0  0  0  0  0  0  0  0
   -0.6919   -0.4760   -3.1653 C   0  0  0  0  0  0  0  0  0  0  0  0
   -0.0840    0.4150   -3.3256 H   0  0  0  0  0  0  0  0  0  0  0  0
   -0.0503   -1.3575   -3.1820 H   0  0  0  0  0  0  0  0  0  0  0  0
   -1.7297   -0.5851   -4.2807 C   0  0  0  0  0  0  0  0  0  0  0  0
   -2.3259   -1.4842   -4.1330 H   0  0  0  0  0  0  0  0  0  0  0  0
   -2.3825    0.2858   -4.2544 H   0  0  0  0  0  0  0  0  0  0  0  0
   -1.0891   -0.6534   -5.5991 N   0  0  0  0  0  0  0  0  0  0  0  0
   -1.8017   -0.7387   -6.3090 H   0  0  0  0  0  0  0  0  0  0  0  0
   -0.5602    0.1930   -5.7547 H   0  0  0  0  0  0  0  0  0  0  0  0
   -1.2712    1.3099    1.1517 C   0  0  0  0  0  0  0  0  0  0  0  0
   -2.2039    1.9448    0.6639 O   0  0  0  0  0  0  0  0  0  0  0  0
   -0.4306    1.8354    2.0503 N   0  0  0  0  0  0  0  0  0  0  0  0
    0.3001    1.2459    2.4139 H   0  0  0  0  0  0  0  0  0  0  0  0
   -0.5192    3.2082    2.5456 C   0  0  0  0  0  0  0  0  0  0  0  0
   -1.5166    3.3903    2.9518 H   0  0  0  0  0  0  0  0  0  0  0  0
    0.2240    3.3791    3.3257 H   0  0  0  0  0  0  0  0  0  0  0  0
   -0.3477    3.9067    1.7239 H   0  0  0  0  0  0  0  0  0  0  0  0
  5  6  2  0  0  0  0
  5  7  1  0  0  0  0
  2  3  1  0  0  0  0
  2  4  1  0  0  0  0
  2  5  1  0  0  0  0
  1  2  1  0  0  0  0
 26 27  2  0  0  0  0
 26 28  1  0  0  0  0
 23 24  1  0  0  0  0
 23 25  1  0  0  0  0
 20 21  1  0  0  0  0
 20 22  1  0  0  0  0
 20 23  1  0  0  0  0
 17 18  1  0  0  0  0
 17 19  1  0  0  0  0
 17 20  1  0  0  0  0
 14 15  1  0  0  0  0
 14 16  1  0  0  0  0
 14 17  1  0  0  0  0
 11 12  1  0  0  0  0
 11 13  1  0  0  0  0
 11 14  1  0  0  0  0
  9 10  1  0  0  0  0
  9 11  1  0  0  0  0
  9 26  1  0  0  0  0
  7  8  1  0  0  0  0
  7  9  1  0  0  0  0
 30 31  1  0  0  0  0
 30 32  1  0  0  0  0
 30 33  1  0  0  0  0
 28 29  1  0  0  0  0
 28 30  1  0  0  0  0
M  END
$$$$
default_name
  -OEChem-02102213163D

 33 32  0     1  0  0  0  0  0999 V2000
   -3.8420   -3.6918    1.5562 H   0  0  0  0  0  0  0  0  0  0  0  0
   -3.8430   -2.7008    1.1032 C   0  0  0  0  0  0  0  0  0  0  0  0
   -4.5510   -2.0608    1.6242 H   0  0  0  0  0  0  0  0  0  0  0  0
   -4.1140   -2.7798    0.0522 H   0  0  0  0  0  0  0  0  0  0  0  0
   -2.4570   -2.1098    1.2172 C   0  0  0  0  0  0  0  0  0  0  0  0
   -1.5600   -2.7438    1.7572 O   0  0  0  0  0  0  0  0  0  0  0  0
   -2.2870   -0.8898    0.7102 N   0  0  0  0  0  0  0  0  0  0  0  0
   -3.0820   -0.4218    0.2992 H   0  0  0  0  0  0  0  0  0  0  0  0
   -1.0240   -0.1468    0.7262 C   0  0  1  0  0  0  0  0  0  0  0  0
   -0.3583   -0.6100    1.4558 H   0  0  0  0  0  0  0  0  0  0  0  0
   -0.3739   -0.2459   -0.6675 C   0  0  0  0  0  0  0  0  0  0  0  0
    0.2127    0.6584   -0.8420 H   0  0  0  0  0  0  0  0  0  0  0  0
    0.3036   -1.1006   -0.6883 H   0  0  0  0  0  0  0  0  0  0  0  0
   -1.3959   -0.3818   -1.8070 C   0  0  0  0  0  0  0  0  0  0  0  0
   -2.1568   -1.1124   -1.5310 H   0  0  0  0  0  0  0  0  0  0  0  0
   -1.8736    0.5846   -1.9779 H   0  0  0  0  0  0  0  0  0  0  0  0
   -0.7152   -0.8434   -3.1006 C   0  0  0  0  0  0  0  0  0  0  0  0
    0.0548   -0.1259   -3.3856 H   0  0  0  0  0  0  0  0  0  0  0  0
   -0.2567   -1.8198   -2.9417 H   0  0  0  0  0  0  0  0  0  0  0  0
   -1.7478   -0.9462   -4.2215 C   0  0  0  0  0  0  0  0  0  0  0  0
   -2.5078   -1.6759   -3.9470 H   0  0  0  0  0  0  0  0  0  0  0  0
   -2.2194    0.0239   -4.3694 H   0  0  0  0  0  0  0  0  0  0  0  0
   -1.1245   -1.3637   -5.4826 N   0  0  0  0  0  0  0  0  0  0  0  0
   -1.8358   -1.4346   -6.1954 H   0  0  0  0  0  0  0  0  0  0  0  0
   -0.4406   -0.6736   -5.7586 H   0  0  0  0  0  0  0  0  0  0  0  0
   -1.2712    1.3099    1.1517 C   0  0  0  0  0  0  0  0  0  0  0  0
   -2.2039    1.9448    0.6639 O   0  0  0  0  0  0  0  0  0  0  0  0
   -0.4306    1.8354    2.0503 N   0  0  0  0  0  0  0  0  0  0  0  0
    0.3001    1.2459    2.4139 H   0  0  0  0  0  0  0  0  0  0  0  0
   -0.5192    3.2082    2.5456 C   0  0  0  0  0  0  0  0  0  0  0  0
   -1.5166    3.3903    2.9518 H   0  0  0  0  0  0  0  0  0  0  0  0
    0.2240    3.3791    3.3257 H   0  0  0  0  0  0  0  0  0  0  0  0
   -0.3477    3.9067    1.7239 H   0  0  0  0  0  0  0  0  0  0  0  0
  5  6  2  0  0  0  0
  5  7  1  0  0  0  0
  2  3  1  0  0  0  0
  2  4  1  0  0  0  0
  2  5  1  0  0  0  0
  1  2  1  0  0  0  0
 26 27  2  0  0  0  0
 26 28  1  0  0  0  0
 23 24  1  0  0  0  0
 23 25  1  0  0  0  0
 20 21  1  0  0  0  0
 20 22  1  0  0  0  0
 20 23  1  0  0  0  0
 17 18  1  0  0  0  0
 17 19  1  0  0  0  0
 17 20  1  0  0  0  0
 14 15  1  0  0  0  0
 14 16  1  0  0  0  0
 14 17  1  0  0  0  0
 11 12  1  0  0  0  0
 11 13  1  0  0  0  0
 11 14  1  0  0  0  0
  9 10  1  0  0  0  0
  9 11  1  0  0  0  0
  9 26  1  0  0  0  0
  7  8  1  0  0  0  0
  7  9  1  0  0  0  0
 30 31  1  0  0  0  0
 30 32  1  0  0  0  0
 30 33  1  0  0  0  0
 28 29  1  0  0  0  0
 28 30  1  0  0  0  0
M  END
$$$$
default_name
  -OEChem-02102213163D

 33 32  0     1  0  0  0  0  0999 V2000
   -3.8420   -3.6918    1.5562 H   0  0  0  0  0  0  0  0  0  0  0  0
   -3.8430   -2.7008    1.1032 C   0  0  0  0  0  0  0  0  0  0  0  0
   -4.5510   -2.0608    1.6242 H   0  0  0  0  0  0  0  0  0  0  0  0
   -4.1140   -2.7798    0.0522 H   0  0  0  0  0  0  0  0  0  0  0  0
   -2.4570   -2.1098    1.2172 C   0  0  0  0  0  0  0  0  0  0  0  0
   -1.5600   -2.7438    1.7572 O   0  0  0  0  0  0  0  0  0  0  0  0
   -2.2870   -0.8898    0.7102 N   0  0  0  0  0  0  0  0  0  0  0  0
   -3.0820   -0.4218    0.2992 H   0  0  0  0  0  0  0  0  0  0  0  0
   -1.0240   -0.1468    0.7262 C   0  0  1  0  0  0  0  0  0  0  0  0
   -0.3583   -0.6100    1.4558 H   0  0  0  0  0  0  0  0  0  0  0  0
   -0.3739   -0.2459   -0.6675 C   0  0  0  0  0  0  0  0  0  0  0  0
    0.2127    0.6584   -0.8420 H   0  0  0  0  0  0  0  0  0  0  0  0
    0.3036   -1.1006   -0.6883 H   0  0  0  0  0  0  0  0  0  0  0  0
   -1.3959   -0.3818   -1.8070 C   0  0  0  0  0  0  0  0  0  0  0  0
   -2.2857   -0.8951   -1.4413 H   0  0  0  0  0  0  0  0  0  0  0  0
   -1.6761    0.6129   -2.1584 H   0  0  0  0  0  0  0  0  0  0  0  0
   -0.8098   -1.1826   -2.9753 C   0  0  0  0  0  0  0  0  0  0  0  0
    0.0865   -0.6853   -3.3473 H   0  0  0  0  0  0  0  0  0  0  0  0
   -0.5503   -2.1854   -2.6348 H   0  0  0  0  0  0  0  0  0  0  0  0
   -1.8358   -1.2813   -4.1025 C   0  0  0  0  0  0  0  0  0  0  0  0
   -2.7246   -1.7942   -3.7384 H   0  0  0  0  0  0  0  0  0  0  0  0
   -2.1094   -0.2803   -4.4317 H   0  0  0  0  0  0  0  0  0  0  0  0
   -1.2977   -2.0230   -5.2486 N   0  0  0  0  0  0  0  0  0  0  0  0
   -2.0049   -2.0807   -5.9667 H   0  0  0  0  0  0  0  0  0  0  0  0
   -0.4912   -1.5342   -5.6105 H   0  0  0  0  0  0  0  0  0  0  0  0
   -1.2712    1.3099    1.1517 C   0  0  0  0  0  0  0  0  0  0  0  0
   -2.2039    1.9448    0.6639 O   0  0  0  0  0  0  0  0  0  0  0  0
   -0.4306    1.8354    2.0503 N   0  0  0  0  0  0  0  0  0  0  0  0
    0.3001    1.2459    2.4139 H   0  0  0  0  0  0  0  0  0  0  0  0
   -0.5192    3.2082    2.5456 C   0  0  0  0  0  0  0  0  0  0  0  0
   -1.5166    3.3903    2.9518 H   0  0  0  0  0  0  0  0  0  0  0  0
    0.2240    3.3791    3.3257 H   0  0  0  0  0  0  0  0  0  0  0  0
   -0.3477    3.9067    1.7239 H   0  0  0  0  0  0  0  0  0  0  0  0
  5  6  2  0  0  0  0
  5  7  1  0  0  0  0
  2  3  1  0  0  0  0
  2  4  1  0  0  0  0
  2  5  1  0  0  0  0
  1  2  1  0  0  0  0
 26 27  2  0  0  0  0
 26 28  1  0  0  0  0
 23 24  1  0  0  0  0
 23 25  1  0  0  0  0
 20 21  1  0  0  0  0
 20 22  1  0  0  0  0
 20 23  1  0  0  0  0
 17 18  1  0  0  0  0
 17 19  1  0  0  0  0
 17 20  1  0  0  0  0
 14 15  1  0  0  0  0
 14 16  1  0  0  0  0
 14 17  1  0  0  0  0
 11 12  1  0  0  0  0
 11 13  1  0  0  0  0
 11 14  1  0  0  0  0
  9 10  1  0  0  0  0
  9 11  1  0  0  0  0
  9 26  1  0  0  0  0
  7  8  1  0  0  0  0
  7  9  1  0  0  0  0
 30 31  1  0  0  0  0
 30 32  1  0  0  0  0
 30 33  1  0  0  0  0
 28 29  1  0  0  0  0
 28 30  1  0  0  0  0
M  END
$$$$
default_name
  -OEChem-02102213163D

 33 32  0     1  0  0  0  0  0999 V2000
   -3.8420   -3.6918    1.5562 H   0  0  0  0  0  0  0  0  0  0  0  0
   -3.8430   -2.7008    1.1032 C   0  0  0  0  0  0  0  0  0  0  0  0
   -4.5510   -2.0608    1.6242 H   0  0  0  0  0  0  0  0  0  0  0  0
   -4.1140   -2.7798    0.0522 H   0  0  0  0  0  0  0  0  0  0  0  0
   -2.4570   -2.1098    1.2172 C   0  0  0  0  0  0  0  0  0  0  0  0
   -1.5600   -2.7438    1.7572 O   0  0  0  0  0  0  0  0  0  0  0  0
   -2.2870   -0.8898    0.7102 N   0  0  0  0  0  0  0  0  0  0  0  0
   -3.0820   -0.4218    0.2992 H   0  0  0  0  0  0  0  0  0  0  0  0
   -1.0240   -0.1468    0.7262 C   0  0  1  0  0  0  0  0  0  0  0  0
   -0.3583   -0.6100    1.4558 H   0  0  0  0  0  0  0  0  0  0  0  0
   -0.3739   -0.2459   -0.6675 C   0  0  0  0  0  0  0  0  0  0  0  0
    0.2127    0.6584   -0.8420 H   0  0  0  0  0  0  0  0  0  0  0  0
    0.3036   -1.1006   -0.6883 H   0  0  0  0  0  0  0  0  0  0  0  0
   -1.3959   -0.3818   -1.8070 C   0  0  0  0  0  0  0  0  0  0  0  0
   -2.3706   -0.6450   -1.3950 H   0  0  0  0  0  0  0  0  0  0  0  0
   -1.4757    0.5712   -2.3331 H   0  0  0  0  0  0  0  0  0  0  0  0
   -0.9691   -1.4705   -2.7980 C   0  0  0  0  0  0  0  0  0  0  0  0
    0.0088   -1.2252   -3.2133 H   0  0  0  0  0  0  0  0  0  0  0  0
   -0.9111   -2.4294   -2.2821 H   0  0  0  0  0  0  0  0  0  0  0  0
   -1.9879   -1.5676   -3.9319 C   0  0  0  0  0  0  0  0  0  0  0  0
   -2.9615   -1.8308   -3.5216 H   0  0  0  0  0  0  0  0  0  0  0  0
   -2.0602   -0.6059   -4.4371 H   0  0  0  0  0  0  0  0  0  0  0  0
   -1.5969   -2.5863   -4.9131 N   0  0  0  0  0  0  0  0  0  0  0  0
   -2.2974   -2.6329   -5.6384 H   0  0  0  0  0  0  0  0  0  0  0  0
   -0.7087   -2.3303   -5.3205 H   0  0  0  0  0  0  0  0  0  0  0  0
   -1.2712    1.3099    1.1517 C   0  0  0  0  0  0  0  0  0  0  0  0
   -2.2039    1.9448    0.6639 O   0  0  0  0  0  0  0  0  0  0  0  0
   -0.4306    1.8354    2.0503 N   0  0  0  0  0  0  0  0  0  0  0  0
    0.3001    1.2459    2.4139 H   0  0  0  0  0  0  0  0  0  0  0  0
   -0.5192    3.2082    2.5456 C   0  0  0  0  0  0  0  0  0  0  0  0
   -1.5166    3.3903    2.9518 H   0  0  0  0  0  0  0  0  0  0  0  0
    0.2240    3.3791    3.3257 H   0  0  0  0  0  0  0  0  0  0  0  0
   -0.3477    3.9067    1.7239 H   0  0  0  0  0  0  0  0  0  0  0  0
  5  6  2  0  0  0  0
  5  7  1  0  0  0  0
  2  3  1  0  0  0  0
  2  4  1  0  0  0  0
  2  5  1  0  0  0  0
  1  2  1  0  0  0  0
 26 27  2  0  0  0  0
 26 28  1  0  0  0  0
 23 24  1  0  0  0  0
 23 25  1  0  0  0  0
 20 21  1  0  0  0  0
 20 22  1  0  0  0  0
 20 23  1  0  0  0  0
 17 18  1  0  0  0  0
 17 19  1  0  0  0  0
 17 20  1  0  0  0  0
 14 15  1  0  0  0  0
 14 16  1  0  0  0  0
 14 17  1  0  0  0  0
 11 12  1  0  0  0  0
 11 13  1  0  0  0  0
 11 14  1  0  0  0  0
  9 10  1  0  0  0  0
  9 11  1  0  0  0  0
  9 26  1  0  0  0  0
  7  8  1  0  0  0  0
  7  9  1  0  0  0  0
 30 31  1  0  0  0  0
 30 32  1  0  0  0  0
 30 33  1  0  0  0  0
 28 29  1  0  0  0  0
 28 30  1  0  0  0  0
M  END
$$$$
default_name
  -OEChem-02102213163D

 33 32  0     1  0  0  0  0  0999 V2000
   -3.8420   -3.6918    1.5562 H   0  0  0  0  0  0  0  0  0  0  0  0
   -3.8430   -2.7008    1.1032 C   0  0  0  0  0  0  0  0  0  0  0  0
   -4.5510   -2.0608    1.6242 H   0  0  0  0  0  0  0  0  0  0  0  0
   -4.1140   -2.7798    0.0522 H   0  0  0  0  0  0  0  0  0  0  0  0
   -2.4570   -2.1098    1.2172 C   0  0  0  0  0  0  0  0  0  0  0  0
   -1.5600   -2.7438    1.7572 O   0  0  0  0  0  0  0  0  0  0  0  0
   -2.2870   -0.8898    0.7102 N   0  0  0  0  0  0  0  0  0  0  0  0
   -3.0820   -0.4218    0.2992 H   0  0  0  0  0  0  0  0  0  0  0  0
   -1.0240   -0.1468    0.7262 C   0  0  1  0  0  0  0  0  0  0  0  0
   -0.3583   -0.6100    1.4558 H   0  0  0  0  0  0  0  0  0  0  0  0
   -0.3739   -0.2459   -0.6675 C   0  0  0  0  0  0  0  0  0  0  0  0
    0.2127    0.6584   -0.8420 H   0  0  0  0  0  0  0  0  0  0  0  0
    0.3036   -1.1006   -0.6883 H   0  0  0  0  0  0  0  0  0  0  0  0
   -1.3959   -0.3818   -1.8070 C   0  0  0  0  0  0  0  0  0  0  0  0
   -2.4056   -0.3791   -1.3953 H   0  0  0  0  0  0  0  0  0  0  0  0
   -1.2862    0.4624   -2.4901 H   0  0  0  0  0  0  0  0  0  0  0  0
   -1.1823   -1.6876   -2.5809 C   0  0  0  0  0  0  0  0  0  0  0  0
   -0.1728   -1.7087   -2.9927 H   0  0  0  0  0  0  0  0  0  0  0  0
   -1.3145   -2.5351   -1.9077 H   0  0  0  0  0  0  0  0  0  0  0  0
   -2.1937   -1.7856   -3.7214 C   0  0  0  0  0  0  0  0  0  0  0  0
   -3.2023   -1.7835   -3.3112 H   0  0  0  0  0  0  0  0  0  0  0  0
   -2.0750   -0.9307   -4.3850 H   0  0  0  0  0  0  0  0  0  0  0  0
   -2.0017   -3.0152   -4.4989 N   0  0  0  0  0  0  0  0  0  0  0  0
   -2.6935   -3.0537   -5.2330 H   0  0  0  0  0  0  0  0  0  0  0  0
   -1.0783   -3.0075   -4.9083 H   0  0  0  0  0  0  0  0  0  0  0  0
   -1.2712    1.3099    1.1517 C   0  0  0  0  0  0  0  0  0  0  0  0
   -2.2039    1.9448    0.6639 O   0  0  0  0  0  0  0  0  0  0  0  0
   -0.4306    1.8354    2.0503 N   0  0  0  0  0  0  0  0  0  0  0  0
    0.3001    1.2459    2.4139 H   0  0  0  0  0  0  0  0  0  0  0  0
   -0.5192    3.2082    2.5456 C   0  0  0  0  0  0  0  0  0  0  0  0
   -1.5166    3.3903    2.9518 H   0  0  0  0  0  0  0  0  0  0  0  0
    0.2240    3.3791    3.3257 H   0  0  0  0  0  0  0  0  0  0  0  0
   -0.3477    3.9067    1.7239 H   0  0  0  0  0  0  0  0  0  0  0  0
  5  6  2  0  0  0  0
  5  7  1  0  0  0  0
  2  3  1  0  0  0  0
  2  4  1  0  0  0  0
  2  5  1  0  0  0  0
  1  2  1  0  0  0  0
 26 27  2  0  0  0  0
 26 28  1  0  0  0  0
 23 24  1  0  0  0  0
 23 25  1  0  0  0  0
 20 21  1  0  0  0  0
 20 22  1  0  0  0  0
 20 23  1  0  0  0  0
 17 18  1  0  0  0  0
 17 19  1  0  0  0  0
 17 20  1  0  0  0  0
 14 15  1  0  0  0  0
 14 16  1  0  0  0  0
 14 17  1  0  0  0  0
 11 12  1  0  0  0  0
 11 13  1  0  0  0  0
 11 14  1  0  0  0  0
  9 10  1  0  0  0  0
  9 11  1  0  0  0  0
  9 26  1  0  0  0  0
  7  8  1  0  0  0  0
  7  9  1  0  0  0  0
 30 31  1  0  0  0  0
 30 32  1  0  0  0  0
 30 33  1  0  0  0  0
 28 29  1  0  0  0  0
 28 30  1  0  0  0  0
M  END
$$$$
default_name
  -OEChem-02102213163D

 33 32  0     1  0  0  0  0  0999 V2000
   -3.8420   -3.6918    1.5562 H   0  0  0  0  0  0  0  0  0  0  0  0
   -3.8430   -2.7008    1.1032 C   0  0  0  0  0  0  0  0  0  0  0  0
   -4.5510   -2.0608    1.6242 H   0  0  0  0  0  0  0  0  0  0  0  0
   -4.1140   -2.7798    0.0522 H   0  0  0  0  0  0  0  0  0  0  0  0
   -2.4570   -2.1098    1.2172 C   0  0  0  0  0  0  0  0  0  0  0  0
   -1.5600   -2.7438    1.7572 O   0  0  0  0  0  0  0  0  0  0  0  0
   -2.2870   -0.8898    0.7102 N   0  0  0  0  0  0  0  0  0  0  0  0
   -3.0820   -0.4218    0.2992 H   0  0  0  0  0  0  0  0  0  0  0  0
   -1.0240   -0.1468    0.7262 C   0  0  1  0  0  0  0  0  0  0  0  0
   -0.3583   -0.6100    1.4558 H   0  0  0  0  0  0  0  0  0  0  0  0
   -0.3739   -0.2459   -0.6675 C   0  0  0  0  0  0  0  0  0  0  0  0
    0.2127    0.6584   -0.8420 H   0  0  0  0  0  0  0  0  0  0  0  0
    0.3036   -1.1006   -0.6883 H   0  0  0  0  0  0  0  0  0  0  0  0
   -1.3959   -0.3818   -1.8070 C   0  0  0  0  0  0  0  0  0  0  0  0
   -2.3884   -0.1157   -1.4422 H   0  0  0  0  0  0  0  0  0  0  0  0
   -1.1204    0.2939   -2.6187 H   0  0  0  0  0  0  0  0  0  0  0  0
   -1.4349   -1.8190   -2.3387 C   0  0  0  0  0  0  0  0  0  0  0  0
   -0.4462   -2.1028   -2.7005 H   0  0  0  0  0  0  0  0  0  0  0  0
   -1.7330   -2.4953   -1.5370 H   0  0  0  0  0  0  0  0  0  0  0  0
   -2.4391   -1.9205   -3.4852 C   0  0  0  0  0  0  0  0  0  0  0  0
   -3.4307   -1.6554   -3.1217 H   0  0  0  0  0  0  0  0  0  0  0  0
   -2.1529   -1.2327   -4.2792 H   0  0  0  0  0  0  0  0  0  0  0  0
   -2.4844   -3.2805   -4.0342 N   0  0  0  0  0  0  0  0  0  0  0  0
   -3.1661   -3.3143   -4.7780 H   0  0  0  0  0  0  0  0  0  0  0  0
   -1.5746   -3.5199   -4.4020 H   0  0  0  0  0  0  0  0  0  0  0  0
   -1.2712    1.3099    1.1517 C   0  0  0  0  0  0  0  0  0  0  0  0
   -2.2039    1.9448    0.6639 O   0  0  0  0  0  0  0  0  0  0  0  0
   -0.4306    1.8354    2.0503 N   0  0  0  0  0  0  0  0  0  0  0  0
    0.3001    1.2459    2.4139 H   0  0  0  0  0  0  0  0  0  0  0  0
   -0.5192    3.2082    2.5456 C   0  0  0  0  0  0  0  0  0  0  0  0
   -1.5166    3.3903    2.9518 H   0  0  0  0  0  0  0  0  0  0  0  0
    0.2240    3.3791    3.3257 H   0  0  0  0  0  0  0  0  0  0  0  0
   -0.3477    3.9067    1.7239 H   0  0  0  0  0  0  0  0  0  0  0  0
  5  6  2  0  0  0  0
  5  7  1  0  0  0  0
  2  3  1  0  0  0  0
  2  4  1  0  0  0  0
  2  5  1  0  0  0  0
  1  2  1  0  0  0  0
 26 27  2  0  0  0  0
 26 28  1  0  0  0  0
 23 24  1  0  0  0  0
 23 25  1  0  0  0  0
 20 21  1  0  0  0  0
 20 22  1  0  0  0  0
 20 23  1  0  0  0  0
 17 18  1  0  0  0  0
 17 19  1  0  0  0  0
 17 20  1  0  0  0  0
 14 15  1  0  0  0  0
 14 16  1  0  0  0  0
 14 17  1  0  0  0  0
 11 12  1  0  0  0  0
 11 13  1  0  0  0  0
 11 14  1  0  0  0  0
  9 10  1  0  0  0  0
  9 11  1  0  0  0  0
  9 26  1  0  0  0  0
  7  8  1  0  0  0  0
  7  9  1  0  0  0  0
 30 31  1  0  0  0  0
 30 32  1  0  0  0  0
 30 33  1  0  0  0  0
 28 29  1  0  0  0  0
 28 30  1  0  0  0  0
M  END
$$$$
default_name
  -OEChem-02102213163D

 33 32  0     1  0  0  0  0  0999 V2000
   -3.8420   -3.6918    1.5562 H   0  0  0  0  0  0  0  0  0  0  0  0
   -3.8430   -2.7008    1.1032 C   0  0  0  0  0  0  0  0  0  0  0  0
   -4.5510   -2.0608    1.6242 H   0  0  0  0  0  0  0  0  0  0  0  0
   -4.1140   -2.7798    0.0522 H   0  0  0  0  0  0  0  0  0  0  0  0
   -2.4570   -2.1098    1.2172 C   0  0  0  0  0  0  0  0  0  0  0  0
   -1.5600   -2.7438    1.7572 O   0  0  0  0  0  0  0  0  0  0  0  0
   -2.2870   -0.8898    0.7102 N   0  0  0  0  0  0  0  0  0  0  0  0
   -3.0820   -0.4218    0.2992 H   0  0  0  0  0  0  0  0  0  0  0  0
   -1.0240   -0.1468    0.7262 C   0  0  1  0  0  0  0  0  0  0  0  0
   -0.3583   -0.6100    1.4558 H   0  0  0  0  0  0  0  0  0  0  0  0
   -0.3739   -0.2459   -0.6675 C   0  0  0  0  0  0  0  0  0  0  0  0
    0.2127    0.6584   -0.8420 H   0  0  0  0  0  0  0  0  0  0  0  0
    0.3036   -1.1006   -0.6883 H   0  0  0  0  0  0  0  0  0  0  0  0
   -1.3959   -0.3818   -1.8070 C   0  0  0  0  0  0  0  0  0  0  0  0
   -2.3201    0.1274   -1.5324 H   0  0  0  0  0  0  0  0  0  0  0  0
   -0.9897    0.0772   -2.7102 H   0  0  0  0  0  0  0  0  0  0  0  0
   -1.7096   -1.8557   -2.0879 C   0  0  0  0  0  0  0  0  0  0  0  0
   -0.7925   -2.3808   -2.3567 H   0  0  0  0  0  0  0  0  0  0  0  0
   -2.1381   -2.3128   -1.1955 H   0  0  0  0  0  0  0  0  0  0  0  0
   -2.7075   -1.9630   -3.2394 C   0  0  0  0  0  0  0  0  0  0  0  0
   -3.6310   -1.4551   -2.9660 H   0  0  0  0  0  0  0  0  0  0  0  0
   -2.2885   -1.4913   -4.1267 H   0  0  0  0  0  0  0  0  0  0  0  0
   -3.0123   -3.3642   -3.5508 N   0  0  0  0  0  0  0  0  0  0  0  0
   -3.6831   -3.3970   -4.3044 H   0  0  0  0  0  0  0  0  0  0  0  0
   -2.1640   -3.8323   -3.8361 H   0  0  0  0  0  0  0  0  0  0  0  0
   -1.2712    1.3099    1.1517 C   0  0  0  0  0  0  0  0  0  0  0  0
   -2.2039    1.9448    0.6639 O   0  0  0  0  0  0  0  0  0  0  0  0
   -0.4306    1.8354    2.0503 N   0  0  0  0  0  0  0  0  0  0  0  0
    0.3001    1.2459    2.4139 H   0  0  0  0  0  0  0  0  0  0  0  0
   -0.5192    3.2082    2.5456 C   0  0  0  0  0  0  0  0  0  0  0  0
   -1.5166    3.3903    2.9518 H   0  0  0  0  0  0  0  0  0  0  0  0
    0.2240    3.3791    3.3257 H   0  0  0  0  0  0  0  0  0  0  0  0
   -0.3477    3.9067    1.7239 H   0  0  0  0  0  0  0  0  0  0  0  0
  5  6  2  0  0  0  0
  5  7  1  0  0  0  0
  2  3  1  0  0  0  0
  2  4  1  0  0  0  0
  2  5  1  0  0  0  0
  1  2  1  0  0  0  0
 26 27  2  0  0  0  0
 26 28  1  0  0  0  0
 23 24  1  0  0  0  0
 23 25  1  0  0  0  0
 20 21  1  0  0  0  0
 20 22  1  0  0  0  0
 20 23  1  0  0  0  0
 17 18  1  0  0  0  0
 17 19  1  0  0  0  0
 17 20  1  0  0  0  0
 14 15  1  0  0  0  0
 14 16  1  0  0  0  0
 14 17  1  0  0  0  0
 11 12  1  0  0  0  0
 11 13  1  0  0  0  0
 11 14  1  0  0  0  0
  9 10  1  0  0  0  0
  9 11  1  0  0  0  0
  9 26  1  0  0  0  0
  7  8  1  0  0  0  0
  7  9  1  0  0  0  0
 30 31  1  0  0  0  0
 30 32  1  0  0  0  0
 30 33  1  0  0  0  0
 28 29  1  0  0  0  0
 28 30  1  0  0  0  0
M  END
$$$$
default_name
  -OEChem-02102213163D

 33 32  0     1  0  0  0  0  0999 V2000
   -3.8420   -3.6918    1.5562 H   0  0  0  0  0  0  0  0  0  0  0  0
   -3.8430   -2.7008    1.1032 C   0  0  0  0  0  0  0  0  0  0  0  0
   -4.5510   -2.0608    1.6242 H   0  0  0  0  0  0  0  0  0  0  0  0
   -4.1140   -2.7798    0.0522 H   0  0  0  0  0  0  0  0  0  0  0  0
   -2.4570   -2.1098    1.2172 C   0  0  0  0  0  0  0  0  0  0  0  0
   -1.5600   -2.7438    1.7572 O   0  0  0  0  0  0  0  0  0  0  0  0
   -2.2870   -0.8898    0.7102 N   0  0  0  0  0  0  0  0  0  0  0  0
   -3.0820   -0.4218    0.2992 H   0  0  0  0  0  0  0  0  0  0  0  0
   -1.0240   -0.1468    0.7262 C   0  0  1  0  0  0  0  0  0  0  0  0
   -0.3583   -0.6100    1.4558 H   0  0  0  0  0  0  0  0  0  0  0  0
   -0.3739   -0.2459   -0.6675 C   0  0  0  0  0  0  0  0  0  0  0  0
    0.2127    0.6584   -0.8420 H   0  0  0  0  0  0  0  0  0  0  0  0
    0.3036   -1.1006   -0.6883 H   0  0  0  0  0  0  0  0  0  0  0  0
   -1.3959   -0.3818   -1.8070 C   0  0  0  0  0  0  0  0  0  0  0  0
   -2.2055    0.3336   -1.6598 H   0  0  0  0  0  0  0  0  0  0  0  0
   -0.9029   -0.1730   -2.7582 H   0  0  0  0  0  0  0  0  0  0  0  0
   -1.9878   -1.7953   -1.8457 C   0  0  0  0  0  0  0  0  0  0  0  0
   -1.1883   -2.5237   -1.9847 H   0  0  0  0  0  0  0  0  0  0  0  0
   -2.5021   -1.9999   -0.9063 H   0  0  0  0  0  0  0  0  0  0  0  0
   -2.9804   -1.9102   -3.0009 C   0  0  0  0  0  0  0  0  0  0  0  0
   -3.7896   -1.1965   -2.8545 H   0  0  0  0  0  0  0  0  0  0  0  0
   -2.4725   -1.6888   -3.9381 H   0  0  0  0  0  0  0  0  0  0  0  0
   -3.5493   -3.2604   -3.0815 N   0  0  0  0  0  0  0  0  0  0  0  0
   -4.2092   -3.2962   -3.8447 H   0  0  0  0  0  0  0  0  0  0  0  0
   -2.8062   -3.9236   -3.2493 H   0  0  0  0  0  0  0  0  0  0  0  0
   -1.2712    1.3099    1.1517 C   0  0  0  0  0  0  0  0  0  0  0  0
   -2.2039    1.9448    0.6639 O   0  0  0  0  0  0  0  0  0  0  0  0
   -0.4306    1.8354    2.0503 N   0  0  0  0  0  0  0  0  0  0  0  0
    0.3001    1.2459    2.4139 H   0  0  0  0  0  0  0  0  0  0  0  0
   -0.5192    3.2082    2.5456 C   0  0  0  0  0  0  0  0  0  0  0  0
   -1.5166    3.3903    2.9518 H   0  0  0  0  0  0  0  0  0  0  0  0
    0.2240    3.3791    3.3257 H   0  0  0  0  0  0  0  0  0  0  0  0
   -0.3477    3.9067    1.7239 H   0  0  0  0  0  0  0  0  0  0  0  0
  5  6  2  0  0  0  0
  5  7  1  0  0  0  0
  2  3  1  0  0  0  0
  2  4  1  0  0  0  0
  2  5  1  0  0  0  0
  1  2  1  0  0  0  0
 26 27  2  0  0  0  0
 26 28  1  0  0  0  0
 23 24  1  0  0  0  0
 23 25  1  0  0  0  0
 20 21  1  0  0  0  0
 20 22  1  0  0  0  0
 20 23  1  0  0  0  0
 17 18  1  0  0  0  0
 17 19  1  0  0  0  0
 17 20  1  0  0  0  0
 14 15  1  0  0  0  0
 14 16  1  0  0  0  0
 14 17  1  0  0  0  0
 11 12  1  0  0  0  0
 11 13  1  0  0  0  0
 11 14  1  0  0  0  0
  9 10  1  0  0  0  0
  9 11  1  0  0  0  0
  9 26  1  0  0  0  0
  7  8  1  0  0  0  0
  7  9  1  0  0  0  0
 30 31  1  0  0  0  0
 30 32  1  0  0  0  0
 30 33  1  0  0  0  0
 28 29  1  0  0  0  0
 28 30  1  0  0  0  0
M  END
$$$$
default_name
  -OEChem-02102213163D

 33 32  0     1  0  0  0  0  0999 V2000
   -3.8420   -3.6918    1.5562 H   0  0  0  0  0  0  0  0  0  0  0  0
   -3.8430   -2.7008    1.1032 C   0  0  0  0  0  0  0  0  0  0  0  0
   -4.5510   -2.0608    1.6242 H   0  0  0  0  0  0  0  0  0  0  0  0
   -4.1140   -2.7798    0.0522 H   0  0  0  0  0  0  0  0  0  0  0  0
   -2.4570   -2.1098    1.2172 C   0  0  0  0  0  0  0  0  0  0  0  0
   -1.5600   -2.7438    1.7572 O   0  0  0  0  0  0  0  0  0  0  0  0
   -2.2870   -0.8898    0.7102 N   0  0  0  0  0  0  0  0  0  0  0  0
   -3.0820   -0.4218    0.2992 H   0  0  0  0  0  0  0  0  0  0  0  0
   -1.0240   -0.1468    0.7262 C   0  0  1  0  0  0  0  0  0  0  0  0
   -0.3583   -0.6100    1.4558 H   0  0  0  0  0  0  0  0  0  0  0  0
   -0.3739   -0.2459   -0.6675 C   0  0  0  0  0  0  0  0  0  0  0  0
    0.2127    0.6584   -0.8420 H   0  0  0  0  0  0  0  0  0  0  0  0
    0.3036   -1.1006   -0.6883 H   0  0  0  0  0  0  0  0  0  0  0  0
   -1.3959   -0.3818   -1.8070 C   0  0  0  0  0  0  0  0  0  0  0  0
   -2.0523    0.4888   -1.8157 H   0  0  0  0  0  0  0  0  0  0  0  0
   -0.8660   -0.4395   -2.7595 H   0  0  0  0  0  0  0  0  0  0  0  0
   -2.2504   -1.6419   -1.6284 C   0  0  0  0  0  0  0  0  0  0  0  0
   -1.6065   -2.5217   -1.6098 H   0  0  0  0  0  0  0  0  0  0  0  0
   -2.8004   -1.5781   -0.6891 H   0  0  0  0  0  0  0  0  0  0  0  0
   -3.2395   -1.7658   -2.7858 C   0  0  0  0  0  0  0  0  0  0  0  0
   -3.8957   -0.8970   -2.7951 H   0  0  0  0  0  0  0  0  0  0  0  0
   -2.6925   -1.8117   -3.7261 H   0  0  0  0  0  0  0  0  0  0  0  0
   -4.0589   -2.9764   -2.6584 N   0  0  0  0  0  0  0  0  0  0  0  0
   -4.7085   -3.0187   -3.4299 H   0  0  0  0  0  0  0  0  0  0  0  0
   -3.4574   -3.7876   -2.6814 H   0  0  0  0  0  0  0  0  0  0  0  0
   -1.2712    1.3099    1.1517 C   0  0  0  0  0  0  0  0  0  0  0  0
   -2.2039    1.9448    0.6639 O   0  0  0  0  0  0  0  0  0  0  0  0
   -0.4306    1.8354    2.0503 N   0  0  0  0  0  0  0  0  0  0  0  0
    0.3001    1.2459    2.4139 H   0  0  0  0  0  0  0  0  0  0  0  0
   -0.5192    3.2082    2.5456 C   0  0  0  0  0  0  0  0  0  0  0  0
   -1.5166    3.3903    2.9518 H   0  0  0  0  0  0  0  0  0  0  0  0
    0.2240    3.3791    3.3257 H   0  0  0  0  0  0  0  0  0  0  0  0
   -0.3477    3.9067    1.7239 H   0  0  0  0  0  0  0  0  0  0  0  0
  5  6  2  0  0  0  0
  5  7  1  0  0  0  0
  2  3  1  0  0  0  0
  2  4  1  0  0  0  0
  2  5  1  0  0  0  0
  1  2  1  0  0  0  0
 26 27  2  0  0  0  0
 26 28  1  0  0  0  0
 23 24  1  0  0  0  0
 23 25  1  0  0  0  0
 20 21  1  0  0  0  0
 20 22  1  0  0  0  0
 20 23  1  0  0  0  0
 17 18  1  0  0  0  0
 17 19  1  0  0  0  0
 17 20  1  0  0  0  0
 14 15  1  0  0  0  0
 14 16  1  0  0  0  0
 14 17  1  0  0  0  0
 11 12  1  0  0  0  0
 11 13  1  0  0  0  0
 11 14  1  0  0  0  0
  9 10  1  0  0  0  0
  9 11  1  0  0  0  0
  9 26  1  0  0  0  0
  7  8  1  0  0  0  0
  7  9  1  0  0  0  0
 30 31  1  0  0  0  0
 30 32  1  0  0  0  0
 30 33  1  0  0  0  0
 28 29  1  0  0  0  0
 28 30  1  0  0  0  0
M  END
$$$$
default_name
  -OEChem-02102213163D

 33 32  0     1  0  0  0  0  0999 V2000
   -3.8420   -3.6918    1.5562 H   0  0  0  0  0  0  0  0  0  0  0  0
   -3.8430   -2.7008    1.1032 C   0  0  0  0  0  0  0  0  0  0  0  0
   -4.5510   -2.0608    1.6242 H   0  0  0  0  0  0  0  0  0  0  0  0
   -4.1140   -2.7798    0.0522 H   0  0  0  0  0  0  0  0  0  0  0  0
   -2.4570   -2.1098    1.2172 C   0  0  0  0  0  0  0  0  0  0  0  0
   -1.5600   -2.7438    1.7572 O   0  0  0  0  0  0  0  0  0  0  0  0
   -2.2870   -0.8898    0.7102 N   0  0  0  0  0  0  0  0  0  0  0  0
   -3.0820   -0.4218    0.2992 H   0  0  0  0  0  0  0  0  0  0  0  0
   -1.0240   -0.1468    0.7262 C   0  0  1  0  0  0  0  0  0  0  0  0
   -0.3583   -0.6100    1.4558 H   0  0  0  0  0  0  0  0  0  0  0  0
   -0.3739   -0.2459   -0.6675 C   0  0  0  0  0  0  0  0  0  0  0  0
    0.2127    0.6584   -0.8420 H   0  0  0  0  0  0  0  0  0  0  0  0
    0.3036   -1.1006   -0.6883 H   0  0  0  0  0  0  0  0  0  0  0  0
   -1.3959   -0.3818   -1.8070 C   0  0  0  0  0  0  0  0  0  0  0  0
   -1.8709    0.5825   -1.9896 H   0  0  0  0  0  0  0  0  0  0  0  0
   -0.8814   -0.7043   -2.7140 H   0  0  0  0  0  0  0  0  0  0  0  0
   -2.4796   -1.4059   -1.4510 C   0  0  0  0  0  0  0  0  0  0  0  0
   -2.0187   -2.3750   -1.2576 H   0  0  0  0  0  0  0  0  0  0  0  0
   -3.0125   -1.0760   -0.5587 H   0  0  0  0  0  0  0  0  0  0  0  0
   -3.4669   -1.5396   -2.6088 C   0  0  0  0  0  0  0  0  0  0  0  0
   -3.9421   -0.5771   -2.7916 H   0  0  0  0  0  0  0  0  0  0  0  0
   -2.9335   -1.8518   -3.5052 H   0  0  0  0  0  0  0  0  0  0  0  0
   -4.5063   -2.5314   -2.3102 N   0  0  0  0  0  0  0  0  0  0  0  0
   -5.1470   -2.5834   -3.0885 H   0  0  0  0  0  0  0  0  0  0  0  0
   -4.0734   -3.4334   -2.1712 H   0  0  0  0  0  0  0  0  0  0  0  0
   -1.2712    1.3099    1.1517 C   0  0  0  0  0  0  0  0  0  0  0  0
   -2.2039    1.9448    0.6639 O   0  0  0  0  0  0  0  0  0  0  0  0
   -0.4306    1.8354    2.0503 N   0  0  0  0  0  0  0  0  0  0  0  0
    0.3001    1.2459    2.4139 H   0  0  0  0  0  0  0  0  0  0  0  0
   -0.5192    3.2082    2.5456 C   0  0  0  0  0  0  0  0  0  0  0  0
   -1.5166    3.3903    2.9518 H   0  0  0  0  0  0  0  0  0  0  0  0
    0.2240    3.3791    3.3257 H   0  0  0  0  0  0  0  0  0  0  0  0
   -0.3477    3.9067    1.7239 H   0  0  0  0  0  0  0  0  0  0  0  0
  5  6  2  0  0  0  0
  5  7  1  0  0  0  0
  2  3  1  0  0  0  0
  2  4  1  0  0  0  0
  2  5  1  0  0  0  0
  1  2  1  0  0  0  0
 26 27  2  0  0  0  0
 26 28  1  0  0  0  0
 23 24  1  0  0  0  0
 23 25  1  0  0  0  0
 20 21  1  0  0  0  0
 20 22  1  0  0  0  0
 20 23  1  0  0  0  0
 17 18  1  0  0  0  0
 17 19  1  0  0  0  0
 17 20  1  0  0  0  0
 14 15  1  0  0  0  0
 14 16  1  0  0  0  0
 14 17  1  0  0  0  0
 11 12  1  0  0  0  0
 11 13  1  0  0  0  0
 11 14  1  0  0  0  0
  9 10  1  0  0  0  0
  9 11  1  0  0  0  0
  9 26  1  0  0  0  0
  7  8  1  0  0  0  0
  7  9  1  0  0  0  0
 30 31  1  0  0  0  0
 30 32  1  0  0  0  0
 30 33  1  0  0  0  0
 28 29  1  0  0  0  0
 28 30  1  0  0  0  0
M  END
$$$$
default_name
  -OEChem-02102213163D

 33 32  0     1  0  0  0  0  0999 V2000
   -3.8420   -3.6918    1.5562 H   0  0  0  0  0  0  0  0  0  0  0  0
   -3.8430   -2.7008    1.1032 C   0  0  0  0  0  0  0  0  0  0  0  0
   -4.5510   -2.0608    1.6242 H   0  0  0  0  0  0  0  0  0  0  0  0
   -4.1140   -2.7798    0.0522 H   0  0  0  0  0  0  0  0  0  0  0  0
   -2.4570   -2.1098    1.2172 C   0  0  0  0  0  0  0  0  0  0  0  0
   -1.5600   -2.7438    1.7572 O   0  0  0  0  0  0  0  0  0  0  0  0
   -2.2870   -0.8898    0.7102 N   0  0  0  0  0  0  0  0  0  0  0  0
   -3.0820   -0.4218    0.2992 H   0  0  0  0  0  0  0  0  0  0  0  0
   -1.0240   -0.1468    0.7262 C   0  0  1  0  0  0  0  0  0  0  0  0
   -0.3583   -0.6100    1.4558 H   0  0  0  0  0  0  0  0  0  0  0  0
   -0.3739   -0.2459   -0.6675 C   0  0  0  0  0  0  0  0  0  0  0  0
    0.2127    0.6584   -0.8420 H   0  0  0  0  0  0  0  0  0  0  0  0
    0.3036   -1.1006   -0.6883 H   0  0  0  0  0  0  0  0  0  0  0  0
   -1.3959   -0.3818   -1.8070 C   0  0  0  0  0  0  0  0  0  0  0  0
   -1.6738    0.6083   -2.1695 H   0  0  0  0  0  0  0  0  0  0  0  0
   -0.9482   -0.9493   -2.6249 H   0  0  0  0  0  0  0  0  0  0  0  0
   -2.6598   -1.1034   -1.3255 C   0  0  0  0  0  0  0  0  0  0  0  0
   -2.3967   -2.0935   -0.9521 H   0  0  0  0  0  0  0  0  0  0  0  0
   -3.1240   -0.5278   -0.5241 H   0  0  0  0  0  0  0  0  0  0  0  0
   -3.6471   -1.2469   -2.4820 C   0  0  0  0  0  0  0  0  0  0  0  0
   -3.9256   -0.2587   -2.8444 H   0  0  0  0  0  0  0  0  0  0  0  0
   -3.1790   -1.8062   -3.2904 H   0  0  0  0  0  0  0  0  0  0  0  0
   -4.8610   -1.9558   -2.0608 N   0  0  0  0  0  0  0  0  0  0  0  0
   -5.4949   -2.0201   -2.8437 H   0  0  0  0  0  0  0  0  0  0  0  0
   -4.6121   -2.8852   -1.7534 H   0  0  0  0  0  0  0  0  0  0  0  0
   -1.2712    1.3099    1.1517 C   0  0  0  0  0  0  0  0  0  0  0  0
   -2.2039    1.9448    0.6639 O   0  0  0  0  0  0  0  0  0  0  0  0
   -0.4306    1.8354    2.0503 N   0  0  0  0  0  0  0  0  0  0  0  0
    0.3001    1.2459    2.4139 H   0  0  0  0  0  0  0  0  0  0  0  0
   -0.5192    3.2082    2.5456 C   0  0  0  0  0  0  0  0  0  0  0  0
   -1.5166    3.3903    2.9518 H   0  0  0  0  0  0  0  0  0  0  0  0
    0.2240    3.3791    3.3257 H   0  0  0  0  0  0  0  0  0  0  0  0
   -0.3477    3.9067    1.7239 H   0  0  0  0  0  0  0  0  0  0  0  0
  5  6  2  0  0  0  0
  5  7  1  0  0  0  0
  2  3  1  0  0  0  0
  2  4  1  0  0  0  0
  2  5  1  0  0  0  0
  1  2  1  0  0  0  0
 26 27  2  0  0  0  0
 26 28  1  0  0  0  0
 23 24  1  0  0  0  0
 23 25  1  0  0  0  0
 20 21  1  0  0  0  0
 20 22  1  0  0  0  0
 20 23  1  0  0  0  0
 17 18  1  0  0  0  0
 17 19  1  0  0  0  0
 17 20  1  0  0  0  0
 14 15  1  0  0  0  0
 14 16  1  0  0  0  0
 14 17  1  0  0  0  0
 11 12  1  0  0  0  0
 11 13  1  0  0  0  0
 11 14  1  0  0  0  0
  9 10  1  0  0  0  0
  9 11  1  0  0  0  0
  9 26  1  0  0  0  0
  7  8  1  0  0  0  0
  7  9  1  0  0  0  0
 30 31  1  0  0  0  0
 30 32  1  0  0  0  0
 30 33  1  0  0  0  0
 28 29  1  0  0  0  0
 28 30  1  0  0  0  0
M  END
$$$$
default_name
  -OEChem-02102213163D

 33 32  0     1  0  0  0  0  0999 V2000
   -3.8420   -3.6918    1.5562 H   0  0  0  0  0  0  0  0  0  0  0  0
   -3.8430   -2.7008    1.1032 C   0  0  0  0  0  0  0  0  0  0  0  0
   -4.5510   -2.0608    1.6242 H   0  0  0  0  0  0  0  0  0  0  0  0
   -4.1140   -2.7798    0.0522 H   0  0  0  0  0  0  0  0  0  0  0  0
   -2.4570   -2.1098    1.2172 C   0  0  0  0  0  0  0  0  0  0  0  0
   -1.5600   -2.7438    1.7572 O   0  0  0  0  0  0  0  0  0  0  0  0
   -2.2870   -0.8898    0.7102 N   0  0  0  0  0  0  0  0  0  0  0  0
   -3.0820   -0.4218    0.2992 H   0  0  0  0  0  0  0  0  0  0  0  0
   -1.0240   -0.1468    0.7262 C   0  0  1  0  0  0  0  0  0  0  0  0
   -0.3583   -0.6100    1.4558 H   0  0  0  0  0  0  0  0  0  0  0  0
   -0.3739   -0.2459   -0.6675 C   0  0  0  0  0  0  0  0  0  0  0  0
    0.2127    0.6584   -0.8420 H   0  0  0  0  0  0  0  0  0  0  0  0
    0.3036   -1.1006   -0.6883 H   0  0  0  0  0  0  0  0  0  0  0  0
   -1.3959   -0.3818   -1.8070 C   0  0  0  0  0  0  0  0  0  0  0  0
   -1.4743    0.5643   -2.3431 H   0  0  0  0  0  0  0  0  0  0  0  0
   -1.0618   -1.1578   -2.4982 H   0  0  0  0  0  0  0  0  0  0  0  0
   -2.7786   -0.7550   -1.2605 C   0  0  0  0  0  0  0  0  0  0  0  0
   -2.7149   -1.6966   -0.7142 H   0  0  0  0  0  0  0  0  0  0  0  0
   -3.1273    0.0290   -0.5876 H   0  0  0  0  0  0  0  0  0  0  0  0
   -3.7680   -0.9078   -2.4141 C   0  0  0  0  0  0  0  0  0  0  0  0
   -3.8473    0.0367   -2.9498 H   0  0  0  0  0  0  0  0  0  0  0  0
   -3.4123   -1.6781   -3.0965 H   0  0  0  0  0  0  0  0  0  0  0  0
   -5.0988   -1.2888   -1.9270 N   0  0  0  0  0  0  0  0  0  0  0  0
   -5.7284   -1.3670   -2.7122 H   0  0  0  0  0  0  0  0  0  0  0  0
   -5.0367   -2.1805   -1.4566 H   0  0  0  0  0  0  0  0  0  0  0  0
   -1.2712    1.3099    1.1517 C   0  0  0  0  0  0  0  0  0  0  0  0
   -2.2039    1.9448    0.6639 O   0  0  0  0  0  0  0  0  0  0  0  0
   -0.4306    1.8354    2.0503 N   0  0  0  0  0  0  0  0  0  0  0  0
    0.3001    1.2459    2.4139 H   0  0  0  0  0  0  0  0  0  0  0  0
   -0.5192    3.2082    2.5456 C   0  0  0  0  0  0  0  0  0  0  0  0
   -1.5166    3.3903    2.9518 H   0  0  0  0  0  0  0  0  0  0  0  0
    0.2240    3.3791    3.3257 H   0  0  0  0  0  0  0  0  0  0  0  0
   -0.3477    3.9067    1.7239 H   0  0  0  0  0  0  0  0  0  0  0  0
  5  6  2  0  0  0  0
  5  7  1  0  0  0  0
  2  3  1  0  0  0  0
  2  4  1  0  0  0  0
  2  5  1  0  0  0  0
  1  2  1  0  0  0  0
 26 27  2  0  0  0  0
 26 28  1  0  0  0  0
 23 24  1  0  0  0  0
 23 25  1  0  0  0  0
 20 21  1  0  0  0  0
 20 22  1  0  0  0  0
 20 23  1  0  0  0  0
 17 18  1  0  0  0  0
 17 19  1  0  0  0  0
 17 20  1  0  0  0  0
 14 15  1  0  0  0  0
 14 16  1  0  0  0  0
 14 17  1  0  0  0  0
 11 12  1  0  0  0  0
 11 13  1  0  0  0  0
 11 14  1  0  0  0  0
  9 10  1  0  0  0  0
  9 11  1  0  0  0  0
  9 26  1  0  0  0  0
  7  8  1  0  0  0  0
  7  9  1  0  0  0  0
 30 31  1  0  0  0  0
 30 32  1  0  0  0  0
 30 33  1  0  0  0  0
 28 29  1  0  0  0  0
 28 30  1  0  0  0  0
M  END
$$$$
default_name
  -OEChem-02102213163D

 33 32  0     1  0  0  0  0  0999 V2000
   -3.8420   -3.6918    1.5562 H   0  0  0  0  0  0  0  0  0  0  0  0
   -3.8430   -2.7008    1.1032 C   0  0  0  0  0  0  0  0  0  0  0  0
   -4.5510   -2.0608    1.6242 H   0  0  0  0  0  0  0  0  0  0  0  0
   -4.1140   -2.7798    0.0522 H   0  0  0  0  0  0  0  0  0  0  0  0
   -2.4570   -2.1098    1.2172 C   0  0  0  0  0  0  0  0  0  0  0  0
   -1.5600   -2.7438    1.7572 O   0  0  0  0  0  0  0  0  0  0  0  0
   -2.2870   -0.8898    0.7102 N   0  0  0  0  0  0  0  0  0  0  0  0
   -3.0820   -0.4218    0.2992 H   0  0  0  0  0  0  0  0  0  0  0  0
   -1.0240   -0.1468    0.7262 C   0  0  1  0  0  0  0  0  0  0  0  0
   -0.3583   -0.6100    1.4558 H   0  0  0  0  0  0  0  0  0  0  0  0
   -0.3739   -0.2459   -0.6675 C   0  0  0  0  0  0  0  0  0  0  0  0
    0.2127    0.6584   -0.8420 H   0  0  0  0  0  0  0  0  0  0  0  0
    0.3036   -1.1006   -0.6883 H   0  0  0  0  0  0  0  0  0  0  0  0
   -1.3959   -0.3818   -1.8070 C   0  0  0  0  0  0  0  0  0  0  0  0
   -1.2860    0.4537   -2.4988 H   0  0  0  0  0  0  0  0  0  0  0  0
   -1.2144   -1.3155   -2.3425 H   0  0  0  0  0  0  0  0  0  0  0  0
   -2.8280   -0.3845   -1.2603 C   0  0  0  0  0  0  0  0  0  0  0  0
   -2.9514   -1.2111   -0.5599 H   0  0  0  0  0  0  0  0  0  0  0  0
   -3.0221    0.5565   -0.7448 H   0  0  0  0  0  0  0  0  0  0  0  0
   -3.8212   -0.5454   -2.4095 C   0  0  0  0  0  0  0  0  0  0  0  0
   -3.7126    0.2888   -3.1007 H   0  0  0  0  0  0  0  0  0  0  0  0
   -3.6175   -1.4761   -2.9365 H   0  0  0  0  0  0  0  0  0  0  0  0
   -5.2036   -0.5758   -1.9181 N   0  0  0  0  0  0  0  0  0  0  0  0
   -5.8316   -0.6688   -2.7029 H   0  0  0  0  0  0  0  0  0  0  0  0
   -5.3185   -1.3671   -1.3009 H   0  0  0  0  0  0  0  0  0  0  0  0
   -1.2712    1.3099    1.1517 C   0  0  0  0  0  0  0  0  0  0  0  0
   -2.2039    1.9448    0.6639 O   0  0  0  0  0  0  0  0  0  0  0  0
   -0.4306    1.8354    2.0503 N   0  0  0  0  0  0  0  0  0  0  0  0
    0.3001    1.2459    2.4139 H   0  0  0  0  0  0  0  0  0  0  0  0
   -0.5192    3.2082    2.5456 C   0  0  0  0  0  0  0  0  0  0  0  0
   -1.5166    3.3903    2.9518 H   0  0  0  0  0  0  0  0  0  0  0  0
    0.2240    3.3791    3.3257 H   0  0  0  0  0  0  0  0  0  0  0  0
   -0.3477    3.9067    1.7239 H   0  0  0  0  0  0  0  0  0  0  0  0
  5  6  2  0  0  0  0
  5  7  1  0  0  0  0
  2  3  1  0  0  0  0
  2  4  1  0  0  0  0
  2  5  1  0  0  0  0
  1  2  1  0  0  0  0
 26 27  2  0  0  0  0
 26 28  1  0  0  0  0
 23 24  1  0  0  0  0
 23 25  1  0  0  0  0
 20 21  1  0  0  0  0
 20 22  1  0  0  0  0
 20 23  1  0  0  0  0
 17 18  1  0  0  0  0
 17 19  1  0  0  0  0
 17 20  1  0  0  0  0
 14 15  1  0  0  0  0
 14 16  1  0  0  0  0
 14 17  1  0  0  0  0
 11 12  1  0  0  0  0
 11 13  1  0  0  0  0
 11 14  1  0  0  0  0
  9 10  1  0  0  0  0
  9 11  1  0  0  0  0
  9 26  1  0  0  0  0
  7  8  1  0  0  0  0
  7  9  1  0  0  0  0
 30 31  1  0  0  0  0
 30 32  1  0  0  0  0
 30 33  1  0  0  0  0
 28 29  1  0  0  0  0
 28 30  1  0  0  0  0
M  END
$$$$
default_name
  -OEChem-02102213163D

 33 32  0     1  0  0  0  0  0999 V2000
   -3.8420   -3.6918    1.5562 H   0  0  0  0  0  0  0  0  0  0  0  0
   -3.8430   -2.7008    1.1032 C   0  0  0  0  0  0  0  0  0  0  0  0
   -4.5510   -2.0608    1.6242 H   0  0  0  0  0  0  0  0  0  0  0  0
   -4.1140   -2.7798    0.0522 H   0  0  0  0  0  0  0  0  0  0  0  0
   -2.4570   -2.1098    1.2172 C   0  0  0  0  0  0  0  0  0  0  0  0
   -1.5600   -2.7438    1.7572 O   0  0  0  0  0  0  0  0  0  0  0  0
   -2.2870   -0.8898    0.7102 N   0  0  0  0  0  0  0  0  0  0  0  0
   -3.0820   -0.4218    0.2992 H   0  0  0  0  0  0  0  0  0  0  0  0
   -1.0240   -0.1468    0.7262 C   0  0  1  0  0  0  0  0  0  0  0  0
   -0.3583   -0.6100    1.4558 H   0  0  0  0  0  0  0  0  0  0  0  0
   -0.3739   -0.2459   -0.6675 C   0  0  0  0  0  0  0  0  0  0  0  0
    0.2127    0.6584   -0.8420 H   0  0  0  0  0  0  0  0  0  0  0  0
    0.3036   -1.1006   -0.6883 H   0  0  0  0  0  0  0  0  0  0  0  0
   -1.3959   -0.3818   -1.8070 C   0  0  0  0  0  0  0  0  0  0  0  0
   -1.1219    0.2840   -2.6258 H   0  0  0  0  0  0  0  0  0  0  0  0
   -1.3957   -1.4118   -2.1684 H   0  0  0  0  0  0  0  0  0  0  0  0
   -2.8046   -0.0171   -1.3251 C   0  0  0  0  0  0  0  0  0  0  0  0
   -3.0902   -0.6702   -0.4999 H   0  0  0  0  0  0  0  0  0  0  0  0
   -2.8157    1.0189   -0.9851 H   0  0  0  0  0  0  0  0  0  0  0  0
   -3.8032   -0.1844   -2.4688 C   0  0  0  0  0  0  0  0  0  0  0  0
   -3.5307    0.4805   -3.2868 H   0  0  0  0  0  0  0  0  0  0  0  0
   -3.7806   -1.2142   -2.8214 H   0  0  0  0  0  0  0  0  0  0  0  0
   -5.1682    0.1345   -2.0345 N   0  0  0  0  0  0  0  0  0  0  0  0
   -5.7975    0.0271   -2.8165 H   0  0  0  0  0  0  0  0  0  0  0  0
   -5.4381   -0.5006   -1.2969 H   0  0  0  0  0  0  0  0  0  0  0  0
   -1.2712    1.3099    1.1517 C   0  0  0  0  0  0  0  0  0  0  0  0
   -2.2039    1.9448    0.6639 O   0  0  0  0  0  0  0  0  0  0  0  0
   -0.4306    1.8354    2.0503 N   0  0  0  0  0  0  0  0  0  0  0  0
    0.3001    1.2459    2.4139 H   0  0  0  0  0  0  0  0  0  0  0  0
   -0.5192    3.2082    2.5456 C   0  0  0  0  0  0  0  0  0  0  0  0
   -1.5166    3.3903    2.9518 H   0  0  0  0  0  0  0  0  0  0  0  0
    0.2240    3.3791    3.3257 H   0  0  0  0  0  0  0  0  0  0  0  0
   -0.3477    3.9067    1.7239 H   0  0  0  0  0  0  0  0  0  0  0  0
  5  6  2  0  0  0  0
  5  7  1  0  0  0  0
  2  3  1  0  0  0  0
  2  4  1  0  0  0  0
  2  5  1  0  0  0  0
  1  2  1  0  0  0  0
 26 27  2  0  0  0  0
 26 28  1  0  0  0  0
 23 24  1  0  0  0  0
 23 25  1  0  0  0  0
 20 21  1  0  0  0  0
 20 22  1  0  0  0  0
 20 23  1  0  0  0  0
 17 18  1  0  0  0  0
 17 19  1  0  0  0  0
 17 20  1  0  0  0  0
 14 15  1  0  0  0  0
 14 16  1  0  0  0  0
 14 17  1  0  0  0  0
 11 12  1  0  0  0  0
 11 13  1  0  0  0  0
 11 14  1  0  0  0  0
  9 10  1  0  0  0  0
  9 11  1  0  0  0  0
  9 26  1  0  0  0  0
  7  8  1  0  0  0  0
  7  9  1  0  0  0  0
 30 31  1  0  0  0  0
 30 32  1  0  0  0  0
 30 33  1  0  0  0  0
 28 29  1  0  0  0  0
 28 30  1  0  0  0  0
M  END
$$$$
default_name
  -OEChem-02102213163D

 33 32  0     1  0  0  0  0  0999 V2000
   -3.8420   -3.6918    1.5562 H   0  0  0  0  0  0  0  0  0  0  0  0
   -3.8430   -2.7008    1.1032 C   0  0  0  0  0  0  0  0  0  0  0  0
   -4.5510   -2.0608    1.6242 H   0  0  0  0  0  0  0  0  0  0  0  0
   -4.1140   -2.7798    0.0522 H   0  0  0  0  0  0  0  0  0  0  0  0
   -2.4570   -2.1098    1.2172 C   0  0  0  0  0  0  0  0  0  0  0  0
   -1.5600   -2.7438    1.7572 O   0  0  0  0  0  0  0  0  0  0  0  0
   -2.2870   -0.8898    0.7102 N   0  0  0  0  0  0  0  0  0  0  0  0
   -3.0820   -0.4218    0.2992 H   0  0  0  0  0  0  0  0  0  0  0  0
   -1.0240   -0.1468    0.7262 C   0  0  1  0  0  0  0  0  0  0  0  0
   -0.3583   -0.6100    1.4558 H   0  0  0  0  0  0  0  0  0  0  0  0
   -0.3739   -0.2459   -0.6675 C   0  0  0  0  0  0  0  0  0  0  0  0
    0.2127    0.6584   -0.8420 H   0  0  0  0  0  0  0  0  0  0  0  0
    0.3036   -1.1006   -0.6883 H   0  0  0  0  0  0  0  0  0  0  0  0
   -1.3959   -0.3818   -1.8070 C   0  0  0  0  0  0  0  0  0  0  0  0
   -0.9930    0.0667   -2.7155 H   0  0  0  0  0  0  0  0  0  0  0  0
   -1.5932   -1.4400   -1.9879 H   0  0  0  0  0  0  0  0  0  0  0  0
   -2.7101    0.3221   -1.4504 C   0  0  0  0  0  0  0  0  0  0  0  0
   -3.1219   -0.1107   -0.5382 H   0  0  0  0  0  0  0  0  0  0  0  0
   -2.5221    1.3845   -1.2920 H   0  0  0  0  0  0  0  0  0  0  0  0
   -3.7152    0.1507   -2.5877 C   0  0  0  0  0  0  0  0  0  0  0  0
   -3.3138    0.5988   -3.4953 H   0  0  0  0  0  0  0  0  0  0  0  0
   -3.8906   -0.9100   -2.7591 H   0  0  0  0  0  0  0  0  0  0  0  0
   -4.9950    0.7938   -2.2685 N   0  0  0  0  0  0  0  0  0  0  0  0
   -5.6284    0.6732   -3.0452 H   0  0  0  0  0  0  0  0  0  0  0  0
   -5.3874    0.3600   -1.4450 H   0  0  0  0  0  0  0  0  0  0  0  0
   -1.2712    1.3099    1.1517 C   0  0  0  0  0  0  0  0  0  0  0  0
   -2.2039    1.9448    0.6639 O   0  0  0  0  0  0  0  0  0  0  0  0
   -0.4306    1.8354    2.0503 N   0  0  0  0  0  0  0  0  0  0  0  0
    0.3001    1.2459    2.4139 H   0  0  0  0  0  0  0  0  0  0  0  0
   -0.5192    3.2082    2.5456 C   0  0  0  0  0  0  0  0  0  0  0  0
   -1.5166    3.3903    2.9518 H   0  0  0  0  0  0  0  0  0  0  0  0
    0.2240    3.3791    3.3257 H   0  0  0  0  0  0  0  0  0  0  0  0
   -0.3477    3.9067    1.7239 H   0  0  0  0  0  0  0  0  0  0  0  0
  5  6  2  0  0  0  0
  5  7  1  0  0  0  0
  2  3  1  0  0  0  0
  2  4  1  0  0  0  0
  2  5  1  0  0  0  0
  1  2  1  0  0  0  0
 26 27  2  0  0  0  0
 26 28  1  0  0  0  0
 23 24  1  0  0  0  0
 23 25  1  0  0  0  0
 20 21  1  0  0  0  0
 20 22  1  0  0  0  0
 20 23  1  0  0  0  0
 17 18  1  0  0  0  0
 17 19  1  0  0  0  0
 17 20  1  0  0  0  0
 14 15  1  0  0  0  0
 14 16  1  0  0  0  0
 14 17  1  0  0  0  0
 11 12  1  0  0  0  0
 11 13  1  0  0  0  0
 11 14  1  0  0  0  0
  9 10  1  0  0  0  0
  9 11  1  0  0  0  0
  9 26  1  0  0  0  0
  7  8  1  0  0  0  0
  7  9  1  0  0  0  0
 30 31  1  0  0  0  0
 30 32  1  0  0  0  0
 30 33  1  0  0  0  0
 28 29  1  0  0  0  0
 28 30  1  0  0  0  0
M  END
$$$$
default_name
  -OEChem-02102213163D

 33 32  0     1  0  0  0  0  0999 V2000
   -3.8420   -3.6918    1.5562 H   0  0  0  0  0  0  0  0  0  0  0  0
   -3.8430   -2.7008    1.1032 C   0  0  0  0  0  0  0  0  0  0  0  0
   -4.5510   -2.0608    1.6242 H   0  0  0  0  0  0  0  0  0  0  0  0
   -4.1140   -2.7798    0.0522 H   0  0  0  0  0  0  0  0  0  0  0  0
   -2.4570   -2.1098    1.2172 C   0  0  0  0  0  0  0  0  0  0  0  0
   -1.5600   -2.7438    1.7572 O   0  0  0  0  0  0  0  0  0  0  0  0
   -2.2870   -0.8898    0.7102 N   0  0  0  0  0  0  0  0  0  0  0  0
   -3.0820   -0.4218    0.2992 H   0  0  0  0  0  0  0  0  0  0  0  0
   -1.0240   -0.1468    0.7262 C   0  0  1  0  0  0  0  0  0  0  0  0
   -0.3583   -0.6100    1.4558 H   0  0  0  0  0  0  0  0  0  0  0  0
   -0.3739   -0.2459   -0.6675 C   0  0  0  0  0  0  0  0  0  0  0  0
    0.2127    0.6584   -0.8420 H   0  0  0  0  0  0  0  0  0  0  0  0
    0.3036   -1.1006   -0.6883 H   0  0  0  0  0  0  0  0  0  0  0  0
   -1.3959   -0.3818   -1.8070 C   0  0  0  0  0  0  0  0  0  0  0  0
   -0.9081   -0.1834   -2.7617 H   0  0  0  0  0  0  0  0  0  0  0  0
   -1.7936   -1.3983   -1.8131 H   0  0  0  0  0  0  0  0  0  0  0  0
   -2.5508    0.6101   -1.6276 C   0  0  0  0  0  0  0  0  0  0  0  0
   -3.0443    0.4291   -0.6722 H   0  0  0  0  0  0  0  0  0  0  0  0
   -2.1613    1.6284   -1.6447 H   0  0  0  0  0  0  0  0  0  0  0  0
   -3.5631    0.4371   -2.7583 C   0  0  0  0  0  0  0  0  0  0  0  0
   -3.0770    0.6354   -3.7122 H   0  0  0  0  0  0  0  0  0  0  0  0
   -3.9398   -0.5844   -2.7538 H   0  0  0  0  0  0  0  0  0  0  0  0
   -4.6958    1.3571   -2.6040 N   0  0  0  0  0  0  0  0  0  0  0  0
   -5.3358    1.2254   -3.3735 H   0  0  0  0  0  0  0  0  0  0  0  0
   -5.1699    1.1561   -1.7351 H   0  0  0  0  0  0  0  0  0  0  0  0
   -1.2712    1.3099    1.1517 C   0  0  0  0  0  0  0  0  0  0  0  0
   -2.2039    1.9448    0.6639 O   0  0  0  0  0  0  0  0  0  0  0  0
   -0.4306    1.8354    2.0503 N   0  0  0  0  0  0  0  0  0  0  0  0
    0.3001    1.2459    2.4139 H   0  0  0  0  0  0  0  0  0  0  0  0
   -0.5192    3.2082    2.5456 C   0  0  0  0  0  0  0  0  0  0  0  0
   -1.5166    3.3903    2.9518 H   0  0  0  0  0  0  0  0  0  0  0  0
    0.2240    3.3791    3.3257 H   0  0  0  0  0  0  0  0  0  0  0  0
   -0.3477    3.9067    1.7239 H   0  0  0  0  0  0  0  0  0  0  0  0
  5  6  2  0  0  0  0
  5  7  1  0  0  0  0
  2  3  1  0  0  0  0
  2  4  1  0  0  0  0
  2  5  1  0  0  0  0
  1  2  1  0  0  0  0
 26 27  2  0  0  0  0
 26 28  1  0  0  0  0
 23 24  1  0  0  0  0
 23 25  1  0  0  0  0
 20 21  1  0  0  0  0
 20 22  1  0  0  0  0
 20 23  1  0  0  0  0
 17 18  1  0  0  0  0
 17 19  1  0  0  0  0
 17 20  1  0  0  0  0
 14 15  1  0  0  0  0
 14 16  1  0  0  0  0
 14 17  1  0  0  0  0
 11 12  1  0  0  0  0
 11 13  1  0  0  0  0
 11 14  1  0  0  0  0
  9 10  1  0  0  0  0
  9 11  1  0  0  0  0
  9 26  1  0  0  0  0
  7  8  1  0  0  0  0
  7  9  1  0  0  0  0
 30 31  1  0  0  0  0
 30 32  1  0  0  0  0
 30 33  1  0  0  0  0
 28 29  1  0  0  0  0
 28 30  1  0  0  0  0
M  END
$$$$
default_name
  -OEChem-02102213163D

 33 32  0     1  0  0  0  0  0999 V2000
   -3.8420   -3.6918    1.5562 H   0  0  0  0  0  0  0  0  0  0  0  0
   -3.8430   -2.7008    1.1032 C   0  0  0  0  0  0  0  0  0  0  0  0
   -4.5510   -2.0608    1.6242 H   0  0  0  0  0  0  0  0  0  0  0  0
   -4.1140   -2.7798    0.0522 H   0  0  0  0  0  0  0  0  0  0  0  0
   -2.4570   -2.1098    1.2172 C   0  0  0  0  0  0  0  0  0  0  0  0
   -1.5600   -2.7438    1.7572 O   0  0  0  0  0  0  0  0  0  0  0  0
   -2.2870   -0.8898    0.7102 N   0  0  0  0  0  0  0  0  0  0  0  0
   -3.0820   -0.4218    0.2992 H   0  0  0  0  0  0  0  0  0  0  0  0
   -1.0240   -0.1468    0.7262 C   0  0  1  0  0  0  0  0  0  0  0  0
   -0.3583   -0.6100    1.4558 H   0  0  0  0  0  0  0  0  0  0  0  0
   -0.3739   -0.2459   -0.6675 C   0  0  0  0  0  0  0  0  0  0  0  0
    0.2127    0.6584   -0.8420 H   0  0  0  0  0  0  0  0  0  0  0  0
    0.3036   -1.1006   -0.6883 H   0  0  0  0  0  0  0  0  0  0  0  0
   -1.3959   -0.3818   -1.8070 C   0  0  0  0  0  0  0  0  0  0  0  0
   -0.8731   -0.4492   -2.7614 H   0  0  0  0  0  0  0  0  0  0  0  0
   -1.9831   -1.2895   -1.6561 H   0  0  0  0  0  0  0  0  0  0  0  0
   -2.3376    0.8271   -1.8447 C   0  0  0  0  0  0  0  0  0  0  0  0
   -2.8626    0.9126   -0.8929 H   0  0  0  0  0  0  0  0  0  0  0  0
   -1.7579    1.7341   -2.0191 H   0  0  0  0  0  0  0  0  0  0  0  0
   -3.3573    0.6551   -2.9689 C   0  0  0  0  0  0  0  0  0  0  0  0
   -2.8362    0.5881   -3.9225 H   0  0  0  0  0  0  0  0  0  0  0  0
   -3.9250   -0.2596   -2.8058 H   0  0  0  0  0  0  0  0  0  0  0  0
   -4.2910    1.7860   -3.0183 N   0  0  0  0  0  0  0  0  0  0  0  0
   -4.9398    1.6462   -3.7789 H   0  0  0  0  0  0  0  0  0  0  0  0
   -4.8004    1.8334   -2.1473 H   0  0  0  0  0  0  0  0  0  0  0  0
   -1.2712    1.3099    1.1517 C   0  0  0  0  0  0  0  0  0  0  0  0
   -2.2039    1.9448    0.6639 O   0  0  0  0  0  0  0  0  0  0  0  0
   -0.4306    1.8354    2.0503 N   0  0  0  0  0  0  0  0  0  0  0  0
    0.3001    1.2459    2.4139 H   0  0  0  0  0  0  0  0  0  0  0  0
   -0.5192    3.2082    2.5456 C   0  0  0  0  0  0  0  0  0  0  0  0
   -1.5166    3.3903    2.9518 H   0  0  0  0  0  0  0  0  0  0  0  0
    0.2240    3.3791    3.3257 H   0  0  0  0  0  0  0  0  0  0  0  0
   -0.3477    3.9067    1.7239 H   0  0  0  0  0  0  0  0  0  0  0  0
  5  6  2  0  0  0  0
  5  7  1  0  0  0  0
  2  3  1  0  0  0  0
  2  4  1  0  0  0  0
  2  5  1  0  0  0  0
  1  2  1  0  0  0  0
 26 27  2  0  0  0  0
 26 28  1  0  0  0  0
 23 24  1  0  0  0  0
 23 25  1  0  0  0  0
 20 21  1  0  0  0  0
 20 22  1  0  0  0  0
 20 23  1  0  0  0  0
 17 18  1  0  0  0  0
 17 19  1  0  0  0  0
 17 20  1  0  0  0  0
 14 15  1  0  0  0  0
 14 16  1  0  0  0  0
 14 17  1  0  0  0  0
 11 12  1  0  0  0  0
 11 13  1  0  0  0  0
 11 14  1  0  0  0  0
  9 10  1  0  0  0  0
  9 11  1  0  0  0  0
  9 26  1  0  0  0  0
  7  8  1  0  0  0  0
  7  9  1  0  0  0  0
 30 31  1  0  0  0  0
 30 32  1  0  0  0  0
 30 33  1  0  0  0  0
 28 29  1  0  0  0  0
 28 30  1  0  0  0  0
M  END
$$$$
default_name
  -OEChem-02102213163D

 33 32  0     1  0  0  0  0  0999 V2000
   -3.8420   -3.6918    1.5562 H   0  0  0  0  0  0  0  0  0  0  0  0
   -3.8430   -2.7008    1.1032 C   0  0  0  0  0  0  0  0  0  0  0  0
   -4.5510   -2.0608    1.6242 H   0  0  0  0  0  0  0  0  0  0  0  0
   -4.1140   -2.7798    0.0522 H   0  0  0  0  0  0  0  0  0  0  0  0
   -2.4570   -2.1098    1.2172 C   0  0  0  0  0  0  0  0  0  0  0  0
   -1.5600   -2.7438    1.7572 O   0  0  0  0  0  0  0  0  0  0  0  0
   -2.2870   -0.8898    0.7102 N   0  0  0  0  0  0  0  0  0  0  0  0
   -3.0820   -0.4218    0.2992 H   0  0  0  0  0  0  0  0  0  0  0  0
   -1.0240   -0.1468    0.7262 C   0  0  1  0  0  0  0  0  0  0  0  0
   -0.3583   -0.6100    1.4558 H   0  0  0  0  0  0  0  0  0  0  0  0
   -0.3739   -0.2459   -0.6675 C   0  0  0  0  0  0  0  0  0  0  0  0
    0.2127    0.6584   -0.8420 H   0  0  0  0  0  0  0  0  0  0  0  0
    0.3036   -1.1006   -0.6883 H   0  0  0  0  0  0  0  0  0  0  0  0
   -1.3959   -0.3818   -1.8070 C   0  0  0  0  0  0  0  0  0  0  0  0
   -0.8903   -0.7127   -2.7146 H   0  0  0  0  0  0  0  0  0  0  0  0
   -2.1489   -1.1210   -1.5275 H   0  0  0  0  0  0  0  0  0  0  0  0
   -2.0850    0.9585   -2.0869 C   0  0  0  0  0  0  0  0  0  0  0  0
   -2.5893    1.3068   -1.1850 H   0  0  0  0  0  0  0  0  0  0  0  0
   -1.3394    1.6943   -2.3897 H   0  0  0  0  0  0  0  0  0  0  0  0
   -3.1119    0.7899   -3.2051 C   0  0  0  0  0  0  0  0  0  0  0  0
   -2.6078    0.4599   -4.1120 H   0  0  0  0  0  0  0  0  0  0  0  0
   -3.8471    0.0424   -2.9117 H   0  0  0  0  0  0  0  0  0  0  0  0
   -3.8082    2.0513   -3.4829 N   0  0  0  0  0  0  0  0  0  0  0  0
   -4.4671    1.9068   -4.2339 H   0  0  0  0  0  0  0  0  0  0  0  0
   -4.3041    2.3457   -2.6536 H   0  0  0  0  0  0  0  0  0  0  0  0
   -1.2712    1.3099    1.1517 C   0  0  0  0  0  0  0  0  0  0  0  0
   -2.2039    1.9448    0.6639 O   0  0  0  0  0  0  0  0  0  0  0  0
   -0.4306    1.8354    2.0503 N   0  0  0  0  0  0  0  0  0  0  0  0
    0.3001    1.2459    2.4139 H   0  0  0  0  0  0  0  0  0  0  0  0
   -0.5192    3.2082    2.5456 C   0  0  0  0  0  0  0  0  0  0  0  0
   -1.5166    3.3903    2.9518 H   0  0  0  0  0  0  0  0  0  0  0  0
    0.2240    3.3791    3.3257 H   0  0  0  0  0  0  0  0  0  0  0  0
   -0.3477    3.9067    1.7239 H   0  0  0  0  0  0  0  0  0  0  0  0
  5  6  2  0  0  0  0
  5  7  1  0  0  0  0
  2  3  1  0  0  0  0
  2  4  1  0  0  0  0
  2  5  1  0  0  0  0
  1  2  1  0  0  0  0
 26 27  2  0  0  0  0
 26 28  1  0  0  0  0
 23 24  1  0  0  0  0
 23 25  1  0  0  0  0
 20 21  1  0  0  0  0
 20 22  1  0  0  0  0
 20 23  1  0  0  0  0
 17 18  1  0  0  0  0
 17 19  1  0  0  0  0
 17 20  1  0  0  0  0
 14 15  1  0  0  0  0
 14 16  1  0  0  0  0
 14 17  1  0  0  0  0
 11 12  1  0  0  0  0
 11 13  1  0  0  0  0
 11 14  1  0  0  0  0
  9 10  1  0  0  0  0
  9 11  1  0  0  0  0
  9 26  1  0  0  0  0
  7  8  1  0  0  0  0
  7  9  1  0  0  0  0
 30 31  1  0  0  0  0
 30 32  1  0  0  0  0
 30 33  1  0  0  0  0
 28 29  1  0  0  0  0
 28 30  1  0  0  0  0
M  END
$$$$
default_name
  -OEChem-02102213163D

 33 32  0     1  0  0  0  0  0999 V2000
   -3.8420   -3.6918    1.5562 H   0  0  0  0  0  0  0  0  0  0  0  0
   -3.8430   -2.7008    1.1032 C   0  0  0  0  0  0  0  0  0  0  0  0
   -4.5510   -2.0608    1.6242 H   0  0  0  0  0  0  0  0  0  0  0  0
   -4.1140   -2.7798    0.0522 H   0  0  0  0  0  0  0  0  0  0  0  0
   -2.4570   -2.1098    1.2172 C   0  0  0  0  0  0  0  0  0  0  0  0
   -1.5600   -2.7438    1.7572 O   0  0  0  0  0  0  0  0  0  0  0  0
   -2.2870   -0.8898    0.7102 N   0  0  0  0  0  0  0  0  0  0  0  0
   -3.0820   -0.4218    0.2992 H   0  0  0  0  0  0  0  0  0  0  0  0
   -1.0240   -0.1468    0.7262 C   0  0  1  0  0  0  0  0  0  0  0  0
   -0.3583   -0.6100    1.4558 H   0  0  0  0  0  0  0  0  0  0  0  0
   -0.3739   -0.2459   -0.6675 C   0  0  0  0  0  0  0  0  0  0  0  0
    0.2127    0.6584   -0.8420 H   0  0  0  0  0  0  0  0  0  0  0  0
    0.3036   -1.1006   -0.6883 H   0  0  0  0  0  0  0  0  0  0  0  0
   -1.3959   -0.3818   -1.8070 C   0  0  0  0  0  0  0  0  0  0  0  0
   -0.9586   -0.9558   -2.6244 H   0  0  0  0  0  0  0  0  0  0  0  0
   -2.2796   -0.9043   -1.4361 H   0  0  0  0  0  0  0  0  0  0  0  0
   -1.8103    0.9953   -2.3377 C   0  0  0  0  0  0  0  0  0  0  0  0
   -2.2429    1.5848   -1.5288 H   0  0  0  0  0  0  0  0  0  0  0  0
   -0.9344    1.5118   -2.7313 H   0  0  0  0  0  0  0  0  0  0  0  0
   -2.8435    0.8324   -3.4508 C   0  0  0  0  0  0  0  0  0  0  0  0
   -2.4075    0.2597   -4.2678 H   0  0  0  0  0  0  0  0  0  0  0  0
   -3.7116    0.3010   -3.0641 H   0  0  0  0  0  0  0  0  0  0  0  0
   -3.2803    2.1350   -3.9664 N   0  0  0  0  0  0  0  0  0  0  0  0
   -3.9502    1.9895   -4.7074 H   0  0  0  0  0  0  0  0  0  0  0  0
   -3.7147    2.6582   -3.2194 H   0  0  0  0  0  0  0  0  0  0  0  0
   -1.2712    1.3099    1.1517 C   0  0  0  0  0  0  0  0  0  0  0  0
   -2.2039    1.9448    0.6639 O   0  0  0  0  0  0  0  0  0  0  0  0
   -0.4306    1.8354    2.0503 N   0  0  0  0  0  0  0  0  0  0  0  0
    0.3001    1.2459    2.4139 H   0  0  0  0  0  0  0  0  0  0  0  0
   -0.5192    3.2082    2.5456 C   0  0  0  0  0  0  0  0  0  0  0  0
   -1.5166    3.3903    2.9518 H   0  0  0  0  0  0  0  0  0  0  0  0
    0.2240    3.3791    3.3257 H   0  0  0  0  0  0  0  0  0  0  0  0
   -0.3477    3.9067    1.7239 H   0  0  0  0  0  0  0  0  0  0  0  0
  5  6  2  0  0  0  0
  5  7  1  0  0  0  0
  2  3  1  0  0  0  0
  2  4  1  0  0  0  0
  2  5  1  0  0  0  0
  1  2  1  0  0  0  0
 26 27  2  0  0  0  0
 26 28  1  0  0  0  0
 23 24  1  0  0  0  0
 23 25  1  0  0  0  0
 20 21  1  0  0  0  0
 20 22  1  0  0  0  0
 20 23  1  0  0  0  0
 17 18  1  0  0  0  0
 17 19  1  0  0  0  0
 17 20  1  0  0  0  0
 14 15  1  0  0  0  0
 14 16  1  0  0  0  0
 14 17  1  0  0  0  0
 11 12  1  0  0  0  0
 11 13  1  0  0  0  0
 11 14  1  0  0  0  0
  9 10  1  0  0  0  0
  9 11  1  0  0  0  0
  9 26  1  0  0  0  0
  7  8  1  0  0  0  0
  7  9  1  0  0  0  0
 30 31  1  0  0  0  0
 30 32  1  0  0  0  0
 30 33  1  0  0  0  0
 28 29  1  0  0  0  0
 28 30  1  0  0  0  0
M  END
$$$$
default_name
  -OEChem-02102213163D

 33 32  0     1  0  0  0  0  0999 V2000
   -3.8420   -3.6918    1.5562 H   0  0  0  0  0  0  0  0  0  0  0  0
   -3.8430   -2.7008    1.1032 C   0  0  0  0  0  0  0  0  0  0  0  0
   -4.5510   -2.0608    1.6242 H   0  0  0  0  0  0  0  0  0  0  0  0
   -4.1140   -2.7798    0.0522 H   0  0  0  0  0  0  0  0  0  0  0  0
   -2.4570   -2.1098    1.2172 C   0  0  0  0  0  0  0  0  0  0  0  0
   -1.5600   -2.7438    1.7572 O   0  0  0  0  0  0  0  0  0  0  0  0
   -2.2870   -0.8898    0.7102 N   0  0  0  0  0  0  0  0  0  0  0  0
   -3.0820   -0.4218    0.2992 H   0  0  0  0  0  0  0  0  0  0  0  0
   -1.0240   -0.1468    0.7262 C   0  0  1  0  0  0  0  0  0  0  0  0
   -0.3583   -0.6100    1.4558 H   0  0  0  0  0  0  0  0  0  0  0  0
   -0.3739   -0.2459   -0.6675 C   0  0  0  0  0  0  0  0  0  0  0  0
    0.2127    0.6584   -0.8420 H   0  0  0  0  0  0  0  0  0  0  0  0
    0.3036   -1.1006   -0.6883 H   0  0  0  0  0  0  0  0  0  0  0  0
   -1.3959   -0.3818   -1.8070 C   0  0  0  0  0  0  0  0  0  0  0  0
   -1.0732   -1.1620   -2.4970 H   0  0  0  0  0  0  0  0  0  0  0  0
   -2.3664   -0.6542   -1.3881 H   0  0  0  0  0  0  0  0  0  0  0  0
   -1.5321    0.9348   -2.5800 C   0  0  0  0  0  0  0  0  0  0  0  0
   -1.8471    1.7277   -1.9008 H   0  0  0  0  0  0  0  0  0  0  0  0
   -0.5703    1.1990   -3.0205 H   0  0  0  0  0  0  0  0  0  0  0  0
   -2.5705    0.7796   -3.6894 C   0  0  0  0  0  0  0  0  0  0  0  0
   -2.2489    0.0011   -4.3792 H   0  0  0  0  0  0  0  0  0  0  0  0
   -3.5275    0.4985   -3.2528 H   0  0  0  0  0  0  0  0  0  0  0  0
   -2.7433    2.0312   -4.4356 N   0  0  0  0  0  0  0  0  0  0  0  0
   -3.4241    1.8887   -5.1672 H   0  0  0  0  0  0  0  0  0  0  0  0
   -3.0725    2.7495   -3.8063 H   0  0  0  0  0  0  0  0  0  0  0  0
   -1.2712    1.3099    1.1517 C   0  0  0  0  0  0  0  0  0  0  0  0
   -2.2039    1.9448    0.6639 O   0  0  0  0  0  0  0  0  0  0  0  0
   -0.4306    1.8354    2.0503 N   0  0  0  0  0  0  0  0  0  0  0  0
    0.3001    1.2459    2.4139 H   0  0  0  0  0  0  0  0  0  0  0  0
   -0.5192    3.2082    2.5456 C   0  0  0  0  0  0  0  0  0  0  0  0
   -1.5166    3.3903    2.9518 H   0  0  0  0  0  0  0  0  0  0  0  0
    0.2240    3.3791    3.3257 H   0  0  0  0  0  0  0  0  0  0  0  0
   -0.3477    3.9067    1.7239 H   0  0  0  0  0  0  0  0  0  0  0  0
  5  6  2  0  0  0  0
  5  7  1  0  0  0  0
  2  3  1  0  0  0  0
  2  4  1  0  0  0  0
  2  5  1  0  0  0  0
  1  2  1  0  0  0  0
 26 27  2  0  0  0  0
 26 28  1  0  0  0  0
 23 24  1  0  0  0  0
 23 25  1  0  0  0  0
 20 21  1  0  0  0  0
 20 22  1  0  0  0  0
 20 23  1  0  0  0  0
 17 18  1  0  0  0  0
 17 19  1  0  0  0  0
 17 20  1  0  0  0  0
 14 15  1  0  0  0  0
 14 16  1  0  0  0  0
 14 17  1  0  0  0  0
 11 12  1  0  0  0  0
 11 13  1  0  0  0  0
 11 14  1  0  0  0  0
  9 10  1  0  0  0  0
  9 11  1  0  0  0  0
  9 26  1  0  0  0  0
  7  8  1  0  0  0  0
  7  9  1  0  0  0  0
 30 31  1  0  0  0  0
 30 32  1  0  0  0  0
 30 33  1  0  0  0  0
 28 29  1  0  0  0  0
 28 30  1  0  0  0  0
M  END
$$$$
default_name
  -OEChem-02102213163D

 33 32  0     1  0  0  0  0  0999 V2000
   -3.8420   -3.6918    1.5562 H   0  0  0  0  0  0  0  0  0  0  0  0
   -3.8430   -2.7008    1.1032 C   0  0  0  0  0  0  0  0  0  0  0  0
   -4.5510   -2.0608    1.6242 H   0  0  0  0  0  0  0  0  0  0  0  0
   -4.1140   -2.7798    0.0522 H   0  0  0  0  0  0  0  0  0  0  0  0
   -2.4570   -2.1098    1.2172 C   0  0  0  0  0  0  0  0  0  0  0  0
   -1.5600   -2.7438    1.7572 O   0  0  0  0  0  0  0  0  0  0  0  0
   -2.2870   -0.8898    0.7102 N   0  0  0  0  0  0  0  0  0  0  0  0
   -3.0820   -0.4218    0.2992 H   0  0  0  0  0  0  0  0  0  0  0  0
   -1.0240   -0.1468    0.7262 C   0  0  1  0  0  0  0  0  0  0  0  0
   -0.3583   -0.6100    1.4558 H   0  0  0  0  0  0  0  0  0  0  0  0
   -0.3739   -0.2459   -0.6675 C   0  0  0  0  0  0  0  0  0  0  0  0
    0.2127    0.6584   -0.8420 H   0  0  0  0  0  0  0  0  0  0  0  0
    0.3036   -1.1006   -0.6883 H   0  0  0  0  0  0  0  0  0  0  0  0
   -1.3959   -0.3818   -1.8070 C   0  0  0  0  0  0  0  0  0  0  0  0
   -1.2264   -1.3172   -2.3410 H   0  0  0  0  0  0  0  0  0  0  0  0
   -2.4033   -0.3876   -1.3868 H   0  0  0  0  0  0  0  0  0  0  0  0
   -1.2695    0.7814   -2.7972 C   0  0  0  0  0  0  0  0  0  0  0  0
   -1.4289    1.7257   -2.2757 H   0  0  0  0  0  0  0  0  0  0  0  0
   -0.2720    0.7771   -3.2377 H   0  0  0  0  0  0  0  0  0  0  0  0
   -2.3115    0.6352   -3.9044 C   0  0  0  0  0  0  0  0  0  0  0  0
   -2.1428   -0.2984   -4.4387 H   0  0  0  0  0  0  0  0  0  0  0  0
   -3.3075    0.6214   -3.4648 H   0  0  0  0  0  0  0  0  0  0  0  0
   -2.2338    1.7472   -4.8588 N   0  0  0  0  0  0  0  0  0  0  0  0
   -2.9248    1.6112   -5.5819 H   0  0  0  0  0  0  0  0  0  0  0  0
   -2.4212    2.6134   -4.3742 H   0  0  0  0  0  0  0  0  0  0  0  0
   -1.2712    1.3099    1.1517 C   0  0  0  0  0  0  0  0  0  0  0  0
   -2.2039    1.9448    0.6639 O   0  0  0  0  0  0  0  0  0  0  0  0
   -0.4306    1.8354    2.0503 N   0  0  0  0  0  0  0  0  0  0  0  0
    0.3001    1.2459    2.4139 H   0  0  0  0  0  0  0  0  0  0  0  0
   -0.5192    3.2082    2.5456 C   0  0  0  0  0  0  0  0  0  0  0  0
   -1.5166    3.3903    2.9518 H   0  0  0  0  0  0  0  0  0  0  0  0
    0.2240    3.3791    3.3257 H   0  0  0  0  0  0  0  0  0  0  0  0
   -0.3477    3.9067    1.7239 H   0  0  0  0  0  0  0  0  0  0  0  0
  5  6  2  0  0  0  0
  5  7  1  0  0  0  0
  2  3  1  0  0  0  0
  2  4  1  0  0  0  0
  2  5  1  0  0  0  0
  1  2  1  0  0  0  0
 26 27  2  0  0  0  0
 26 28  1  0  0  0  0
 23 24  1  0  0  0  0
 23 25  1  0  0  0  0
 20 21  1  0  0  0  0
 20 22  1  0  0  0  0
 20 23  1  0  0  0  0
 17 18  1  0  0  0  0
 17 19  1  0  0  0  0
 17 20  1  0  0  0  0
 14 15  1  0  0  0  0
 14 16  1  0  0  0  0
 14 17  1  0  0  0  0
 11 12  1  0  0  0  0
 11 13  1  0  0  0  0
 11 14  1  0  0  0  0
  9 10  1  0  0  0  0
  9 11  1  0  0  0  0
  9 26  1  0  0  0  0
  7  8  1  0  0  0  0
  7  9  1  0  0  0  0
 30 31  1  0  0  0  0
 30 32  1  0  0  0  0
 30 33  1  0  0  0  0
 28 29  1  0  0  0  0
 28 30  1  0  0  0  0
M  END
$$$$
default_name
  -OEChem-02102213163D

 33 32  0     1  0  0  0  0  0999 V2000
   -3.8420   -3.6918    1.5562 H   0  0  0  0  0  0  0  0  0  0  0  0
   -3.8430   -2.7008    1.1032 C   0  0  0  0  0  0  0  0  0  0  0  0
   -4.5510   -2.0608    1.6242 H   0  0  0  0  0  0  0  0  0  0  0  0
   -4.1140   -2.7798    0.0522 H   0  0  0  0  0  0  0  0  0  0  0  0
   -2.4570   -2.1098    1.2172 C   0  0  0  0  0  0  0  0  0  0  0  0
   -1.5600   -2.7438    1.7572 O   0  0  0  0  0  0  0  0  0  0  0  0
   -2.2870   -0.8898    0.7102 N   0  0  0  0  0  0  0  0  0  0  0  0
   -3.0820   -0.4218    0.2992 H   0  0  0  0  0  0  0  0  0  0  0  0
   -1.0240   -0.1468    0.7262 C   0  0  1  0  0  0  0  0  0  0  0  0
   -0.3583   -0.6100    1.4558 H   0  0  0  0  0  0  0  0  0  0  0  0
   -0.3739   -0.2459   -0.6675 C   0  0  0  0  0  0  0  0  0  0  0  0
    0.2127    0.6584   -0.8420 H   0  0  0  0  0  0  0  0  0  0  0  0
    0.3036   -1.1006   -0.6883 H   0  0  0  0  0  0  0  0  0  0  0  0
   -1.3959   -0.3818   -1.8070 C   0  0  0  0  0  0  0  0  0  0  0  0
   -1.4078   -1.4109   -2.1672 H   0  0  0  0  0  0  0  0  0  0  0  0
   -2.3879   -0.1228   -1.4323 H   0  0  0  0  0  0  0  0  0  0  0  0
   -1.0403    0.5454   -2.9747 C   0  0  0  0  0  0  0  0  0  0  0  0
   -1.0167    1.5789   -2.6279 H   0  0  0  0  0  0  0  0  0  0  0  0
   -0.0599    0.2750   -3.3680 H   0  0  0  0  0  0  0  0  0  0  0  0
   -2.0841    0.4090   -4.0814 C   0  0  0  0  0  0  0  0  0  0  0  0
   -2.0964   -0.6183   -4.4421 H   0  0  0  0  0  0  0  0  0  0  0  0
   -3.0665    0.6615   -3.6857 H   0  0  0  0  0  0  0  0  0  0  0  0
   -1.7864    1.3022   -5.2069 N   0  0  0  0  0  0  0  0  0  0  0  0
   -2.4863    1.1760   -5.9234 H   0  0  0  0  0  0  0  0  0  0  0  0
   -1.8053    2.2592   -4.8844 H   0  0  0  0  0  0  0  0  0  0  0  0
   -1.2712    1.3099    1.1517 C   0  0  0  0  0  0  0  0  0  0  0  0
   -2.2039    1.9448    0.6639 O   0  0  0  0  0  0  0  0  0  0  0  0
   -0.4306    1.8354    2.0503 N   0  0  0  0  0  0  0  0  0  0  0  0
    0.3001    1.2459    2.4139 H   0  0  0  0  0  0  0  0  0  0  0  0
   -0.5192    3.2082    2.5456 C   0  0  0  0  0  0  0  0  0  0  0  0
   -1.5166    3.3903    2.9518 H   0  0  0  0  0  0  0  0  0  0  0  0
    0.2240    3.3791    3.3257 H   0  0  0  0  0  0  0  0  0  0  0  0
   -0.3477    3.9067    1.7239 H   0  0  0  0  0  0  0  0  0  0  0  0
  5  6  2  0  0  0  0
  5  7  1  0  0  0  0
  2  3  1  0  0  0  0
  2  4  1  0  0  0  0
  2  5  1  0  0  0  0
  1  2  1  0  0  0  0
 26 27  2  0  0  0  0
 26 28  1  0  0  0  0
 23 24  1  0  0  0  0
 23 25  1  0  0  0  0
 20 21  1  0  0  0  0
 20 22  1  0  0  0  0
 20 23  1  0  0  0  0
 17 18  1  0  0  0  0
 17 19  1  0  0  0  0
 17 20  1  0  0  0  0
 14 15  1  0  0  0  0
 14 16  1  0  0  0  0
 14 17  1  0  0  0  0
 11 12  1  0  0  0  0
 11 13  1  0  0  0  0
 11 14  1  0  0  0  0
  9 10  1  0  0  0  0
  9 11  1  0  0  0  0
  9 26  1  0  0  0  0
  7  8  1  0  0  0  0
  7  9  1  0  0  0  0
 30 31  1  0  0  0  0
 30 32  1  0  0  0  0
 30 33  1  0  0  0  0
 28 29  1  0  0  0  0
 28 30  1  0  0  0  0
M  END
$$$$
default_name
  -OEChem-02102213163D

 33 32  0     1  0  0  0  0  0999 V2000
   -3.8420   -3.6918    1.5562 H   0  0  0  0  0  0  0  0  0  0  0  0
   -3.8430   -2.7008    1.1032 C   0  0  0  0  0  0  0  0  0  0  0  0
   -4.5510   -2.0608    1.6242 H   0  0  0  0  0  0  0  0  0  0  0  0
   -4.1140   -2.7798    0.0522 H   0  0  0  0  0  0  0  0  0  0  0  0
   -2.4570   -2.1098    1.2172 C   0  0  0  0  0  0  0  0  0  0  0  0
   -1.5600   -2.7438    1.7572 O   0  0  0  0  0  0  0  0  0  0  0  0
   -2.2870   -0.8898    0.7102 N   0  0  0  0  0  0  0  0  0  0  0  0
   -3.0820   -0.4218    0.2992 H   0  0  0  0  0  0  0  0  0  0  0  0
   -1.0240   -0.1468    0.7262 C   0  0  1  0  0  0  0  0  0  0  0  0
   -0.3583   -0.6100    1.4558 H   0  0  0  0  0  0  0  0  0  0  0  0
   -0.3739   -0.2459   -0.6675 C   0  0  0  0  0  0  0  0  0  0  0  0
    0.2127    0.6584   -0.8420 H   0  0  0  0  0  0  0  0  0  0  0  0
    0.3036   -1.1006   -0.6883 H   0  0  0  0  0  0  0  0  0  0  0  0
   -1.3959   -0.3818   -1.8070 C   0  0  0  0  0  0  0  0  0  0  0  0
   -1.6049   -1.4366   -1.9873 H   0  0  0  0  0  0  0  0  0  0  0  0
   -2.3211    0.1222   -1.5214 H   0  0  0  0  0  0  0  0  0  0  0  0
   -0.8601    0.2429   -3.1002 C   0  0  0  0  0  0  0  0  0  0  0  0
   -0.6387    1.2975   -2.9334 H   0  0  0  0  0  0  0  0  0  0  0  0
    0.0516   -0.2731   -3.4027 H   0  0  0  0  0  0  0  0  0  0  0  0
   -1.9039    0.1164   -4.2082 C   0  0  0  0  0  0  0  0  0  0  0  0
   -2.1129   -0.9367   -4.3893 H   0  0  0  0  0  0  0  0  0  0  0  0
   -2.8210    0.6159   -3.9004 H   0  0  0  0  0  0  0  0  0  0  0  0
   -1.4317    0.7266   -5.4564 N   0  0  0  0  0  0  0  0  0  0  0  0
   -2.1384    0.6126   -6.1682 H   0  0  0  0  0  0  0  0  0  0  0  0
   -1.2666    1.7111   -5.3022 H   0  0  0  0  0  0  0  0  0  0  0  0
   -1.2712    1.3099    1.1517 C   0  0  0  0  0  0  0  0  0  0  0  0
   -2.2039    1.9448    0.6639 O   0  0  0  0  0  0  0  0  0  0  0  0
   -0.4306    1.8354    2.0503 N   0  0  0  0  0  0  0  0  0  0  0  0
    0.3001    1.2459    2.4139 H   0  0  0  0  0  0  0  0  0  0  0  0
   -0.5192    3.2082    2.5456 C   0  0  0  0  0  0  0  0  0  0  0  0
   -1.5166    3.3903    2.9518 H   0  0  0  0  0  0  0  0  0  0  0  0
    0.2240    3.3791    3.3257 H   0  0  0  0  0  0  0  0  0  0  0  0
   -0.3477    3.9067    1.7239 H   0  0  0  0  0  0  0  0  0  0  0  0
  5  6  2  0  0  0  0
  5  7  1  0  0  0  0
  2  3  1  0  0  0  0
  2  4  1  0  0  0  0
  2  5  1  0  0  0  0
  1  2  1  0  0  0  0
 26 27  2  0  0  0  0
 26 28  1  0  0  0  0
 23 24  1  0  0  0  0
 23 25  1  0  0  0  0
 20 21  1  0  0  0  0
 20 22  1  0  0  0  0
 20 23  1  0  0  0  0
 17 18  1  0  0  0  0
 17 19  1  0  0  0  0
 17 20  1  0  0  0  0
 14 15  1  0  0  0  0
 14 16  1  0  0  0  0
 14 17  1  0  0  0  0
 11 12  1  0  0  0  0
 11 13  1  0  0  0  0
 11 14  1  0  0  0  0
  9 10  1  0  0  0  0
  9 11  1  0  0  0  0
  9 26  1  0  0  0  0
  7  8  1  0  0  0  0
  7  9  1  0  0  0  0
 30 31  1  0  0  0  0
 30 32  1  0  0  0  0
 30 33  1  0  0  0  0
 28 29  1  0  0  0  0
 28 30  1  0  0  0  0
M  END
$$$$
default_name
  -OEChem-02102213163D

 33 32  0     1  0  0  0  0  0999 V2000
   -3.8420   -3.6918    1.5562 H   0  0  0  0  0  0  0  0  0  0  0  0
   -3.8430   -2.7008    1.1032 C   0  0  0  0  0  0  0  0  0  0  0  0
   -4.5510   -2.0608    1.6242 H   0  0  0  0  0  0  0  0  0  0  0  0
   -4.1140   -2.7798    0.0522 H   0  0  0  0  0  0  0  0  0  0  0  0
   -2.4570   -2.1098    1.2172 C   0  0  0  0  0  0  0  0  0  0  0  0
   -1.5600   -2.7438    1.7572 O   0  0  0  0  0  0  0  0  0  0  0  0
   -2.2870   -0.8898    0.7102 N   0  0  0  0  0  0  0  0  0  0  0  0
   -3.0820   -0.4218    0.2992 H   0  0  0  0  0  0  0  0  0  0  0  0
   -1.0240   -0.1468    0.7262 C   0  0  1  0  0  0  0  0  0  0  0  0
   -0.3583   -0.6100    1.4558 H   0  0  0  0  0  0  0  0  0  0  0  0
   -0.3739   -0.2459   -0.6675 C   0  0  0  0  0  0  0  0  0  0  0  0
    0.2127    0.6584   -0.8420 H   0  0  0  0  0  0  0  0  0  0  0  0
    0.3036   -1.1006   -0.6883 H   0  0  0  0  0  0  0  0  0  0  0  0
   -1.3959   -0.3818   -1.8070 C   0  0  0  0  0  0  0  0  0  0  0  0
   -1.8044   -1.3927   -1.8136 H   0  0  0  0  0  0  0  0  0  0  0  0
   -2.2075    0.3306   -1.6481 H   0  0  0  0  0  0  0  0  0  0  0  0
   -0.7413   -0.1055   -3.1652 C   0  0  0  0  0  0  0  0  0  0  0  0
   -0.3206    0.9005   -3.1714 H   0  0  0  0  0  0  0  0  0  0  0  0
    0.0549   -0.8299   -3.3392 H   0  0  0  0  0  0  0  0  0  0  0  0
   -1.7830   -0.2227   -4.2762 C   0  0  0  0  0  0  0  0  0  0  0  0
   -2.1912   -1.2321   -4.2839 H   0  0  0  0  0  0  0  0  0  0  0  0
   -2.5877    0.4878   -4.0944 H   0  0  0  0  0  0  0  0  0  0  0  0
   -1.1939    0.0595   -5.5902 N   0  0  0  0  0  0  0  0  0  0  0  0
   -1.9049   -0.0405   -6.2997 H   0  0  0  0  0  0  0  0  0  0  0  0
   -0.8419    1.0063   -5.5990 H   0  0  0  0  0  0  0  0  0  0  0  0
   -1.2712    1.3099    1.1517 C   0  0  0  0  0  0  0  0  0  0  0  0
   -2.2039    1.9448    0.6639 O   0  0  0  0  0  0  0  0  0  0  0  0
   -0.4306    1.8354    2.0503 N   0  0  0  0  0  0  0  0  0  0  0  0
    0.3001    1.2459    2.4139 H   0  0  0  0  0  0  0  0  0  0  0  0
   -0.5192    3.2082    2.5456 C   0  0  0  0  0  0  0  0  0  0  0  0
   -1.5166    3.3903    2.9518 H   0  0  0  0  0  0  0  0  0  0  0  0
    0.2240    3.3791    3.3257 H   0  0  0  0  0  0  0  0  0  0  0  0
   -0.3477    3.9067    1.7239 H   0  0  0  0  0  0  0  0  0  0  0  0
  5  6  2  0  0  0  0
  5  7  1  0  0  0  0
  2  3  1  0  0  0  0
  2  4  1  0  0  0  0
  2  5  1  0  0  0  0
  1  2  1  0  0  0  0
 26 27  2  0  0  0  0
 26 28  1  0  0  0  0
 23 24  1  0  0  0  0
 23 25  1  0  0  0  0
 20 21  1  0  0  0  0
 20 22  1  0  0  0  0
 20 23  1  0  0  0  0
 17 18  1  0  0  0  0
 17 19  1  0  0  0  0
 17 20  1  0  0  0  0
 14 15  1  0  0  0  0
 14 16  1  0  0  0  0
 14 17  1  0  0  0  0
 11 12  1  0  0  0  0
 11 13  1  0  0  0  0
 11 14  1  0  0  0  0
  9 10  1  0  0  0  0
  9 11  1  0  0  0  0
  9 26  1  0  0  0  0
  7  8  1  0  0  0  0
  7  9  1  0  0  0  0
 30 31  1  0  0  0  0
 30 32  1  0  0  0  0
 30 33  1  0  0  0  0
 28 29  1  0  0  0  0
 28 30  1  0  0  0  0
M  END
$$$$
default_name
  -OEChem-02102213163D

 33 32  0     1  0  0  0  0  0999 V2000
   -3.8420   -3.6918    1.5562 H   0  0  0  0  0  0  0  0  0  0  0  0
   -3.8430   -2.7008    1.1032 C   0  0  0  0  0  0  0  0  0  0  0  0
   -4.5510   -2.0608    1.6242 H   0  0  0  0  0  0  0  0  0  0  0  0
   -4.1140   -2.7798    0.0522 H   0  0  0  0  0  0  0  0  0  0  0  0
   -2.4570   -2.1098    1.2172 C   0  0  0  0  0  0  0  0  0  0  0  0
   -1.5600   -2.7438    1.7572 O   0  0  0  0  0  0  0  0  0  0  0  0
   -2.2870   -0.8898    0.7102 N   0  0  0  0  0  0  0  0  0  0  0  0
   -3.0820   -0.4218    0.2992 H   0  0  0  0  0  0  0  0  0  0  0  0
   -1.0240   -0.1468    0.7262 C   0  0  1  0  0  0  0  0  0  0  0  0
   -0.3583   -0.6100    1.4558 H   0  0  0  0  0  0  0  0  0  0  0  0
   -0.3739   -0.2459   -0.6675 C   0  0  0  0  0  0  0  0  0  0  0  0
    0.4123    0.5086   -0.7382 H   0  0  0  0  0  0  0  0  0  0  0  0
    0.0860   -1.2286   -0.7807 H   0  0  0  0  0  0  0  0  0  0  0  0
   -1.3652   -0.0149   -1.8187 C   0  0  0  0  0  0  0  0  0  0  0  0
   -2.1595   -0.7604   -1.7729 H   0  0  0  0  0  0  0  0  0  0  0  0
   -1.8029    0.9803   -1.7213 H   0  0  0  0  0  0  0  0  0  0  0  0
   -0.6625   -0.1257   -3.1766 C   0  0  0  0  0  0  0  0  0  0  0  0
    0.1408    0.6094   -3.2346 H   0  0  0  0  0  0  0  0  0  0  0  0
   -0.2440   -1.1263   -3.2888 H   0  0  0  0  0  0  0  0  0  0  0  0
   -1.6637    0.1323   -4.3009 C   0  0  0  0  0  0  0  0  0  0  0  0
   -2.4571   -0.6120   -4.2563 H   0  0  0  0  0  0  0  0  0  0  0  0
   -2.0959    1.1243   -4.1803 H   0  0  0  0  0  0  0  0  0  0  0  0
   -1.0178    0.0571   -5.6164 N   0  0  0  0  0  0  0  0  0  0  0  0
   -1.7093    0.2183   -6.3340 H   0  0  0  0  0  0  0  0  0  0  0  0
   -0.3018    0.7672   -5.6750 H   0  0  0  0  0  0  0  0  0  0  0  0
   -1.2712    1.3099    1.1517 C   0  0  0  0  0  0  0  0  0  0  0  0
   -2.2039    1.9448    0.6639 O   0  0  0  0  0  0  0  0  0  0  0  0
   -0.4306    1.8354    2.0503 N   0  0  0  0  0  0  0  0  0  0  0  0
    0.3001    1.2459    2.4139 H   0  0  0  0  0  0  0  0  0  0  0  0
   -0.5192    3.2082    2.5456 C   0  0  0  0  0  0  0  0  0  0  0  0
   -1.5166    3.3903    2.9518 H   0  0  0  0  0  0  0  0  0  0  0  0
    0.2240    3.3791    3.3257 H   0  0  0  0  0  0  0  0  0  0  0  0
   -0.3477    3.9067    1.7239 H   0  0  0  0  0  0  0  0  0  0  0  0
  5  6  2  0  0  0  0
  5  7  1  0  0  0  0
  2  3  1  0  0  0  0
  2  4  1  0  0  0  0
  2  5  1  0  0  0  0
  1  2  1  0  0  0  0
 26 27  2  0  0  0  0
 26 28  1  0  0  0  0
 23 24  1  0  0  0  0
 23 25  1  0  0  0  0
 20 21  1  0  0  0  0
 20 22  1  0  0  0  0
 20 23  1  0  0  0  0
 17 18  1  0  0  0  0
 17 19  1  0  0  0  0
 17 20  1  0  0  0  0
 14 15  1  0  0  0  0
 14 16  1  0  0  0  0
 14 17  1  0  0  0  0
 11 12  1  0  0  0  0
 11 13  1  0  0  0  0
 11 14  1  0  0  0  0
  9 10  1  0  0  0  0
  9 11  1  0  0  0  0
  9 26  1  0  0  0  0
  7  8  1  0  0  0  0
  7  9  1  0  0  0  0
 30 31  1  0  0  0  0
 30 32  1  0  0  0  0
 30 33  1  0  0  0  0
 28 29  1  0  0  0  0
 28 30  1  0  0  0  0
M  END
$$$$
default_name
  -OEChem-02102213163D

 33 32  0     1  0  0  0  0  0999 V2000
   -3.8420   -3.6918    1.5562 H   0  0  0  0  0  0  0  0  0  0  0  0
   -3.8430   -2.7008    1.1032 C   0  0  0  0  0  0  0  0  0  0  0  0
   -4.5510   -2.0608    1.6242 H   0  0  0  0  0  0  0  0  0  0  0  0
   -4.1140   -2.7798    0.0522 H   0  0  0  0  0  0  0  0  0  0  0  0
   -2.4570   -2.1098    1.2172 C   0  0  0  0  0  0  0  0  0  0  0  0
   -1.5600   -2.7438    1.7572 O   0  0  0  0  0  0  0  0  0  0  0  0
   -2.2870   -0.8898    0.7102 N   0  0  0  0  0  0  0  0  0  0  0  0
   -3.0820   -0.4218    0.2992 H   0  0  0  0  0  0  0  0  0  0  0  0
   -1.0240   -0.1468    0.7262 C   0  0  1  0  0  0  0  0  0  0  0  0
   -0.3583   -0.6100    1.4558 H   0  0  0  0  0  0  0  0  0  0  0  0
   -0.3739   -0.2459   -0.6675 C   0  0  0  0  0  0  0  0  0  0  0  0
    0.4123    0.5086   -0.7382 H   0  0  0  0  0  0  0  0  0  0  0  0
    0.0860   -1.2286   -0.7807 H   0  0  0  0  0  0  0  0  0  0  0  0
   -1.3652   -0.0149   -1.8187 C   0  0  0  0  0  0  0  0  0  0  0  0
   -2.2833   -0.5714   -1.6285 H   0  0  0  0  0  0  0  0  0  0  0  0
   -1.5991    1.0494   -1.8829 H   0  0  0  0  0  0  0  0  0  0  0  0
   -0.7728   -0.4821   -3.1531 C   0  0  0  0  0  0  0  0  0  0  0  0
    0.1514    0.0607   -3.3539 H   0  0  0  0  0  0  0  0  0  0  0  0
   -0.5595   -1.5502   -3.1021 H   0  0  0  0  0  0  0  0  0  0  0  0
   -1.7672   -0.2186   -4.2823 C   0  0  0  0  0  0  0  0  0  0  0  0
   -2.6842   -0.7744   -4.0934 H   0  0  0  0  0  0  0  0  0  0  0  0
   -1.9950    0.8453   -4.3232 H   0  0  0  0  0  0  0  0  0  0  0  0
   -1.2213   -0.6332   -5.5797 N   0  0  0  0  0  0  0  0  0  0  0  0
   -1.9081   -0.4582   -6.2986 H   0  0  0  0  0  0  0  0  0  0  0  0
   -0.3874   -0.0976   -5.7748 H   0  0  0  0  0  0  0  0  0  0  0  0
   -1.2712    1.3099    1.1517 C   0  0  0  0  0  0  0  0  0  0  0  0
   -2.2039    1.9448    0.6639 O   0  0  0  0  0  0  0  0  0  0  0  0
   -0.4306    1.8354    2.0503 N   0  0  0  0  0  0  0  0  0  0  0  0
    0.3001    1.2459    2.4139 H   0  0  0  0  0  0  0  0  0  0  0  0
   -0.5192    3.2082    2.5456 C   0  0  0  0  0  0  0  0  0  0  0  0
   -1.5166    3.3903    2.9518 H   0  0  0  0  0  0  0  0  0  0  0  0
    0.2240    3.3791    3.3257 H   0  0  0  0  0  0  0  0  0  0  0  0
   -0.3477    3.9067    1.7239 H   0  0  0  0  0  0  0  0  0  0  0  0
  5  6  2  0  0  0  0
  5  7  1  0  0  0  0
  2  3  1  0  0  0  0
  2  4  1  0  0  0  0
  2  5  1  0  0  0  0
  1  2  1  0  0  0  0
 26 27  2  0  0  0  0
 26 28  1  0  0  0  0
 23 24  1  0  0  0  0
 23 25  1  0  0  0  0
 20 21  1  0  0  0  0
 20 22  1  0  0  0  0
 20 23  1  0  0  0  0
 17 18  1  0  0  0  0
 17 19  1  0  0  0  0
 17 20  1  0  0  0  0
 14 15  1  0  0  0  0
 14 16  1  0  0  0  0
 14 17  1  0  0  0  0
 11 12  1  0  0  0  0
 11 13  1  0  0  0  0
 11 14  1  0  0  0  0
  9 10  1  0  0  0  0
  9 11  1  0  0  0  0
  9 26  1  0  0  0  0
  7  8  1  0  0  0  0
  7  9  1  0  0  0  0
 30 31  1  0  0  0  0
 30 32  1  0  0  0  0
 30 33  1  0  0  0  0
 28 29  1  0  0  0  0
 28 30  1  0  0  0  0
M  END
$$$$
default_name
  -OEChem-02102213163D

 33 32  0     1  0  0  0  0  0999 V2000
   -3.8420   -3.6918    1.5562 H   0  0  0  0  0  0  0  0  0  0  0  0
   -3.8430   -2.7008    1.1032 C   0  0  0  0  0  0  0  0  0  0  0  0
   -4.5510   -2.0608    1.6242 H   0  0  0  0  0  0  0  0  0  0  0  0
   -4.1140   -2.7798    0.0522 H   0  0  0  0  0  0  0  0  0  0  0  0
   -2.4570   -2.1098    1.2172 C   0  0  0  0  0  0  0  0  0  0  0  0
   -1.5600   -2.7438    1.7572 O   0  0  0  0  0  0  0  0  0  0  0  0
   -2.2870   -0.8898    0.7102 N   0  0  0  0  0  0  0  0  0  0  0  0
   -3.0820   -0.4218    0.2992 H   0  0  0  0  0  0  0  0  0  0  0  0
   -1.0240   -0.1468    0.7262 C   0  0  1  0  0  0  0  0  0  0  0  0
   -0.3583   -0.6100    1.4558 H   0  0  0  0  0  0  0  0  0  0  0  0
   -0.3739   -0.2459   -0.6675 C   0  0  0  0  0  0  0  0  0  0  0  0
    0.4123    0.5086   -0.7382 H   0  0  0  0  0  0  0  0  0  0  0  0
    0.0860   -1.2286   -0.7807 H   0  0  0  0  0  0  0  0  0  0  0  0
   -1.3652   -0.0149   -1.8187 C   0  0  0  0  0  0  0  0  0  0  0  0
   -2.3606   -0.3408   -1.5156 H   0  0  0  0  0  0  0  0  0  0  0  0
   -1.3952    1.0496   -2.0584 H   0  0  0  0  0  0  0  0  0  0  0  0
   -0.9475   -0.8010   -3.0667 C   0  0  0  0  0  0  0  0  0  0  0  0
    0.0506   -0.4913   -3.3779 H   0  0  0  0  0  0  0  0  0  0  0  0
   -0.9392   -1.8673   -2.8388 H   0  0  0  0  0  0  0  0  0  0  0  0
   -1.9344   -0.5344   -4.2016 C   0  0  0  0  0  0  0  0  0  0  0  0
   -2.9287   -0.8600   -3.9000 H   0  0  0  0  0  0  0  0  0  0  0  0
   -1.9572    0.5323   -4.4185 H   0  0  0  0  0  0  0  0  0  0  0  0
   -1.5503   -1.2545   -5.4211 N   0  0  0  0  0  0  0  0  0  0  0  0
   -2.2298   -1.0671   -6.1437 H   0  0  0  0  0  0  0  0  0  0  0  0
   -0.6417   -0.9330   -5.7235 H   0  0  0  0  0  0  0  0  0  0  0  0
   -1.2712    1.3099    1.1517 C   0  0  0  0  0  0  0  0  0  0  0  0
   -2.2039    1.9448    0.6639 O   0  0  0  0  0  0  0  0  0  0  0  0
   -0.4306    1.8354    2.0503 N   0  0  0  0  0  0  0  0  0  0  0  0
    0.3001    1.2459    2.4139 H   0  0  0  0  0  0  0  0  0  0  0  0
   -0.5192    3.2082    2.5456 C   0  0  0  0  0  0  0  0  0  0  0  0
   -1.5166    3.3903    2.9518 H   0  0  0  0  0  0  0  0  0  0  0  0
    0.2240    3.3791    3.3257 H   0  0  0  0  0  0  0  0  0  0  0  0
   -0.3477    3.9067    1.7239 H   0  0  0  0  0  0  0  0  0  0  0  0
  5  6  2  0  0  0  0
  5  7  1  0  0  0  0
  2  3  1  0  0  0  0
  2  4  1  0  0  0  0
  2  5  1  0  0  0  0
  1  2  1  0  0  0  0
 26 27  2  0  0  0  0
 26 28  1  0  0  0  0
 23 24  1  0  0  0  0
 23 25  1  0  0  0  0
 20 21  1  0  0  0  0
 20 22  1  0  0  0  0
 20 23  1  0  0  0  0
 17 18  1  0  0  0  0
 17 19  1  0  0  0  0
 17 20  1  0  0  0  0
 14 15  1  0  0  0  0
 14 16  1  0  0  0  0
 14 17  1  0  0  0  0
 11 12  1  0  0  0  0
 11 13  1  0  0  0  0
 11 14  1  0  0  0  0
  9 10  1  0  0  0  0
  9 11  1  0  0  0  0
  9 26  1  0  0  0  0
  7  8  1  0  0  0  0
  7  9  1  0  0  0  0
 30 31  1  0  0  0  0
 30 32  1  0  0  0  0
 30 33  1  0  0  0  0
 28 29  1  0  0  0  0
 28 30  1  0  0  0  0
M  END
$$$$
default_name
  -OEChem-02102213163D

 33 32  0     1  0  0  0  0  0999 V2000
   -3.8420   -3.6918    1.5562 H   0  0  0  0  0  0  0  0  0  0  0  0
   -3.8430   -2.7008    1.1032 C   0  0  0  0  0  0  0  0  0  0  0  0
   -4.5510   -2.0608    1.6242 H   0  0  0  0  0  0  0  0  0  0  0  0
   -4.1140   -2.7798    0.0522 H   0  0  0  0  0  0  0  0  0  0  0  0
   -2.4570   -2.1098    1.2172 C   0  0  0  0  0  0  0  0  0  0  0  0
   -1.5600   -2.7438    1.7572 O   0  0  0  0  0  0  0  0  0  0  0  0
   -2.2870   -0.8898    0.7102 N   0  0  0  0  0  0  0  0  0  0  0  0
   -3.0820   -0.4218    0.2992 H   0  0  0  0  0  0  0  0  0  0  0  0
   -1.0240   -0.1468    0.7262 C   0  0  1  0  0  0  0  0  0  0  0  0
   -0.3583   -0.6100    1.4558 H   0  0  0  0  0  0  0  0  0  0  0  0
   -0.3739   -0.2459   -0.6675 C   0  0  0  0  0  0  0  0  0  0  0  0
    0.4123    0.5086   -0.7382 H   0  0  0  0  0  0  0  0  0  0  0  0
    0.0860   -1.2286   -0.7807 H   0  0  0  0  0  0  0  0  0  0  0  0
   -1.3652   -0.0149   -1.8187 C   0  0  0  0  0  0  0  0  0  0  0  0
   -2.3861   -0.0842   -1.4422 H   0  0  0  0  0  0  0  0  0  0  0  0
   -1.2050    0.9809   -2.2360 H   0  0  0  0  0  0  0  0  0  0  0  0
   -1.1748   -1.0607   -2.9231 C   0  0  0  0  0  0  0  0  0  0  0  0
   -0.1547   -1.0090   -3.3050 H   0  0  0  0  0  0  0  0  0  0  0  0
   -1.3572   -2.0560   -2.5167 H   0  0  0  0  0  0  0  0  0  0  0  0
   -2.1541   -0.7936   -4.0645 C   0  0  0  0  0  0  0  0  0  0  0  0
   -3.1739   -0.8630   -3.6895 H   0  0  0  0  0  0  0  0  0  0  0  0
   -1.9851    0.2067   -4.4599 H   0  0  0  0  0  0  0  0  0  0  0  0
   -1.9824   -1.7644   -5.1514 N   0  0  0  0  0  0  0  0  0  0  0  0
   -2.6527   -1.5670   -5.8799 H   0  0  0  0  0  0  0  0  0  0  0  0
   -1.0474   -1.6820   -5.5246 H   0  0  0  0  0  0  0  0  0  0  0  0
   -1.2712    1.3099    1.1517 C   0  0  0  0  0  0  0  0  0  0  0  0
   -2.2039    1.9448    0.6639 O   0  0  0  0  0  0  0  0  0  0  0  0
   -0.4306    1.8354    2.0503 N   0  0  0  0  0  0  0  0  0  0  0  0
    0.3001    1.2459    2.4139 H   0  0  0  0  0  0  0  0  0  0  0  0
   -0.5192    3.2082    2.5456 C   0  0  0  0  0  0  0  0  0  0  0  0
   -1.5166    3.3903    2.9518 H   0  0  0  0  0  0  0  0  0  0  0  0
    0.2240    3.3791    3.3257 H   0  0  0  0  0  0  0  0  0  0  0  0
   -0.3477    3.9067    1.7239 H   0  0  0  0  0  0  0  0  0  0  0  0
  5  6  2  0  0  0  0
  5  7  1  0  0  0  0
  2  3  1  0  0  0  0
  2  4  1  0  0  0  0
  2  5  1  0  0  0  0
  1  2  1  0  0  0  0
 26 27  2  0  0  0  0
 26 28  1  0  0  0  0
 23 24  1  0  0  0  0
 23 25  1  0  0  0  0
 20 21  1  0  0  0  0
 20 22  1  0  0  0  0
 20 23  1  0  0  0  0
 17 18  1  0  0  0  0
 17 19  1  0  0  0  0
 17 20  1  0  0  0  0
 14 15  1  0  0  0  0
 14 16  1  0  0  0  0
 14 17  1  0  0  0  0
 11 12  1  0  0  0  0
 11 13  1  0  0  0  0
 11 14  1  0  0  0  0
  9 10  1  0  0  0  0
  9 11  1  0  0  0  0
  9 26  1  0  0  0  0
  7  8  1  0  0  0  0
  7  9  1  0  0  0  0
 30 31  1  0  0  0  0
 30 32  1  0  0  0  0
 30 33  1  0  0  0  0
 28 29  1  0  0  0  0
 28 30  1  0  0  0  0
M  END
$$$$
default_name
  -OEChem-02102213163D

 33 32  0     1  0  0  0  0  0999 V2000
   -3.8420   -3.6918    1.5562 H   0  0  0  0  0  0  0  0  0  0  0  0
   -3.8430   -2.7008    1.1032 C   0  0  0  0  0  0  0  0  0  0  0  0
   -4.5510   -2.0608    1.6242 H   0  0  0  0  0  0  0  0  0  0  0  0
   -4.1140   -2.7798    0.0522 H   0  0  0  0  0  0  0  0  0  0  0  0
   -2.4570   -2.1098    1.2172 C   0  0  0  0  0  0  0  0  0  0  0  0
   -1.5600   -2.7438    1.7572 O   0  0  0  0  0  0  0  0  0  0  0  0
   -2.2870   -0.8898    0.7102 N   0  0  0  0  0  0  0  0  0  0  0  0
   -3.0820   -0.4218    0.2992 H   0  0  0  0  0  0  0  0  0  0  0  0
   -1.0240   -0.1468    0.7262 C   0  0  1  0  0  0  0  0  0  0  0  0
   -0.3583   -0.6100    1.4558 H   0  0  0  0  0  0  0  0  0  0  0  0
   -0.3739   -0.2459   -0.6675 C   0  0  0  0  0  0  0  0  0  0  0  0
    0.4123    0.5086   -0.7382 H   0  0  0  0  0  0  0  0  0  0  0  0
    0.0860   -1.2286   -0.7807 H   0  0  0  0  0  0  0  0  0  0  0  0
   -1.3652   -0.0149   -1.8187 C   0  0  0  0  0  0  0  0  0  0  0  0
   -2.3581    0.1808   -1.4130 H   0  0  0  0  0  0  0  0  0  0  0  0
   -1.0415    0.8481   -2.4034 H   0  0  0  0  0  0  0  0  0  0  0  0
   -1.4391   -1.2436   -2.7323 C   0  0  0  0  0  0  0  0  0  0  0  0
   -0.4506   -1.4570   -3.1401 H   0  0  0  0  0  0  0  0  0  0  0  0
   -1.7851   -2.1034   -2.1579 H   0  0  0  0  0  0  0  0  0  0  0  0
   -2.4112   -0.9784   -3.8802 C   0  0  0  0  0  0  0  0  0  0  0  0
   -3.4032   -0.7833   -3.4761 H   0  0  0  0  0  0  0  0  0  0  0  0
   -2.0768   -0.1092   -4.4443 H   0  0  0  0  0  0  0  0  0  0  0  0
   -2.4881   -2.1280   -4.7889 N   0  0  0  0  0  0  0  0  0  0  0  0
   -3.1478   -1.9239   -5.5252 H   0  0  0  0  0  0  0  0  0  0  0  0
   -1.5766   -2.2937   -5.1915 H   0  0  0  0  0  0  0  0  0  0  0  0
   -1.2712    1.3099    1.1517 C   0  0  0  0  0  0  0  0  0  0  0  0
   -2.2039    1.9448    0.6639 O   0  0  0  0  0  0  0  0  0  0  0  0
   -0.4306    1.8354    2.0503 N   0  0  0  0  0  0  0  0  0  0  0  0
    0.3001    1.2459    2.4139 H   0  0  0  0  0  0  0  0  0  0  0  0
   -0.5192    3.2082    2.5456 C   0  0  0  0  0  0  0  0  0  0  0  0
   -1.5166    3.3903    2.9518 H   0  0  0  0  0  0  0  0  0  0  0  0
    0.2240    3.3791    3.3257 H   0  0  0  0  0  0  0  0  0  0  0  0
   -0.3477    3.9067    1.7239 H   0  0  0  0  0  0  0  0  0  0  0  0
  5  6  2  0  0  0  0
  5  7  1  0  0  0  0
  2  3  1  0  0  0  0
  2  4  1  0  0  0  0
  2  5  1  0  0  0  0
  1  2  1  0  0  0  0
 26 27  2  0  0  0  0
 26 28  1  0  0  0  0
 23 24  1  0  0  0  0
 23 25  1  0  0  0  0
 20 21  1  0  0  0  0
 20 22  1  0  0  0  0
 20 23  1  0  0  0  0
 17 18  1  0  0  0  0
 17 19  1  0  0  0  0
 17 20  1  0  0  0  0
 14 15  1  0  0  0  0
 14 16  1  0  0  0  0
 14 17  1  0  0  0  0
 11 12  1  0  0  0  0
 11 13  1  0  0  0  0
 11 14  1  0  0  0  0
  9 10  1  0  0  0  0
  9 11  1  0  0  0  0
  9 26  1  0  0  0  0
  7  8  1  0  0  0  0
  7  9  1  0  0  0  0
 30 31  1  0  0  0  0
 30 32  1  0  0  0  0
 30 33  1  0  0  0  0
 28 29  1  0  0  0  0
 28 30  1  0  0  0  0
M  END
$$$$
default_name
  -OEChem-02102213163D

 33 32  0     1  0  0  0  0  0999 V2000
   -3.8420   -3.6918    1.5562 H   0  0  0  0  0  0  0  0  0  0  0  0
   -3.8430   -2.7008    1.1032 C   0  0  0  0  0  0  0  0  0  0  0  0
   -4.5510   -2.0608    1.6242 H   0  0  0  0  0  0  0  0  0  0  0  0
   -4.1140   -2.7798    0.0522 H   0  0  0  0  0  0  0  0  0  0  0  0
   -2.4570   -2.1098    1.2172 C   0  0  0  0  0  0  0  0  0  0  0  0
   -1.5600   -2.7438    1.7572 O   0  0  0  0  0  0  0  0  0  0  0  0
   -2.2870   -0.8898    0.7102 N   0  0  0  0  0  0  0  0  0  0  0  0
   -3.0820   -0.4218    0.2992 H   0  0  0  0  0  0  0  0  0  0  0  0
   -1.0240   -0.1468    0.7262 C   0  0  1  0  0  0  0  0  0  0  0  0
   -0.3583   -0.6100    1.4558 H   0  0  0  0  0  0  0  0  0  0  0  0
   -0.3739   -0.2459   -0.6675 C   0  0  0  0  0  0  0  0  0  0  0  0
    0.4123    0.5086   -0.7382 H   0  0  0  0  0  0  0  0  0  0  0  0
    0.0860   -1.2286   -0.7807 H   0  0  0  0  0  0  0  0  0  0  0  0
   -1.3652   -0.0149   -1.8187 C   0  0  0  0  0  0  0  0  0  0  0  0
   -2.2786    0.4363   -1.4303 H   0  0  0  0  0  0  0  0  0  0  0  0
   -0.9158    0.6602   -2.5494 H   0  0  0  0  0  0  0  0  0  0  0  0
   -1.7224   -1.3371   -2.5071 C   0  0  0  0  0  0  0  0  0  0  0  0
   -0.8168   -1.8049   -2.8946 H   0  0  0  0  0  0  0  0  0  0  0  0
   -2.1936   -2.0064   -1.7867 H   0  0  0  0  0  0  0  0  0  0  0  0
   -2.6881   -1.0763   -3.6614 C   0  0  0  0  0  0  0  0  0  0  0  0
   -3.6009   -0.6261   -3.2743 H   0  0  0  0  0  0  0  0  0  0  0  0
   -2.2260   -0.3940   -4.3730 H   0  0  0  0  0  0  0  0  0  0  0  0
   -3.0330   -2.3207   -4.3584 N   0  0  0  0  0  0  0  0  0  0  0  0
   -3.6814   -2.1134   -5.1038 H   0  0  0  0  0  0  0  0  0  0  0  0
   -2.1936   -2.7263   -4.7472 H   0  0  0  0  0  0  0  0  0  0  0  0
   -1.2712    1.3099    1.1517 C   0  0  0  0  0  0  0  0  0  0  0  0
   -2.2039    1.9448    0.6639 O   0  0  0  0  0  0  0  0  0  0  0  0
   -0.4306    1.8354    2.0503 N   0  0  0  0  0  0  0  0  0  0  0  0
    0.3001    1.2459    2.4139 H   0  0  0  0  0  0  0  0  0  0  0  0
   -0.5192    3.2082    2.5456 C   0  0  0  0  0  0  0  0  0  0  0  0
   -1.5166    3.3903    2.9518 H   0  0  0  0  0  0  0  0  0  0  0  0
    0.2240    3.3791    3.3257 H   0  0  0  0  0  0  0  0  0  0  0  0
   -0.3477    3.9067    1.7239 H   0  0  0  0  0  0  0  0  0  0  0  0
  5  6  2  0  0  0  0
  5  7  1  0  0  0  0
  2  3  1  0  0  0  0
  2  4  1  0  0  0  0
  2  5  1  0  0  0  0
  1  2  1  0  0  0  0
 26 27  2  0  0  0  0
 26 28  1  0  0  0  0
 23 24  1  0  0  0  0
 23 25  1  0  0  0  0
 20 21  1  0  0  0  0
 20 22  1  0  0  0  0
 20 23  1  0  0  0  0
 17 18  1  0  0  0  0
 17 19  1  0  0  0  0
 17 20  1  0  0  0  0
 14 15  1  0  0  0  0
 14 16  1  0  0  0  0
 14 17  1  0  0  0  0
 11 12  1  0  0  0  0
 11 13  1  0  0  0  0
 11 14  1  0  0  0  0
  9 10  1  0  0  0  0
  9 11  1  0  0  0  0
  9 26  1  0  0  0  0
  7  8  1  0  0  0  0
  7  9  1  0  0  0  0
 30 31  1  0  0  0  0
 30 32  1  0  0  0  0
 30 33  1  0  0  0  0
 28 29  1  0  0  0  0
 28 30  1  0  0  0  0
M  END
$$$$
default_name
  -OEChem-02102213163D

 33 32  0     1  0  0  0  0  0999 V2000
   -3.8420   -3.6918    1.5562 H   0  0  0  0  0  0  0  0  0  0  0  0
   -3.8430   -2.7008    1.1032 C   0  0  0  0  0  0  0  0  0  0  0  0
   -4.5510   -2.0608    1.6242 H   0  0  0  0  0  0  0  0  0  0  0  0
   -4.1140   -2.7798    0.0522 H   0  0  0  0  0  0  0  0  0  0  0  0
   -2.4570   -2.1098    1.2172 C   0  0  0  0  0  0  0  0  0  0  0  0
   -1.5600   -2.7438    1.7572 O   0  0  0  0  0  0  0  0  0  0  0  0
   -2.2870   -0.8898    0.7102 N   0  0  0  0  0  0  0  0  0  0  0  0
   -3.0820   -0.4218    0.2992 H   0  0  0  0  0  0  0  0  0  0  0  0
   -1.0240   -0.1468    0.7262 C   0  0  1  0  0  0  0  0  0  0  0  0
   -0.3583   -0.6100    1.4558 H   0  0  0  0  0  0  0  0  0  0  0  0
   -0.3739   -0.2459   -0.6675 C   0  0  0  0  0  0  0  0  0  0  0  0
    0.4123    0.5086   -0.7382 H   0  0  0  0  0  0  0  0  0  0  0  0
    0.0860   -1.2286   -0.7807 H   0  0  0  0  0  0  0  0  0  0  0  0
   -1.3652   -0.0149   -1.8187 C   0  0  0  0  0  0  0  0  0  0  0  0
   -2.1529    0.6648   -1.4926 H   0  0  0  0  0  0  0  0  0  0  0  0
   -0.8365    0.4299   -2.6638 H   0  0  0  0  0  0  0  0  0  0  0  0
   -2.0054   -1.3349   -2.2630 C   0  0  0  0  0  0  0  0  0  0  0  0
   -1.2285   -2.0289   -2.5851 H   0  0  0  0  0  0  0  0  0  0  0  0
   -2.5549   -1.7715   -1.4284 H   0  0  0  0  0  0  0  0  0  0  0  0
   -2.9662   -1.0806   -3.4229 C   0  0  0  0  0  0  0  0  0  0  0  0
   -3.7535   -0.4023   -3.0980 H   0  0  0  0  0  0  0  0  0  0  0  0
   -2.4226   -0.6283   -4.2507 H   0  0  0  0  0  0  0  0  0  0  0  0
   -3.5799   -2.3293   -3.8892 N   0  0  0  0  0  0  0  0  0  0  0  0
   -4.2172   -2.1226   -4.6443 H   0  0  0  0  0  0  0  0  0  0  0  0
   -2.8560   -2.9503   -4.2217 H   0  0  0  0  0  0  0  0  0  0  0  0
   -1.2712    1.3099    1.1517 C   0  0  0  0  0  0  0  0  0  0  0  0
   -2.2039    1.9448    0.6639 O   0  0  0  0  0  0  0  0  0  0  0  0
   -0.4306    1.8354    2.0503 N   0  0  0  0  0  0  0  0  0  0  0  0
    0.3001    1.2459    2.4139 H   0  0  0  0  0  0  0  0  0  0  0  0
   -0.5192    3.2082    2.5456 C   0  0  0  0  0  0  0  0  0  0  0  0
   -1.5166    3.3903    2.9518 H   0  0  0  0  0  0  0  0  0  0  0  0
    0.2240    3.3791    3.3257 H   0  0  0  0  0  0  0  0  0  0  0  0
   -0.3477    3.9067    1.7239 H   0  0  0  0  0  0  0  0  0  0  0  0
  5  6  2  0  0  0  0
  5  7  1  0  0  0  0
  2  3  1  0  0  0  0
  2  4  1  0  0  0  0
  2  5  1  0  0  0  0
  1  2  1  0  0  0  0
 26 27  2  0  0  0  0
 26 28  1  0  0  0  0
 23 24  1  0  0  0  0
 23 25  1  0  0  0  0
 20 21  1  0  0  0  0
 20 22  1  0  0  0  0
 20 23  1  0  0  0  0
 17 18  1  0  0  0  0
 17 19  1  0  0  0  0
 17 20  1  0  0  0  0
 14 15  1  0  0  0  0
 14 16  1  0  0  0  0
 14 17  1  0  0  0  0
 11 12  1  0  0  0  0
 11 13  1  0  0  0  0
 11 14  1  0  0  0  0
  9 10  1  0  0  0  0
  9 11  1  0  0  0  0
  9 26  1  0  0  0  0
  7  8  1  0  0  0  0
  7  9  1  0  0  0  0
 30 31  1  0  0  0  0
 30 32  1  0  0  0  0
 30 33  1  0  0  0  0
 28 29  1  0  0  0  0
 28 30  1  0  0  0  0
M  END
$$$$
default_name
  -OEChem-02102213163D

 33 32  0     1  0  0  0  0  0999 V2000
   -3.8420   -3.6918    1.5562 H   0  0  0  0  0  0  0  0  0  0  0  0
   -3.8430   -2.7008    1.1032 C   0  0  0  0  0  0  0  0  0  0  0  0
   -4.5510   -2.0608    1.6242 H   0  0  0  0  0  0  0  0  0  0  0  0
   -4.1140   -2.7798    0.0522 H   0  0  0  0  0  0  0  0  0  0  0  0
   -2.4570   -2.1098    1.2172 C   0  0  0  0  0  0  0  0  0  0  0  0
   -1.5600   -2.7438    1.7572 O   0  0  0  0  0  0  0  0  0  0  0  0
   -2.2870   -0.8898    0.7102 N   0  0  0  0  0  0  0  0  0  0  0  0
   -3.0820   -0.4218    0.2992 H   0  0  0  0  0  0  0  0  0  0  0  0
   -1.0240   -0.1468    0.7262 C   0  0  1  0  0  0  0  0  0  0  0  0
   -0.3583   -0.6100    1.4558 H   0  0  0  0  0  0  0  0  0  0  0  0
   -0.3739   -0.2459   -0.6675 C   0  0  0  0  0  0  0  0  0  0  0  0
    0.4123    0.5086   -0.7382 H   0  0  0  0  0  0  0  0  0  0  0  0
    0.0860   -1.2286   -0.7807 H   0  0  0  0  0  0  0  0  0  0  0  0
   -1.3652   -0.0149   -1.8187 C   0  0  0  0  0  0  0  0  0  0  0  0
   -1.9897    0.8507   -1.5959 H   0  0  0  0  0  0  0  0  0  0  0  0
   -0.8091    0.1730   -2.7390 H   0  0  0  0  0  0  0  0  0  0  0  0
   -2.2689   -1.2372   -2.0165 C   0  0  0  0  0  0  0  0  0  0  0  0
   -1.6575   -2.1138   -2.2327 H   0  0  0  0  0  0  0  0  0  0  0  0
   -2.8444   -1.4147   -1.1075 H   0  0  0  0  0  0  0  0  0  0  0  0
   -3.2263   -0.9911   -3.1809 C   0  0  0  0  0  0  0  0  0  0  0  0
   -3.8507   -0.1271   -2.9591 H   0  0  0  0  0  0  0  0  0  0  0  0
   -2.6532   -0.7960   -4.0859 H   0  0  0  0  0  0  0  0  0  0  0  0
   -4.0917   -2.1532   -3.4133 N   0  0  0  0  0  0  0  0  0  0  0  0
   -4.7187   -1.9508   -4.1780 H   0  0  0  0  0  0  0  0  0  0  0  0
   -3.5189   -2.9505   -3.6510 H   0  0  0  0  0  0  0  0  0  0  0  0
   -1.2712    1.3099    1.1517 C   0  0  0  0  0  0  0  0  0  0  0  0
   -2.2039    1.9448    0.6639 O   0  0  0  0  0  0  0  0  0  0  0  0
   -0.4306    1.8354    2.0503 N   0  0  0  0  0  0  0  0  0  0  0  0
    0.3001    1.2459    2.4139 H   0  0  0  0  0  0  0  0  0  0  0  0
   -0.5192    3.2082    2.5456 C   0  0  0  0  0  0  0  0  0  0  0  0
   -1.5166    3.3903    2.9518 H   0  0  0  0  0  0  0  0  0  0  0  0
    0.2240    3.3791    3.3257 H   0  0  0  0  0  0  0  0  0  0  0  0
   -0.3477    3.9067    1.7239 H   0  0  0  0  0  0  0  0  0  0  0  0
  5  6  2  0  0  0  0
  5  7  1  0  0  0  0
  2  3  1  0  0  0  0
  2  4  1  0  0  0  0
  2  5  1  0  0  0  0
  1  2  1  0  0  0  0
 26 27  2  0  0  0  0
 26 28  1  0  0  0  0
 23 24  1  0  0  0  0
 23 25  1  0  0  0  0
 20 21  1  0  0  0  0
 20 22  1  0  0  0  0
 20 23  1  0  0  0  0
 17 18  1  0  0  0  0
 17 19  1  0  0  0  0
 17 20  1  0  0  0  0
 14 15  1  0  0  0  0
 14 16  1  0  0  0  0
 14 17  1  0  0  0  0
 11 12  1  0  0  0  0
 11 13  1  0  0  0  0
 11 14  1  0  0  0  0
  9 10  1  0  0  0  0
  9 11  1  0  0  0  0
  9 26  1  0  0  0  0
  7  8  1  0  0  0  0
  7  9  1  0  0  0  0
 30 31  1  0  0  0  0
 30 32  1  0  0  0  0
 30 33  1  0  0  0  0
 28 29  1  0  0  0  0
 28 30  1  0  0  0  0
M  END
$$$$
default_name
  -OEChem-02102213163D

 33 32  0     1  0  0  0  0  0999 V2000
   -3.8420   -3.6918    1.5562 H   0  0  0  0  0  0  0  0  0  0  0  0
   -3.8430   -2.7008    1.1032 C   0  0  0  0  0  0  0  0  0  0  0  0
   -4.5510   -2.0608    1.6242 H   0  0  0  0  0  0  0  0  0  0  0  0
   -4.1140   -2.7798    0.0522 H   0  0  0  0  0  0  0  0  0  0  0  0
   -2.4570   -2.1098    1.2172 C   0  0  0  0  0  0  0  0  0  0  0  0
   -1.5600   -2.7438    1.7572 O   0  0  0  0  0  0  0  0  0  0  0  0
   -2.2870   -0.8898    0.7102 N   0  0  0  0  0  0  0  0  0  0  0  0
   -3.0820   -0.4218    0.2992 H   0  0  0  0  0  0  0  0  0  0  0  0
   -1.0240   -0.1468    0.7262 C   0  0  1  0  0  0  0  0  0  0  0  0
   -0.3583   -0.6100    1.4558 H   0  0  0  0  0  0  0  0  0  0  0  0
   -0.3739   -0.2459   -0.6675 C   0  0  0  0  0  0  0  0  0  0  0  0
    0.4123    0.5086   -0.7382 H   0  0  0  0  0  0  0  0  0  0  0  0
    0.0860   -1.2286   -0.7807 H   0  0  0  0  0  0  0  0  0  0  0  0
   -1.3652   -0.0149   -1.8187 C   0  0  0  0  0  0  0  0  0  0  0  0
   -1.7999    0.9814   -1.7331 H   0  0  0  0  0  0  0  0  0  0  0  0
   -0.8353   -0.0931   -2.7698 H   0  0  0  0  0  0  0  0  0  0  0  0
   -2.4948   -1.0505   -1.7845 C   0  0  0  0  0  0  0  0  0  0  0  0
   -2.0746   -2.0538   -1.8615 H   0  0  0  0  0  0  0  0  0  0  0  0
   -3.0424   -0.9603   -0.8459 H   0  0  0  0  0  0  0  0  0  0  0  0
   -3.4507   -0.8137   -2.9521 C   0  0  0  0  0  0  0  0  0  0  0  0
   -3.8857    0.1808   -2.8671 H   0  0  0  0  0  0  0  0  0  0  0  0
   -2.9020   -0.8858   -3.8896 H   0  0  0  0  0  0  0  0  0  0  0  0
   -4.5333   -1.8044   -2.9630 N   0  0  0  0  0  0  0  0  0  0  0  0
   -5.1516   -1.6099   -3.7368 H   0  0  0  0  0  0  0  0  0  0  0  0
   -4.1371   -2.7269   -3.0738 H   0  0  0  0  0  0  0  0  0  0  0  0
   -1.2712    1.3099    1.1517 C   0  0  0  0  0  0  0  0  0  0  0  0
   -2.2039    1.9448    0.6639 O   0  0  0  0  0  0  0  0  0  0  0  0
   -0.4306    1.8354    2.0503 N   0  0  0  0  0  0  0  0  0  0  0  0
    0.3001    1.2459    2.4139 H   0  0  0  0  0  0  0  0  0  0  0  0
   -0.5192    3.2082    2.5456 C   0  0  0  0  0  0  0  0  0  0  0  0
   -1.5166    3.3903    2.9518 H   0  0  0  0  0  0  0  0  0  0  0  0
    0.2240    3.3791    3.3257 H   0  0  0  0  0  0  0  0  0  0  0  0
   -0.3477    3.9067    1.7239 H   0  0  0  0  0  0  0  0  0  0  0  0
  5  6  2  0  0  0  0
  5  7  1  0  0  0  0
  2  3  1  0  0  0  0
  2  4  1  0  0  0  0
  2  5  1  0  0  0  0
  1  2  1  0  0  0  0
 26 27  2  0  0  0  0
 26 28  1  0  0  0  0
 23 24  1  0  0  0  0
 23 25  1  0  0  0  0
 20 21  1  0  0  0  0
 20 22  1  0  0  0  0
 20 23  1  0  0  0  0
 17 18  1  0  0  0  0
 17 19  1  0  0  0  0
 17 20  1  0  0  0  0
 14 15  1  0  0  0  0
 14 16  1  0  0  0  0
 14 17  1  0  0  0  0
 11 12  1  0  0  0  0
 11 13  1  0  0  0  0
 11 14  1  0  0  0  0
  9 10  1  0  0  0  0
  9 11  1  0  0  0  0
  9 26  1  0  0  0  0
  7  8  1  0  0  0  0
  7  9  1  0  0  0  0
 30 31  1  0  0  0  0
 30 32  1  0  0  0  0
 30 33  1  0  0  0  0
 28 29  1  0  0  0  0
 28 30  1  0  0  0  0
M  END
$$$$
default_name
  -OEChem-02102213163D

 33 32  0     1  0  0  0  0  0999 V2000
   -3.8420   -3.6918    1.5562 H   0  0  0  0  0  0  0  0  0  0  0  0
   -3.8430   -2.7008    1.1032 C   0  0  0  0  0  0  0  0  0  0  0  0
   -4.5510   -2.0608    1.6242 H   0  0  0  0  0  0  0  0  0  0  0  0
   -4.1140   -2.7798    0.0522 H   0  0  0  0  0  0  0  0  0  0  0  0
   -2.4570   -2.1098    1.2172 C   0  0  0  0  0  0  0  0  0  0  0  0
   -1.5600   -2.7438    1.7572 O   0  0  0  0  0  0  0  0  0  0  0  0
   -2.2870   -0.8898    0.7102 N   0  0  0  0  0  0  0  0  0  0  0  0
   -3.0820   -0.4218    0.2992 H   0  0  0  0  0  0  0  0  0  0  0  0
   -1.0240   -0.1468    0.7262 C   0  0  1  0  0  0  0  0  0  0  0  0
   -0.3583   -0.6100    1.4558 H   0  0  0  0  0  0  0  0  0  0  0  0
   -0.3739   -0.2459   -0.6675 C   0  0  0  0  0  0  0  0  0  0  0  0
    0.4123    0.5086   -0.7382 H   0  0  0  0  0  0  0  0  0  0  0  0
    0.0860   -1.2286   -0.7807 H   0  0  0  0  0  0  0  0  0  0  0  0
   -1.3652   -0.0149   -1.8187 C   0  0  0  0  0  0  0  0  0  0  0  0
   -1.5966    1.0479   -1.8947 H   0  0  0  0  0  0  0  0  0  0  0  0
   -0.9134   -0.3501   -2.7541 H   0  0  0  0  0  0  0  0  0  0  0  0
   -2.6678   -0.7877   -1.5828 C   0  0  0  0  0  0  0  0  0  0  0  0
   -2.4515   -1.8530   -1.4967 H   0  0  0  0  0  0  0  0  0  0  0  0
   -3.1353   -0.4394   -0.6613 H   0  0  0  0  0  0  0  0  0  0  0  0
   -3.6243   -0.5607   -2.7519 C   0  0  0  0  0  0  0  0  0  0  0  0
   -3.8564    0.5003   -2.8283 H   0  0  0  0  0  0  0  0  0  0  0  0
   -3.1521   -0.8916   -3.6754 H   0  0  0  0  0  0  0  0  0  0  0  0
   -4.8747   -1.3067   -2.5692 N   0  0  0  0  0  0  0  0  0  0  0  0
   -5.4865   -1.1229   -3.3508 H   0  0  0  0  0  0  0  0  0  0  0  0
   -4.6683   -2.2947   -2.5297 H   0  0  0  0  0  0  0  0  0  0  0  0
   -1.2712    1.3099    1.1517 C   0  0  0  0  0  0  0  0  0  0  0  0
   -2.2039    1.9448    0.6639 O   0  0  0  0  0  0  0  0  0  0  0  0
   -0.4306    1.8354    2.0503 N   0  0  0  0  0  0  0  0  0  0  0  0
    0.3001    1.2459    2.4139 H   0  0  0  0  0  0  0  0  0  0  0  0
   -0.5192    3.2082    2.5456 C   0  0  0  0  0  0  0  0  0  0  0  0
   -1.5166    3.3903    2.9518 H   0  0  0  0  0  0  0  0  0  0  0  0
    0.2240    3.3791    3.3257 H   0  0  0  0  0  0  0  0  0  0  0  0
   -0.3477    3.9067    1.7239 H   0  0  0  0  0  0  0  0  0  0  0  0
  5  6  2  0  0  0  0
  5  7  1  0  0  0  0
  2  3  1  0  0  0  0
  2  4  1  0  0  0  0
  2  5  1  0  0  0  0
  1  2  1  0  0  0  0
 26 27  2  0  0  0  0
 26 28  1  0  0  0  0
 23 24  1  0  0  0  0
 23 25  1  0  0  0  0
 20 21  1  0  0  0  0
 20 22  1  0  0  0  0
 20 23  1  0  0  0  0
 17 18  1  0  0  0  0
 17 19  1  0  0  0  0
 17 20  1  0  0  0  0
 14 15  1  0  0  0  0
 14 16  1  0  0  0  0
 14 17  1  0  0  0  0
 11 12  1  0  0  0  0
 11 13  1  0  0  0  0
 11 14  1  0  0  0  0
  9 10  1  0  0  0  0
  9 11  1  0  0  0  0
  9 26  1  0  0  0  0
  7  8  1  0  0  0  0
  7  9  1  0  0  0  0
 30 31  1  0  0  0  0
 30 32  1  0  0  0  0
 30 33  1  0  0  0  0
 28 29  1  0  0  0  0
 28 30  1  0  0  0  0
M  END
$$$$
default_name
  -OEChem-02102213163D

 33 32  0     1  0  0  0  0  0999 V2000
   -3.8420   -3.6918    1.5562 H   0  0  0  0  0  0  0  0  0  0  0  0
   -3.8430   -2.7008    1.1032 C   0  0  0  0  0  0  0  0  0  0  0  0
   -4.5510   -2.0608    1.6242 H   0  0  0  0  0  0  0  0  0  0  0  0
   -4.1140   -2.7798    0.0522 H   0  0  0  0  0  0  0  0  0  0  0  0
   -2.4570   -2.1098    1.2172 C   0  0  0  0  0  0  0  0  0  0  0  0
   -1.5600   -2.7438    1.7572 O   0  0  0  0  0  0  0  0  0  0  0  0
   -2.2870   -0.8898    0.7102 N   0  0  0  0  0  0  0  0  0  0  0  0
   -3.0820   -0.4218    0.2992 H   0  0  0  0  0  0  0  0  0  0  0  0
   -1.0240   -0.1468    0.7262 C   0  0  1  0  0  0  0  0  0  0  0  0
   -0.3583   -0.6100    1.4558 H   0  0  0  0  0  0  0  0  0  0  0  0
   -0.3739   -0.2459   -0.6675 C   0  0  0  0  0  0  0  0  0  0  0  0
    0.4123    0.5086   -0.7382 H   0  0  0  0  0  0  0  0  0  0  0  0
    0.0860   -1.2286   -0.7807 H   0  0  0  0  0  0  0  0  0  0  0  0
   -1.3652   -0.0149   -1.8187 C   0  0  0  0  0  0  0  0  0  0  0  0
   -1.3937    1.0457   -2.0699 H   0  0  0  0  0  0  0  0  0  0  0  0
   -1.0381   -0.5806   -2.6930 H   0  0  0  0  0  0  0  0  0  0  0  0
   -2.7761   -0.4666   -1.4251 C   0  0  0  0  0  0  0  0  0  0  0  0
   -2.7624   -1.5250   -1.1632 H   0  0  0  0  0  0  0  0  0  0  0  0
   -3.1169    0.1126   -0.5664 H   0  0  0  0  0  0  0  0  0  0  0  0
   -3.7350   -0.2492   -2.5940 C   0  0  0  0  0  0  0  0  0  0  0  0
   -3.7645    0.8098   -2.8453 H   0  0  0  0  0  0  0  0  0  0  0  0
   -3.3864   -0.8129   -3.4579 H   0  0  0  0  0  0  0  0  0  0  0  0
   -5.0926   -0.6940   -2.2586 N   0  0  0  0  0  0  0  0  0  0  0  0
   -5.7005   -0.5232   -3.0461 H   0  0  0  0  0  0  0  0  0  0  0  0
   -5.0765   -1.6833   -2.0555 H   0  0  0  0  0  0  0  0  0  0  0  0
   -1.2712    1.3099    1.1517 C   0  0  0  0  0  0  0  0  0  0  0  0
   -2.2039    1.9448    0.6639 O   0  0  0  0  0  0  0  0  0  0  0  0
   -0.4306    1.8354    2.0503 N   0  0  0  0  0  0  0  0  0  0  0  0
    0.3001    1.2459    2.4139 H   0  0  0  0  0  0  0  0  0  0  0  0
   -0.5192    3.2082    2.5456 C   0  0  0  0  0  0  0  0  0  0  0  0
   -1.5166    3.3903    2.9518 H   0  0  0  0  0  0  0  0  0  0  0  0
    0.2240    3.3791    3.3257 H   0  0  0  0  0  0  0  0  0  0  0  0
   -0.3477    3.9067    1.7239 H   0  0  0  0  0  0  0  0  0  0  0  0
  5  6  2  0  0  0  0
  5  7  1  0  0  0  0
  2  3  1  0  0  0  0
  2  4  1  0  0  0  0
  2  5  1  0  0  0  0
  1  2  1  0  0  0  0
 26 27  2  0  0  0  0
 26 28  1  0  0  0  0
 23 24  1  0  0  0  0
 23 25  1  0  0  0  0
 20 21  1  0  0  0  0
 20 22  1  0  0  0  0
 20 23  1  0  0  0  0
 17 18  1  0  0  0  0
 17 19  1  0  0  0  0
 17 20  1  0  0  0  0
 14 15  1  0  0  0  0
 14 16  1  0  0  0  0
 14 17  1  0  0  0  0
 11 12  1  0  0  0  0
 11 13  1  0  0  0  0
 11 14  1  0  0  0  0
  9 10  1  0  0  0  0
  9 11  1  0  0  0  0
  9 26  1  0  0  0  0
  7  8  1  0  0  0  0
  7  9  1  0  0  0  0
 30 31  1  0  0  0  0
 30 32  1  0  0  0  0
 30 33  1  0  0  0  0
 28 29  1  0  0  0  0
 28 30  1  0  0  0  0
M  END
$$$$
default_name
  -OEChem-02102213163D

 33 32  0     1  0  0  0  0  0999 V2000
   -3.8420   -3.6918    1.5562 H   0  0  0  0  0  0  0  0  0  0  0  0
   -3.8430   -2.7008    1.1032 C   0  0  0  0  0  0  0  0  0  0  0  0
   -4.5510   -2.0608    1.6242 H   0  0  0  0  0  0  0  0  0  0  0  0
   -4.1140   -2.7798    0.0522 H   0  0  0  0  0  0  0  0  0  0  0  0
   -2.4570   -2.1098    1.2172 C   0  0  0  0  0  0  0  0  0  0  0  0
   -1.5600   -2.7438    1.7572 O   0  0  0  0  0  0  0  0  0  0  0  0
   -2.2870   -0.8898    0.7102 N   0  0  0  0  0  0  0  0  0  0  0  0
   -3.0820   -0.4218    0.2992 H   0  0  0  0  0  0  0  0  0  0  0  0
   -1.0240   -0.1468    0.7262 C   0  0  1  0  0  0  0  0  0  0  0  0
   -0.3583   -0.6100    1.4558 H   0  0  0  0  0  0  0  0  0  0  0  0
   -0.3739   -0.2459   -0.6675 C   0  0  0  0  0  0  0  0  0  0  0  0
    0.4123    0.5086   -0.7382 H   0  0  0  0  0  0  0  0  0  0  0  0
    0.0860   -1.2286   -0.7807 H   0  0  0  0  0  0  0  0  0  0  0  0
   -1.3652   -0.0149   -1.8187 C   0  0  0  0  0  0  0  0  0  0  0  0
   -1.2049    0.9751   -2.2467 H   0  0  0  0  0  0  0  0  0  0  0  0
   -1.2008   -0.7689   -2.5907 H   0  0  0  0  0  0  0  0  0  0  0  0
   -2.8123   -0.1091   -1.3221 C   0  0  0  0  0  0  0  0  0  0  0  0
   -2.9861   -1.0922   -0.8837 H   0  0  0  0  0  0  0  0  0  0  0  0
   -2.9884    0.6581   -0.5676 H   0  0  0  0  0  0  0  0  0  0  0  0
   -3.7755    0.0994   -2.4892 C   0  0  0  0  0  0  0  0  0  0  0  0
   -3.6164    1.0880   -2.9170 H   0  0  0  0  0  0  0  0  0  0  0  0
   -3.5891   -0.6551   -3.2517 H   0  0  0  0  0  0  0  0  0  0  0  0
   -5.1722   -0.0080   -2.0524 N   0  0  0  0  0  0  0  0  0  0  0  0
   -5.7791    0.1485   -2.8437 H   0  0  0  0  0  0  0  0  0  0  0  0
   -5.3338   -0.9345   -1.6837 H   0  0  0  0  0  0  0  0  0  0  0  0
   -1.2712    1.3099    1.1517 C   0  0  0  0  0  0  0  0  0  0  0  0
   -2.2039    1.9448    0.6639 O   0  0  0  0  0  0  0  0  0  0  0  0
   -0.4306    1.8354    2.0503 N   0  0  0  0  0  0  0  0  0  0  0  0
    0.3001    1.2459    2.4139 H   0  0  0  0  0  0  0  0  0  0  0  0
   -0.5192    3.2082    2.5456 C   0  0  0  0  0  0  0  0  0  0  0  0
   -1.5166    3.3903    2.9518 H   0  0  0  0  0  0  0  0  0  0  0  0
    0.2240    3.3791    3.3257 H   0  0  0  0  0  0  0  0  0  0  0  0
   -0.3477    3.9067    1.7239 H   0  0  0  0  0  0  0  0  0  0  0  0
  5  6  2  0  0  0  0
  5  7  1  0  0  0  0
  2  3  1  0  0  0  0
  2  4  1  0  0  0  0
  2  5  1  0  0  0  0
  1  2  1  0  0  0  0
 26 27  2  0  0  0  0
 26 28  1  0  0  0  0
 23 24  1  0  0  0  0
 23 25  1  0  0  0  0
 20 21  1  0  0  0  0
 20 22  1  0  0  0  0
 20 23  1  0  0  0  0
 17 18  1  0  0  0  0
 17 19  1  0  0  0  0
 17 20  1  0  0  0  0
 14 15  1  0  0  0  0
 14 16  1  0  0  0  0
 14 17  1  0  0  0  0
 11 12  1  0  0  0  0
 11 13  1  0  0  0  0
 11 14  1  0  0  0  0
  9 10  1  0  0  0  0
  9 11  1  0  0  0  0
  9 26  1  0  0  0  0
  7  8  1  0  0  0  0
  7  9  1  0  0  0  0
 30 31  1  0  0  0  0
 30 32  1  0  0  0  0
 30 33  1  0  0  0  0
 28 29  1  0  0  0  0
 28 30  1  0  0  0  0
M  END
$$$$
default_name
  -OEChem-02102213163D

 33 32  0     1  0  0  0  0  0999 V2000
   -3.8420   -3.6918    1.5562 H   0  0  0  0  0  0  0  0  0  0  0  0
   -3.8430   -2.7008    1.1032 C   0  0  0  0  0  0  0  0  0  0  0  0
   -4.5510   -2.0608    1.6242 H   0  0  0  0  0  0  0  0  0  0  0  0
   -4.1140   -2.7798    0.0522 H   0  0  0  0  0  0  0  0  0  0  0  0
   -2.4570   -2.1098    1.2172 C   0  0  0  0  0  0  0  0  0  0  0  0
   -1.5600   -2.7438    1.7572 O   0  0  0  0  0  0  0  0  0  0  0  0
   -2.2870   -0.8898    0.7102 N   0  0  0  0  0  0  0  0  0  0  0  0
   -3.0820   -0.4218    0.2992 H   0  0  0  0  0  0  0  0  0  0  0  0
   -1.0240   -0.1468    0.7262 C   0  0  1  0  0  0  0  0  0  0  0  0
   -0.3583   -0.6100    1.4558 H   0  0  0  0  0  0  0  0  0  0  0  0
   -0.3739   -0.2459   -0.6675 C   0  0  0  0  0  0  0  0  0  0  0  0
    0.4123    0.5086   -0.7382 H   0  0  0  0  0  0  0  0  0  0  0  0
    0.0860   -1.2286   -0.7807 H   0  0  0  0  0  0  0  0  0  0  0  0
   -1.3652   -0.0149   -1.8187 C   0  0  0  0  0  0  0  0  0  0  0  0
   -1.0431    0.8407   -2.4130 H   0  0  0  0  0  0  0  0  0  0  0  0
   -1.3906   -0.9021   -2.4540 H   0  0  0  0  0  0  0  0  0  0  0  0
   -2.7740    0.2605   -1.2810 C   0  0  0  0  0  0  0  0  0  0  0  0
   -3.1074   -0.5841   -0.6773 H   0  0  0  0  0  0  0  0  0  0  0  0
   -2.7586    1.1599   -0.6648 H   0  0  0  0  0  0  0  0  0  0  0  0
   -3.7429    0.4616   -2.4446 C   0  0  0  0  0  0  0  0  0  0  0  0
   -3.4223    1.3161   -3.0384 H   0  0  0  0  0  0  0  0  0  0  0  0
   -3.7462   -0.4289   -3.0710 H   0  0  0  0  0  0  0  0  0  0  0  0
   -5.1081    0.7044   -1.9646 N   0  0  0  0  0  0  0  0  0  0  0  0
   -5.7169    0.8463   -2.7572 H   0  0  0  0  0  0  0  0  0  0  0  0
   -5.4226   -0.0992   -1.4396 H   0  0  0  0  0  0  0  0  0  0  0  0
   -1.2712    1.3099    1.1517 C   0  0  0  0  0  0  0  0  0  0  0  0
   -2.2039    1.9448    0.6639 O   0  0  0  0  0  0  0  0  0  0  0  0
   -0.4306    1.8354    2.0503 N   0  0  0  0  0  0  0  0  0  0  0  0
    0.3001    1.2459    2.4139 H   0  0  0  0  0  0  0  0  0  0  0  0
   -0.5192    3.2082    2.5456 C   0  0  0  0  0  0  0  0  0  0  0  0
   -1.5166    3.3903    2.9518 H   0  0  0  0  0  0  0  0  0  0  0  0
    0.2240    3.3791    3.3257 H   0  0  0  0  0  0  0  0  0  0  0  0
   -0.3477    3.9067    1.7239 H   0  0  0  0  0  0  0  0  0  0  0  0
  5  6  2  0  0  0  0
  5  7  1  0  0  0  0
  2  3  1  0  0  0  0
  2  4  1  0  0  0  0
  2  5  1  0  0  0  0
  1  2  1  0  0  0  0
 26 27  2  0  0  0  0
 26 28  1  0  0  0  0
 23 24  1  0  0  0  0
 23 25  1  0  0  0  0
 20 21  1  0  0  0  0
 20 22  1  0  0  0  0
 20 23  1  0  0  0  0
 17 18  1  0  0  0  0
 17 19  1  0  0  0  0
 17 20  1  0  0  0  0
 14 15  1  0  0  0  0
 14 16  1  0  0  0  0
 14 17  1  0  0  0  0
 11 12  1  0  0  0  0
 11 13  1  0  0  0  0
 11 14  1  0  0  0  0
  9 10  1  0  0  0  0
  9 11  1  0  0  0  0
  9 26  1  0  0  0  0
  7  8  1  0  0  0  0
  7  9  1  0  0  0  0
 30 31  1  0  0  0  0
 30 32  1  0  0  0  0
 30 33  1  0  0  0  0
 28 29  1  0  0  0  0
 28 30  1  0  0  0  0
M  END
$$$$
default_name
  -OEChem-02102213163D

 33 32  0     1  0  0  0  0  0999 V2000
   -3.8420   -3.6918    1.5562 H   0  0  0  0  0  0  0  0  0  0  0  0
   -3.8430   -2.7008    1.1032 C   0  0  0  0  0  0  0  0  0  0  0  0
   -4.5510   -2.0608    1.6242 H   0  0  0  0  0  0  0  0  0  0  0  0
   -4.1140   -2.7798    0.0522 H   0  0  0  0  0  0  0  0  0  0  0  0
   -2.4570   -2.1098    1.2172 C   0  0  0  0  0  0  0  0  0  0  0  0
   -1.5600   -2.7438    1.7572 O   0  0  0  0  0  0  0  0  0  0  0  0
   -2.2870   -0.8898    0.7102 N   0  0  0  0  0  0  0  0  0  0  0  0
   -3.0820   -0.4218    0.2992 H   0  0  0  0  0  0  0  0  0  0  0  0
   -1.0240   -0.1468    0.7262 C   0  0  1  0  0  0  0  0  0  0  0  0
   -0.3583   -0.6100    1.4558 H   0  0  0  0  0  0  0  0  0  0  0  0
   -0.3739   -0.2459   -0.6675 C   0  0  0  0  0  0  0  0  0  0  0  0
    0.4123    0.5086   -0.7382 H   0  0  0  0  0  0  0  0  0  0  0  0
    0.0860   -1.2286   -0.7807 H   0  0  0  0  0  0  0  0  0  0  0  0
   -1.3652   -0.0149   -1.8187 C   0  0  0  0  0  0  0  0  0  0  0  0
   -0.9193    0.6517   -2.5574 H   0  0  0  0  0  0  0  0  0  0  0  0
   -1.5944   -0.9712   -2.2924 H   0  0  0  0  0  0  0  0  0  0  0  0
   -2.6637    0.6168   -1.3045 C   0  0  0  0  0  0  0  0  0  0  0  0
   -3.1180   -0.0354   -0.5580 H   0  0  0  0  0  0  0  0  0  0  0  0
   -2.4430    1.5838   -0.8514 H   0  0  0  0  0  0  0  0  0  0  0  0
   -3.6394    0.8125   -2.4633 C   0  0  0  0  0  0  0  0  0  0  0  0
   -3.1952    1.4785   -3.2013 H   0  0  0  0  0  0  0  0  0  0  0  0
   -3.8471   -0.1499   -2.9282 H   0  0  0  0  0  0  0  0  0  0  0  0
   -4.9046    1.3948   -2.0013 N   0  0  0  0  0  0  0  0  0  0  0  0
   -5.5182    1.5227   -2.7926 H   0  0  0  0  0  0  0  0  0  0  0  0
   -5.3370    0.7656   -1.3398 H   0  0  0  0  0  0  0  0  0  0  0  0
   -1.2712    1.3099    1.1517 C   0  0  0  0  0  0  0  0  0  0  0  0
   -2.2039    1.9448    0.6639 O   0  0  0  0  0  0  0  0  0  0  0  0
   -0.4306    1.8354    2.0503 N   0  0  0  0  0  0  0  0  0  0  0  0
    0.3001    1.2459    2.4139 H   0  0  0  0  0  0  0  0  0  0  0  0
   -0.5192    3.2082    2.5456 C   0  0  0  0  0  0  0  0  0  0  0  0
   -1.5166    3.3903    2.9518 H   0  0  0  0  0  0  0  0  0  0  0  0
    0.2240    3.3791    3.3257 H   0  0  0  0  0  0  0  0  0  0  0  0
   -0.3477    3.9067    1.7239 H   0  0  0  0  0  0  0  0  0  0  0  0
  5  6  2  0  0  0  0
  5  7  1  0  0  0  0
  2  3  1  0  0  0  0
  2  4  1  0  0  0  0
  2  5  1  0  0  0  0
  1  2  1  0  0  0  0
 26 27  2  0  0  0  0
 26 28  1  0  0  0  0
 23 24  1  0  0  0  0
 23 25  1  0  0  0  0
 20 21  1  0  0  0  0
 20 22  1  0  0  0  0
 20 23  1  0  0  0  0
 17 18  1  0  0  0  0
 17 19  1  0  0  0  0
 17 20  1  0  0  0  0
 14 15  1  0  0  0  0
 14 16  1  0  0  0  0
 14 17  1  0  0  0  0
 11 12  1  0  0  0  0
 11 13  1  0  0  0  0
 11 14  1  0  0  0  0
  9 10  1  0  0  0  0
  9 11  1  0  0  0  0
  9 26  1  0  0  0  0
  7  8  1  0  0  0  0
  7  9  1  0  0  0  0
 30 31  1  0  0  0  0
 30 32  1  0  0  0  0
 30 33  1  0  0  0  0
 28 29  1  0  0  0  0
 28 30  1  0  0  0  0
M  END
$$$$
default_name
  -OEChem-02102213163D

 33 32  0     1  0  0  0  0  0999 V2000
   -3.8420   -3.6918    1.5562 H   0  0  0  0  0  0  0  0  0  0  0  0
   -3.8430   -2.7008    1.1032 C   0  0  0  0  0  0  0  0  0  0  0  0
   -4.5510   -2.0608    1.6242 H   0  0  0  0  0  0  0  0  0  0  0  0
   -4.1140   -2.7798    0.0522 H   0  0  0  0  0  0  0  0  0  0  0  0
   -2.4570   -2.1098    1.2172 C   0  0  0  0  0  0  0  0  0  0  0  0
   -1.5600   -2.7438    1.7572 O   0  0  0  0  0  0  0  0  0  0  0  0
   -2.2870   -0.8898    0.7102 N   0  0  0  0  0  0  0  0  0  0  0  0
   -3.0820   -0.4218    0.2992 H   0  0  0  0  0  0  0  0  0  0  0  0
   -1.0240   -0.1468    0.7262 C   0  0  1  0  0  0  0  0  0  0  0  0
   -0.3583   -0.6100    1.4558 H   0  0  0  0  0  0  0  0  0  0  0  0
   -0.3739   -0.2459   -0.6675 C   0  0  0  0  0  0  0  0  0  0  0  0
    0.4123    0.5086   -0.7382 H   0  0  0  0  0  0  0  0  0  0  0  0
    0.0860   -1.2286   -0.7807 H   0  0  0  0  0  0  0  0  0  0  0  0
   -1.3652   -0.0149   -1.8187 C   0  0  0  0  0  0  0  0  0  0  0  0
   -0.8421    0.4211   -2.6703 H   0  0  0  0  0  0  0  0  0  0  0  0
   -1.7983   -0.9714   -2.1169 H   0  0  0  0  0  0  0  0  0  0  0  0
   -2.4890    0.9358   -1.3909 C   0  0  0  0  0  0  0  0  0  0  0  0
   -3.0173    0.5166   -0.5340 H   0  0  0  0  0  0  0  0  0  0  0  0
   -2.0633    1.9009   -1.1147 H   0  0  0  0  0  0  0  0  0  0  0  0
   -3.4721    1.1283   -2.5439 C   0  0  0  0  0  0  0  0  0  0  0  0
   -2.9507    1.5641   -3.3946 H   0  0  0  0  0  0  0  0  0  0  0  0
   -3.8849    0.1631   -2.8328 H   0  0  0  0  0  0  0  0  0  0  0  0
   -4.5756    2.0161   -2.1599 N   0  0  0  0  0  0  0  0  0  0  0  0
   -5.1964    2.1317   -2.9475 H   0  0  0  0  0  0  0  0  0  0  0  0
   -5.0827    1.6010   -1.3912 H   0  0  0  0  0  0  0  0  0  0  0  0
   -1.2712    1.3099    1.1517 C   0  0  0  0  0  0  0  0  0  0  0  0
   -2.2039    1.9448    0.6639 O   0  0  0  0  0  0  0  0  0  0  0  0
   -0.4306    1.8354    2.0503 N   0  0  0  0  0  0  0  0  0  0  0  0
    0.3001    1.2459    2.4139 H   0  0  0  0  0  0  0  0  0  0  0  0
   -0.5192    3.2082    2.5456 C   0  0  0  0  0  0  0  0  0  0  0  0
   -1.5166    3.3903    2.9518 H   0  0  0  0  0  0  0  0  0  0  0  0
    0.2240    3.3791    3.3257 H   0  0  0  0  0  0  0  0  0  0  0  0
   -0.3477    3.9067    1.7239 H   0  0  0  0  0  0  0  0  0  0  0  0
  5  6  2  0  0  0  0
  5  7  1  0  0  0  0
  2  3  1  0  0  0  0
  2  4  1  0  0  0  0
  2  5  1  0  0  0  0
  1  2  1  0  0  0  0
 26 27  2  0  0  0  0
 26 28  1  0  0  0  0
 23 24  1  0  0  0  0
 23 25  1  0  0  0  0
 20 21  1  0  0  0  0
 20 22  1  0  0  0  0
 20 23  1  0  0  0  0
 17 18  1  0  0  0  0
 17 19  1  0  0  0  0
 17 20  1  0  0  0  0
 14 15  1  0  0  0  0
 14 16  1  0  0  0  0
 14 17  1  0  0  0  0
 11 12  1  0  0  0  0
 11 13  1  0  0  0  0
 11 14  1  0  0  0  0
  9 10  1  0  0  0  0
  9 11  1  0  0  0  0
  9 26  1  0  0  0  0
  7  8  1  0  0  0  0
  7  9  1  0  0  0  0
 30 31  1  0  0  0  0
 30 32  1  0  0  0  0
 30 33  1  0  0  0  0
 28 29  1  0  0  0  0
 28 30  1  0  0  0  0
M  END
$$$$
default_name
  -OEChem-02102213163D

 33 32  0     1  0  0  0  0  0999 V2000
   -3.8420   -3.6918    1.5562 H   0  0  0  0  0  0  0  0  0  0  0  0
   -3.8430   -2.7008    1.1032 C   0  0  0  0  0  0  0  0  0  0  0  0
   -4.5510   -2.0608    1.6242 H   0  0  0  0  0  0  0  0  0  0  0  0
   -4.1140   -2.7798    0.0522 H   0  0  0  0  0  0  0  0  0  0  0  0
   -2.4570   -2.1098    1.2172 C   0  0  0  0  0  0  0  0  0  0  0  0
   -1.5600   -2.7438    1.7572 O   0  0  0  0  0  0  0  0  0  0  0  0
   -2.2870   -0.8898    0.7102 N   0  0  0  0  0  0  0  0  0  0  0  0
   -3.0820   -0.4218    0.2992 H   0  0  0  0  0  0  0  0  0  0  0  0
   -1.0240   -0.1468    0.7262 C   0  0  1  0  0  0  0  0  0  0  0  0
   -0.3583   -0.6100    1.4558 H   0  0  0  0  0  0  0  0  0  0  0  0
   -0.3739   -0.2459   -0.6675 C   0  0  0  0  0  0  0  0  0  0  0  0
    0.4123    0.5086   -0.7382 H   0  0  0  0  0  0  0  0  0  0  0  0
    0.0860   -1.2286   -0.7807 H   0  0  0  0  0  0  0  0  0  0  0  0
   -1.3652   -0.0149   -1.8187 C   0  0  0  0  0  0  0  0  0  0  0  0
   -0.8165    0.1645   -2.7437 H   0  0  0  0  0  0  0  0  0  0  0  0
   -1.9885   -0.9028   -1.9393 H   0  0  0  0  0  0  0  0  0  0  0  0
   -2.2618    1.1955   -1.5345 C   0  0  0  0  0  0  0  0  0  0  0  0
   -2.8120    1.0343   -0.6069 H   0  0  0  0  0  0  0  0  0  0  0  0
   -1.6453    2.0896   -1.4368 H   0  0  0  0  0  0  0  0  0  0  0  0
   -3.2525    1.3875   -2.6811 C   0  0  0  0  0  0  0  0  0  0  0  0
   -2.7055    1.5671   -3.6052 H   0  0  0  0  0  0  0  0  0  0  0  0
   -3.8570    0.4887   -2.7915 H   0  0  0  0  0  0  0  0  0  0  0  0
   -4.1436    2.5259   -2.4296 N   0  0  0  0  0  0  0  0  0  0  0  0
   -4.7736    2.6316   -3.2112 H   0  0  0  0  0  0  0  0  0  0  0  0
   -4.6771    2.3500   -1.5901 H   0  0  0  0  0  0  0  0  0  0  0  0
   -1.2712    1.3099    1.1517 C   0  0  0  0  0  0  0  0  0  0  0  0
   -2.2039    1.9448    0.6639 O   0  0  0  0  0  0  0  0  0  0  0  0
   -0.4306    1.8354    2.0503 N   0  0  0  0  0  0  0  0  0  0  0  0
    0.3001    1.2459    2.4139 H   0  0  0  0  0  0  0  0  0  0  0  0
   -0.5192    3.2082    2.5456 C   0  0  0  0  0  0  0  0  0  0  0  0
   -1.5166    3.3903    2.9518 H   0  0  0  0  0  0  0  0  0  0  0  0
    0.2240    3.3791    3.3257 H   0  0  0  0  0  0  0  0  0  0  0  0
   -0.3477    3.9067    1.7239 H   0  0  0  0  0  0  0  0  0  0  0  0
  5  6  2  0  0  0  0
  5  7  1  0  0  0  0
  2  3  1  0  0  0  0
  2  4  1  0  0  0  0
  2  5  1  0  0  0  0
  1  2  1  0  0  0  0
 26 27  2  0  0  0  0
 26 28  1  0  0  0  0
 23 24  1  0  0  0  0
 23 25  1  0  0  0  0
 20 21  1  0  0  0  0
 20 22  1  0  0  0  0
 20 23  1  0  0  0  0
 17 18  1  0  0  0  0
 17 19  1  0  0  0  0
 17 20  1  0  0  0  0
 14 15  1  0  0  0  0
 14 16  1  0  0  0  0
 14 17  1  0  0  0  0
 11 12  1  0  0  0  0
 11 13  1  0  0  0  0
 11 14  1  0  0  0  0
  9 10  1  0  0  0  0
  9 11  1  0  0  0  0
  9 26  1  0  0  0  0
  7  8  1  0  0  0  0
  7  9  1  0  0  0  0
 30 31  1  0  0  0  0
 30 32  1  0  0  0  0
 30 33  1  0  0  0  0
 28 29  1  0  0  0  0
 28 30  1  0  0  0  0
M  END
$$$$
default_name
  -OEChem-02102213163D

 33 32  0     1  0  0  0  0  0999 V2000
   -3.8420   -3.6918    1.5562 H   0  0  0  0  0  0  0  0  0  0  0  0
   -3.8430   -2.7008    1.1032 C   0  0  0  0  0  0  0  0  0  0  0  0
   -4.5510   -2.0608    1.6242 H   0  0  0  0  0  0  0  0  0  0  0  0
   -4.1140   -2.7798    0.0522 H   0  0  0  0  0  0  0  0  0  0  0  0
   -2.4570   -2.1098    1.2172 C   0  0  0  0  0  0  0  0  0  0  0  0
   -1.5600   -2.7438    1.7572 O   0  0  0  0  0  0  0  0  0  0  0  0
   -2.2870   -0.8898    0.7102 N   0  0  0  0  0  0  0  0  0  0  0  0
   -3.0820   -0.4218    0.2992 H   0  0  0  0  0  0  0  0  0  0  0  0
   -1.0240   -0.1468    0.7262 C   0  0  1  0  0  0  0  0  0  0  0  0
   -0.3583   -0.6100    1.4558 H   0  0  0  0  0  0  0  0  0  0  0  0
   -0.3739   -0.2459   -0.6675 C   0  0  0  0  0  0  0  0  0  0  0  0
    0.4123    0.5086   -0.7382 H   0  0  0  0  0  0  0  0  0  0  0  0
    0.0860   -1.2286   -0.7807 H   0  0  0  0  0  0  0  0  0  0  0  0
   -1.3652   -0.0149   -1.8187 C   0  0  0  0  0  0  0  0  0  0  0  0
   -0.8445   -0.1006   -2.7729 H   0  0  0  0  0  0  0  0  0  0  0  0
   -2.1520   -0.7700   -1.7719 H   0  0  0  0  0  0  0  0  0  0  0  0
   -1.9975    1.3784   -1.7253 C   0  0  0  0  0  0  0  0  0  0  0  0
   -2.5161    1.4823   -0.7718 H   0  0  0  0  0  0  0  0  0  0  0  0
   -1.2175    2.1371   -1.7957 H   0  0  0  0  0  0  0  0  0  0  0  0
   -2.9954    1.5723   -2.8653 C   0  0  0  0  0  0  0  0  0  0  0  0
   -2.4762    1.4874   -3.8186 H   0  0  0  0  0  0  0  0  0  0  0  0
   -3.7653    0.8046   -2.8071 H   0  0  0  0  0  0  0  0  0  0  0  0
   -3.6378    2.8896   -2.7921 N   0  0  0  0  0  0  0  0  0  0  0  0
   -4.2785    2.9885   -3.5659 H   0  0  0  0  0  0  0  0  0  0  0  0
   -4.1478    2.9617   -1.9231 H   0  0  0  0  0  0  0  0  0  0  0  0
   -1.2712    1.3099    1.1517 C   0  0  0  0  0  0  0  0  0  0  0  0
   -2.2039    1.9448    0.6639 O   0  0  0  0  0  0  0  0  0  0  0  0
   -0.4306    1.8354    2.0503 N   0  0  0  0  0  0  0  0  0  0  0  0
    0.3001    1.2459    2.4139 H   0  0  0  0  0  0  0  0  0  0  0  0
   -0.5192    3.2082    2.5456 C   0  0  0  0  0  0  0  0  0  0  0  0
   -1.5166    3.3903    2.9518 H   0  0  0  0  0  0  0  0  0  0  0  0
    0.2240    3.3791    3.3257 H   0  0  0  0  0  0  0  0  0  0  0  0
   -0.3477    3.9067    1.7239 H   0  0  0  0  0  0  0  0  0  0  0  0
  5  6  2  0  0  0  0
  5  7  1  0  0  0  0
  2  3  1  0  0  0  0
  2  4  1  0  0  0  0
  2  5  1  0  0  0  0
  1  2  1  0  0  0  0
 26 27  2  0  0  0  0
 26 28  1  0  0  0  0
 23 24  1  0  0  0  0
 23 25  1  0  0  0  0
 20 21  1  0  0  0  0
 20 22  1  0  0  0  0
 20 23  1  0  0  0  0
 17 18  1  0  0  0  0
 17 19  1  0  0  0  0
 17 20  1  0  0  0  0
 14 15  1  0  0  0  0
 14 16  1  0  0  0  0
 14 17  1  0  0  0  0
 11 12  1  0  0  0  0
 11 13  1  0  0  0  0
 11 14  1  0  0  0  0
  9 10  1  0  0  0  0
  9 11  1  0  0  0  0
  9 26  1  0  0  0  0
  7  8  1  0  0  0  0
  7  9  1  0  0  0  0
 30 31  1  0  0  0  0
 30 32  1  0  0  0  0
 30 33  1  0  0  0  0
 28 29  1  0  0  0  0
 28 30  1  0  0  0  0
M  END
$$$$
default_name
  -OEChem-02102213163D

 33 32  0     1  0  0  0  0  0999 V2000
   -3.8420   -3.6918    1.5562 H   0  0  0  0  0  0  0  0  0  0  0  0
   -3.8430   -2.7008    1.1032 C   0  0  0  0  0  0  0  0  0  0  0  0
   -4.5510   -2.0608    1.6242 H   0  0  0  0  0  0  0  0  0  0  0  0
   -4.1140   -2.7798    0.0522 H   0  0  0  0  0  0  0  0  0  0  0  0
   -2.4570   -2.1098    1.2172 C   0  0  0  0  0  0  0  0  0  0  0  0
   -1.5600   -2.7438    1.7572 O   0  0  0  0  0  0  0  0  0  0  0  0
   -2.2870   -0.8898    0.7102 N   0  0  0  0  0  0  0  0  0  0  0  0
   -3.0820   -0.4218    0.2992 H   0  0  0  0  0  0  0  0  0  0  0  0
   -1.0240   -0.1468    0.7262 C   0  0  1  0  0  0  0  0  0  0  0  0
   -0.3583   -0.6100    1.4558 H   0  0  0  0  0  0  0  0  0  0  0  0
   -0.3739   -0.2459   -0.6675 C   0  0  0  0  0  0  0  0  0  0  0  0
    0.4123    0.5086   -0.7382 H   0  0  0  0  0  0  0  0  0  0  0  0
    0.0860   -1.2286   -0.7807 H   0  0  0  0  0  0  0  0  0  0  0  0
   -1.3652   -0.0149   -1.8187 C   0  0  0  0  0  0  0  0  0  0  0  0
   -0.9240   -0.3560   -2.7557 H   0  0  0  0  0  0  0  0  0  0  0  0
   -2.2777   -0.5820   -1.6260 H   0  0  0  0  0  0  0  0  0  0  0  0
   -1.7142    1.4719   -1.9505 C   0  0  0  0  0  0  0  0  0  0  0  0
   -2.1499    1.8302   -1.0173 H   0  0  0  0  0  0  0  0  0  0  0  0
   -0.8090    2.0400   -2.1669 H   0  0  0  0  0  0  0  0  0  0  0  0
   -2.7184    1.6702   -3.0842 C   0  0  0  0  0  0  0  0  0  0  0  0
   -2.2785    1.3302   -4.0204 H   0  0  0  0  0  0  0  0  0  0  0  0
   -3.6161    1.0894   -2.8784 H   0  0  0  0  0  0  0  0  0  0  0  0
   -3.0929    3.0822   -3.2226 N   0  0  0  0  0  0  0  0  0  0  0  0
   -3.7448    3.1780   -3.9874 H   0  0  0  0  0  0  0  0  0  0  0  0
   -3.5309    3.3943   -2.3675 H   0  0  0  0  0  0  0  0  0  0  0  0
   -1.2712    1.3099    1.1517 C   0  0  0  0  0  0  0  0  0  0  0  0
   -2.2039    1.9448    0.6639 O   0  0  0  0  0  0  0  0  0  0  0  0
   -0.4306    1.8354    2.0503 N   0  0  0  0  0  0  0  0  0  0  0  0
    0.3001    1.2459    2.4139 H   0  0  0  0  0  0  0  0  0  0  0  0
   -0.5192    3.2082    2.5456 C   0  0  0  0  0  0  0  0  0  0  0  0
   -1.5166    3.3903    2.9518 H   0  0  0  0  0  0  0  0  0  0  0  0
    0.2240    3.3791    3.3257 H   0  0  0  0  0  0  0  0  0  0  0  0
   -0.3477    3.9067    1.7239 H   0  0  0  0  0  0  0  0  0  0  0  0
  5  6  2  0  0  0  0
  5  7  1  0  0  0  0
  2  3  1  0  0  0  0
  2  4  1  0  0  0  0
  2  5  1  0  0  0  0
  1  2  1  0  0  0  0
 26 27  2  0  0  0  0
 26 28  1  0  0  0  0
 23 24  1  0  0  0  0
 23 25  1  0  0  0  0
 20 21  1  0  0  0  0
 20 22  1  0  0  0  0
 20 23  1  0  0  0  0
 17 18  1  0  0  0  0
 17 19  1  0  0  0  0
 17 20  1  0  0  0  0
 14 15  1  0  0  0  0
 14 16  1  0  0  0  0
 14 17  1  0  0  0  0
 11 12  1  0  0  0  0
 11 13  1  0  0  0  0
 11 14  1  0  0  0  0
  9 10  1  0  0  0  0
  9 11  1  0  0  0  0
  9 26  1  0  0  0  0
  7  8  1  0  0  0  0
  7  9  1  0  0  0  0
 30 31  1  0  0  0  0
 30 32  1  0  0  0  0
 30 33  1  0  0  0  0
 28 29  1  0  0  0  0
 28 30  1  0  0  0  0
M  END
$$$$
default_name
  -OEChem-02102213163D

 33 32  0     1  0  0  0  0  0999 V2000
   -3.8420   -3.6918    1.5562 H   0  0  0  0  0  0  0  0  0  0  0  0
   -3.8430   -2.7008    1.1032 C   0  0  0  0  0  0  0  0  0  0  0  0
   -4.5510   -2.0608    1.6242 H   0  0  0  0  0  0  0  0  0  0  0  0
   -4.1140   -2.7798    0.0522 H   0  0  0  0  0  0  0  0  0  0  0  0
   -2.4570   -2.1098    1.2172 C   0  0  0  0  0  0  0  0  0  0  0  0
   -1.5600   -2.7438    1.7572 O   0  0  0  0  0  0  0  0  0  0  0  0
   -2.2870   -0.8898    0.7102 N   0  0  0  0  0  0  0  0  0  0  0  0
   -3.0820   -0.4218    0.2992 H   0  0  0  0  0  0  0  0  0  0  0  0
   -1.0240   -0.1468    0.7262 C   0  0  1  0  0  0  0  0  0  0  0  0
   -0.3583   -0.6100    1.4558 H   0  0  0  0  0  0  0  0  0  0  0  0
   -0.3739   -0.2459   -0.6675 C   0  0  0  0  0  0  0  0  0  0  0  0
    0.4123    0.5086   -0.7382 H   0  0  0  0  0  0  0  0  0  0  0  0
    0.0860   -1.2286   -0.7807 H   0  0  0  0  0  0  0  0  0  0  0  0
   -1.3652   -0.0149   -1.8187 C   0  0  0  0  0  0  0  0  0  0  0  0
   -1.0497   -0.5845   -2.6933 H   0  0  0  0  0  0  0  0  0  0  0  0
   -2.3570   -0.3517   -1.5115 H   0  0  0  0  0  0  0  0  0  0  0  0
   -1.4311    1.4697   -2.1946 C   0  0  0  0  0  0  0  0  0  0  0  0
   -1.7382    2.0542   -1.3268 H   0  0  0  0  0  0  0  0  0  0  0  0
   -0.4477    1.8051   -2.5251 H   0  0  0  0  0  0  0  0  0  0  0  0
   -2.4404    1.6745   -3.3227 C   0  0  0  0  0  0  0  0  0  0  0  0
   -2.1259    1.1064   -4.1967 H   0  0  0  0  0  0  0  0  0  0  0  0
   -3.4195    1.3237   -3.0007 H   0  0  0  0  0  0  0  0  0  0  0  0
   -2.5460    3.0908   -3.6918 N   0  0  0  0  0  0  0  0  0  0  0  0
   -3.2090    3.1872   -4.4469 H   0  0  0  0  0  0  0  0  0  0  0  0
   -2.8684    3.6183   -2.8930 H   0  0  0  0  0  0  0  0  0  0  0  0
   -1.2712    1.3099    1.1517 C   0  0  0  0  0  0  0  0  0  0  0  0
   -2.2039    1.9448    0.6639 O   0  0  0  0  0  0  0  0  0  0  0  0
   -0.4306    1.8354    2.0503 N   0  0  0  0  0  0  0  0  0  0  0  0
    0.3001    1.2459    2.4139 H   0  0  0  0  0  0  0  0  0  0  0  0
   -0.5192    3.2082    2.5456 C   0  0  0  0  0  0  0  0  0  0  0  0
   -1.5166    3.3903    2.9518 H   0  0  0  0  0  0  0  0  0  0  0  0
    0.2240    3.3791    3.3257 H   0  0  0  0  0  0  0  0  0  0  0  0
   -0.3477    3.9067    1.7239 H   0  0  0  0  0  0  0  0  0  0  0  0
  5  6  2  0  0  0  0
  5  7  1  0  0  0  0
  2  3  1  0  0  0  0
  2  4  1  0  0  0  0
  2  5  1  0  0  0  0
  1  2  1  0  0  0  0
 26 27  2  0  0  0  0
 26 28  1  0  0  0  0
 23 24  1  0  0  0  0
 23 25  1  0  0  0  0
 20 21  1  0  0  0  0
 20 22  1  0  0  0  0
 20 23  1  0  0  0  0
 17 18  1  0  0  0  0
 17 19  1  0  0  0  0
 17 20  1  0  0  0  0
 14 15  1  0  0  0  0
 14 16  1  0  0  0  0
 14 17  1  0  0  0  0
 11 12  1  0  0  0  0
 11 13  1  0  0  0  0
 11 14  1  0  0  0  0
  9 10  1  0  0  0  0
  9 11  1  0  0  0  0
  9 26  1  0  0  0  0
  7  8  1  0  0  0  0
  7  9  1  0  0  0  0
 30 31  1  0  0  0  0
 30 32  1  0  0  0  0
 30 33  1  0  0  0  0
 28 29  1  0  0  0  0
 28 30  1  0  0  0  0
M  END
$$$$
default_name
  -OEChem-02102213163D

 33 32  0     1  0  0  0  0  0999 V2000
   -3.8420   -3.6918    1.5562 H   0  0  0  0  0  0  0  0  0  0  0  0
   -3.8430   -2.7008    1.1032 C   0  0  0  0  0  0  0  0  0  0  0  0
   -4.5510   -2.0608    1.6242 H   0  0  0  0  0  0  0  0  0  0  0  0
   -4.1140   -2.7798    0.0522 H   0  0  0  0  0  0  0  0  0  0  0  0
   -2.4570   -2.1098    1.2172 C   0  0  0  0  0  0  0  0  0  0  0  0
   -1.5600   -2.7438    1.7572 O   0  0  0  0  0  0  0  0  0  0  0  0
   -2.2870   -0.8898    0.7102 N   0  0  0  0  0  0  0  0  0  0  0  0
   -3.0820   -0.4218    0.2992 H   0  0  0  0  0  0  0  0  0  0  0  0
   -1.0240   -0.1468    0.7262 C   0  0  1  0  0  0  0  0  0  0  0  0
   -0.3583   -0.6100    1.4558 H   0  0  0  0  0  0  0  0  0  0  0  0
   -0.3739   -0.2459   -0.6675 C   0  0  0  0  0  0  0  0  0  0  0  0
    0.4123    0.5086   -0.7382 H   0  0  0  0  0  0  0  0  0  0  0  0
    0.0860   -1.2286   -0.7807 H   0  0  0  0  0  0  0  0  0  0  0  0
   -1.3652   -0.0149   -1.8187 C   0  0  0  0  0  0  0  0  0  0  0  0
   -1.2129   -0.7704   -2.5900 H   0  0  0  0  0  0  0  0  0  0  0  0
   -2.3844   -0.0948   -1.4363 H   0  0  0  0  0  0  0  0  0  0  0  0
   -1.1677    1.3720   -2.4411 C   0  0  0  0  0  0  0  0  0  0  0  0
   -1.3092    2.1391   -1.6792 H   0  0  0  0  0  0  0  0  0  0  0  0
   -0.1581    1.4483   -2.8460 H   0  0  0  0  0  0  0  0  0  0  0  0
   -2.1803    1.5850   -3.5646 C   0  0  0  0  0  0  0  0  0  0  0  0
   -2.0287    0.8312   -4.3356 H   0  0  0  0  0  0  0  0  0  0  0  0
   -3.1889    1.4914   -3.1655 H   0  0  0  0  0  0  0  0  0  0  0  0
   -2.0343    2.9147   -4.1678 N   0  0  0  0  0  0  0  0  0  0  0  0
   -2.7076    3.0154   -4.9131 H   0  0  0  0  0  0  0  0  0  0  0  0
   -2.2055    3.6185   -3.4637 H   0  0  0  0  0  0  0  0  0  0  0  0
   -1.2712    1.3099    1.1517 C   0  0  0  0  0  0  0  0  0  0  0  0
   -2.2039    1.9448    0.6639 O   0  0  0  0  0  0  0  0  0  0  0  0
   -0.4306    1.8354    2.0503 N   0  0  0  0  0  0  0  0  0  0  0  0
    0.3001    1.2459    2.4139 H   0  0  0  0  0  0  0  0  0  0  0  0
   -0.5192    3.2082    2.5456 C   0  0  0  0  0  0  0  0  0  0  0  0
   -1.5166    3.3903    2.9518 H   0  0  0  0  0  0  0  0  0  0  0  0
    0.2240    3.3791    3.3257 H   0  0  0  0  0  0  0  0  0  0  0  0
   -0.3477    3.9067    1.7239 H   0  0  0  0  0  0  0  0  0  0  0  0
  5  6  2  0  0  0  0
  5  7  1  0  0  0  0
  2  3  1  0  0  0  0
  2  4  1  0  0  0  0
  2  5  1  0  0  0  0
  1  2  1  0  0  0  0
 26 27  2  0  0  0  0
 26 28  1  0  0  0  0
 23 24  1  0  0  0  0
 23 25  1  0  0  0  0
 20 21  1  0  0  0  0
 20 22  1  0  0  0  0
 20 23  1  0  0  0  0
 17 18  1  0  0  0  0
 17 19  1  0  0  0  0
 17 20  1  0  0  0  0
 14 15  1  0  0  0  0
 14 16  1  0  0  0  0
 14 17  1  0  0  0  0
 11 12  1  0  0  0  0
 11 13  1  0  0  0  0
 11 14  1  0  0  0  0
  9 10  1  0  0  0  0
  9 11  1  0  0  0  0
  9 26  1  0  0  0  0
  7  8  1  0  0  0  0
  7  9  1  0  0  0  0
 30 31  1  0  0  0  0
 30 32  1  0  0  0  0
 30 33  1  0  0  0  0
 28 29  1  0  0  0  0
 28 30  1  0  0  0  0
M  END
$$$$
default_name
  -OEChem-02102213163D

 33 32  0     1  0  0  0  0  0999 V2000
   -3.8420   -3.6918    1.5562 H   0  0  0  0  0  0  0  0  0  0  0  0
   -3.8430   -2.7008    1.1032 C   0  0  0  0  0  0  0  0  0  0  0  0
   -4.5510   -2.0608    1.6242 H   0  0  0  0  0  0  0  0  0  0  0  0
   -4.1140   -2.7798    0.0522 H   0  0  0  0  0  0  0  0  0  0  0  0
   -2.4570   -2.1098    1.2172 C   0  0  0  0  0  0  0  0  0  0  0  0
   -1.5600   -2.7438    1.7572 O   0  0  0  0  0  0  0  0  0  0  0  0
   -2.2870   -0.8898    0.7102 N   0  0  0  0  0  0  0  0  0  0  0  0
   -3.0820   -0.4218    0.2992 H   0  0  0  0  0  0  0  0  0  0  0  0
   -1.0240   -0.1468    0.7262 C   0  0  1  0  0  0  0  0  0  0  0  0
   -0.3583   -0.6100    1.4558 H   0  0  0  0  0  0  0  0  0  0  0  0
   -0.3739   -0.2459   -0.6675 C   0  0  0  0  0  0  0  0  0  0  0  0
    0.4123    0.5086   -0.7382 H   0  0  0  0  0  0  0  0  0  0  0  0
    0.0860   -1.2286   -0.7807 H   0  0  0  0  0  0  0  0  0  0  0  0
   -1.3652   -0.0149   -1.8187 C   0  0  0  0  0  0  0  0  0  0  0  0
   -1.4027   -0.9011   -2.4528 H   0  0  0  0  0  0  0  0  0  0  0  0
   -2.3582    0.1712   -1.4055 H   0  0  0  0  0  0  0  0  0  0  0  0
   -0.9417    1.1853   -2.6731 C   0  0  0  0  0  0  0  0  0  0  0  0
   -0.8920    2.0791   -2.0504 H   0  0  0  0  0  0  0  0  0  0  0  0
    0.0398    0.9940   -3.1077 H   0  0  0  0  0  0  0  0  0  0  0  0
   -1.9558    1.4076   -3.7935 C   0  0  0  0  0  0  0  0  0  0  0  0
   -1.9937    0.5233   -4.4276 H   0  0  0  0  0  0  0  0  0  0  0  0
   -2.9401    1.5812   -3.3617 H   0  0  0  0  0  0  0  0  0  0  0  0
   -1.5927    2.5659   -4.6180 N   0  0  0  0  0  0  0  0  0  0  0  0
   -2.2746    2.6745   -5.3543 H   0  0  0  0  0  0  0  0  0  0  0  0
   -1.5873    3.3949   -4.0408 H   0  0  0  0  0  0  0  0  0  0  0  0
   -1.2712    1.3099    1.1517 C   0  0  0  0  0  0  0  0  0  0  0  0
   -2.2039    1.9448    0.6639 O   0  0  0  0  0  0  0  0  0  0  0  0
   -0.4306    1.8354    2.0503 N   0  0  0  0  0  0  0  0  0  0  0  0
    0.3001    1.2459    2.4139 H   0  0  0  0  0  0  0  0  0  0  0  0
   -0.5192    3.2082    2.5456 C   0  0  0  0  0  0  0  0  0  0  0  0
   -1.5166    3.3903    2.9518 H   0  0  0  0  0  0  0  0  0  0  0  0
    0.2240    3.3791    3.3257 H   0  0  0  0  0  0  0  0  0  0  0  0
   -0.3477    3.9067    1.7239 H   0  0  0  0  0  0  0  0  0  0  0  0
  5  6  2  0  0  0  0
  5  7  1  0  0  0  0
  2  3  1  0  0  0  0
  2  4  1  0  0  0  0
  2  5  1  0  0  0  0
  1  2  1  0  0  0  0
 26 27  2  0  0  0  0
 26 28  1  0  0  0  0
 23 24  1  0  0  0  0
 23 25  1  0  0  0  0
 20 21  1  0  0  0  0
 20 22  1  0  0  0  0
 20 23  1  0  0  0  0
 17 18  1  0  0  0  0
 17 19  1  0  0  0  0
 17 20  1  0  0  0  0
 14 15  1  0  0  0  0
 14 16  1  0  0  0  0
 14 17  1  0  0  0  0
 11 12  1  0  0  0  0
 11 13  1  0  0  0  0
 11 14  1  0  0  0  0
  9 10  1  0  0  0  0
  9 11  1  0  0  0  0
  9 26  1  0  0  0  0
  7  8  1  0  0  0  0
  7  9  1  0  0  0  0
 30 31  1  0  0  0  0
 30 32  1  0  0  0  0
 30 33  1  0  0  0  0
 28 29  1  0  0  0  0
 28 30  1  0  0  0  0
M  END
$$$$
default_name
  -OEChem-02102213163D

 33 32  0     1  0  0  0  0  0999 V2000
   -3.8420   -3.6918    1.5562 H   0  0  0  0  0  0  0  0  0  0  0  0
   -3.8430   -2.7008    1.1032 C   0  0  0  0  0  0  0  0  0  0  0  0
   -4.5510   -2.0608    1.6242 H   0  0  0  0  0  0  0  0  0  0  0  0
   -4.1140   -2.7798    0.0522 H   0  0  0  0  0  0  0  0  0  0  0  0
   -2.4570   -2.1098    1.2172 C   0  0  0  0  0  0  0  0  0  0  0  0
   -1.5600   -2.7438    1.7572 O   0  0  0  0  0  0  0  0  0  0  0  0
   -2.2870   -0.8898    0.7102 N   0  0  0  0  0  0  0  0  0  0  0  0
   -3.0820   -0.4218    0.2992 H   0  0  0  0  0  0  0  0  0  0  0  0
   -1.0240   -0.1468    0.7262 C   0  0  1  0  0  0  0  0  0  0  0  0
   -0.3583   -0.6100    1.4558 H   0  0  0  0  0  0  0  0  0  0  0  0
   -0.3739   -0.2459   -0.6675 C   0  0  0  0  0  0  0  0  0  0  0  0
    0.4123    0.5086   -0.7382 H   0  0  0  0  0  0  0  0  0  0  0  0
    0.0860   -1.2286   -0.7807 H   0  0  0  0  0  0  0  0  0  0  0  0
   -1.3652   -0.0149   -1.8187 C   0  0  0  0  0  0  0  0  0  0  0  0
   -1.6060   -0.9676   -2.2912 H   0  0  0  0  0  0  0  0  0  0  0  0
   -2.2801    0.4283   -1.4212 H   0  0  0  0  0  0  0  0  0  0  0  0
   -0.7687    0.9225   -2.8748 C   0  0  0  0  0  0  0  0  0  0  0  0
   -0.5152    1.8782   -2.4152 H   0  0  0  0  0  0  0  0  0  0  0  0
    0.1328    0.4730   -3.2922 H   0  0  0  0  0  0  0  0  0  0  0  0
   -1.7823    1.1546   -3.9937 C   0  0  0  0  0  0  0  0  0  0  0  0
   -2.0230    0.2038   -4.4664 H   0  0  0  0  0  0  0  0  0  0  0  0
   -2.6900    1.5870   -3.5759 H   0  0  0  0  0  0  0  0  0  0  0  0
   -1.2513    2.0682   -5.0118 N   0  0  0  0  0  0  0  0  0  0  0  0
   -1.9397    2.1875   -5.7404 H   0  0  0  0  0  0  0  0  0  0  0  0
   -1.0561    2.9626   -4.5850 H   0  0  0  0  0  0  0  0  0  0  0  0
   -1.2712    1.3099    1.1517 C   0  0  0  0  0  0  0  0  0  0  0  0
   -2.2039    1.9448    0.6639 O   0  0  0  0  0  0  0  0  0  0  0  0
   -0.4306    1.8354    2.0503 N   0  0  0  0  0  0  0  0  0  0  0  0
    0.3001    1.2459    2.4139 H   0  0  0  0  0  0  0  0  0  0  0  0
   -0.5192    3.2082    2.5456 C   0  0  0  0  0  0  0  0  0  0  0  0
   -1.5166    3.3903    2.9518 H   0  0  0  0  0  0  0  0  0  0  0  0
    0.2240    3.3791    3.3257 H   0  0  0  0  0  0  0  0  0  0  0  0
   -0.3477    3.9067    1.7239 H   0  0  0  0  0  0  0  0  0  0  0  0
  5  6  2  0  0  0  0
  5  7  1  0  0  0  0
  2  3  1  0  0  0  0
  2  4  1  0  0  0  0
  2  5  1  0  0  0  0
  1  2  1  0  0  0  0
 26 27  2  0  0  0  0
 26 28  1  0  0  0  0
 23 24  1  0  0  0  0
 23 25  1  0  0  0  0
 20 21  1  0  0  0  0
 20 22  1  0  0  0  0
 20 23  1  0  0  0  0
 17 18  1  0  0  0  0
 17 19  1  0  0  0  0
 17 20  1  0  0  0  0
 14 15  1  0  0  0  0
 14 16  1  0  0  0  0
 14 17  1  0  0  0  0
 11 12  1  0  0  0  0
 11 13  1  0  0  0  0
 11 14  1  0  0  0  0
  9 10  1  0  0  0  0
  9 11  1  0  0  0  0
  9 26  1  0  0  0  0
  7  8  1  0  0  0  0
  7  9  1  0  0  0  0
 30 31  1  0  0  0  0
 30 32  1  0  0  0  0
 30 33  1  0  0  0  0
 28 29  1  0  0  0  0
 28 30  1  0  0  0  0
M  END
$$$$
default_name
  -OEChem-02102213163D

 33 32  0     1  0  0  0  0  0999 V2000
   -3.8420   -3.6918    1.5562 H   0  0  0  0  0  0  0  0  0  0  0  0
   -3.8430   -2.7008    1.1032 C   0  0  0  0  0  0  0  0  0  0  0  0
   -4.5510   -2.0608    1.6242 H   0  0  0  0  0  0  0  0  0  0  0  0
   -4.1140   -2.7798    0.0522 H   0  0  0  0  0  0  0  0  0  0  0  0
   -2.4570   -2.1098    1.2172 C   0  0  0  0  0  0  0  0  0  0  0  0
   -1.5600   -2.7438    1.7572 O   0  0  0  0  0  0  0  0  0  0  0  0
   -2.2870   -0.8898    0.7102 N   0  0  0  0  0  0  0  0  0  0  0  0
   -3.0820   -0.4218    0.2992 H   0  0  0  0  0  0  0  0  0  0  0  0
   -1.0240   -0.1468    0.7262 C   0  0  1  0  0  0  0  0  0  0  0  0
   -0.3583   -0.6100    1.4558 H   0  0  0  0  0  0  0  0  0  0  0  0
   -0.3739   -0.2459   -0.6675 C   0  0  0  0  0  0  0  0  0  0  0  0
    0.4123    0.5086   -0.7382 H   0  0  0  0  0  0  0  0  0  0  0  0
    0.0860   -1.2286   -0.7807 H   0  0  0  0  0  0  0  0  0  0  0  0
   -1.3652   -0.0149   -1.8187 C   0  0  0  0  0  0  0  0  0  0  0  0
   -1.8089   -0.9655   -2.1160 H   0  0  0  0  0  0  0  0  0  0  0  0
   -2.1554    0.6588   -1.4823 H   0  0  0  0  0  0  0  0  0  0  0  0
   -0.6604    0.6014   -3.0325 C   0  0  0  0  0  0  0  0  0  0  0  0
   -0.2043    1.5503   -2.7487 H   0  0  0  0  0  0  0  0  0  0  0  0
    0.1144   -0.0790   -3.3872 H   0  0  0  0  0  0  0  0  0  0  0  0
   -1.6715    0.8432   -4.1515 C   0  0  0  0  0  0  0  0  0  0  0  0
   -2.1149   -0.1057   -4.4494 H   0  0  0  0  0  0  0  0  0  0  0  0
   -2.4557    1.5083   -3.7935 H   0  0  0  0  0  0  0  0  0  0  0  0
   -1.0333    1.4555   -5.3225 N   0  0  0  0  0  0  0  0  0  0  0  0
   -1.7257    1.5878   -6.0450 H   0  0  0  0  0  0  0  0  0  0  0  0
   -0.6479    2.3513   -5.0591 H   0  0  0  0  0  0  0  0  0  0  0  0
   -1.2712    1.3099    1.1517 C   0  0  0  0  0  0  0  0  0  0  0  0
   -2.2039    1.9448    0.6639 O   0  0  0  0  0  0  0  0  0  0  0  0
   -0.4306    1.8354    2.0503 N   0  0  0  0  0  0  0  0  0  0  0  0
    0.3001    1.2459    2.4139 H   0  0  0  0  0  0  0  0  0  0  0  0
   -0.5192    3.2082    2.5456 C   0  0  0  0  0  0  0  0  0  0  0  0
   -1.5166    3.3903    2.9518 H   0  0  0  0  0  0  0  0  0  0  0  0
    0.2240    3.3791    3.3257 H   0  0  0  0  0  0  0  0  0  0  0  0
   -0.3477    3.9067    1.7239 H   0  0  0  0  0  0  0  0  0  0  0  0
  5  6  2  0  0  0  0
  5  7  1  0  0  0  0
  2  3  1  0  0  0  0
  2  4  1  0  0  0  0
  2  5  1  0  0  0  0
  1  2  1  0  0  0  0
 26 27  2  0  0  0  0
 26 28  1  0  0  0  0
 23 24  1  0  0  0  0
 23 25  1  0  0  0  0
 20 21  1  0  0  0  0
 20 22  1  0  0  0  0
 20 23  1  0  0  0  0
 17 18  1  0  0  0  0
 17 19  1  0  0  0  0
 17 20  1  0  0  0  0
 14 15  1  0  0  0  0
 14 16  1  0  0  0  0
 14 17  1  0  0  0  0
 11 12  1  0  0  0  0
 11 13  1  0  0  0  0
 11 14  1  0  0  0  0
  9 10  1  0  0  0  0
  9 11  1  0  0  0  0
  9 26  1  0  0  0  0
  7  8  1  0  0  0  0
  7  9  1  0  0  0  0
 30 31  1  0  0  0  0
 30 32  1  0  0  0  0
 30 33  1  0  0  0  0
 28 29  1  0  0  0  0
 28 30  1  0  0  0  0
M  END
$$$$
default_name
  -OEChem-02102213163D

 33 32  0     1  0  0  0  0  0999 V2000
   -3.8420   -3.6918    1.5562 H   0  0  0  0  0  0  0  0  0  0  0  0
   -3.8430   -2.7008    1.1032 C   0  0  0  0  0  0  0  0  0  0  0  0
   -4.5510   -2.0608    1.6242 H   0  0  0  0  0  0  0  0  0  0  0  0
   -4.1140   -2.7798    0.0522 H   0  0  0  0  0  0  0  0  0  0  0  0
   -2.4570   -2.1098    1.2172 C   0  0  0  0  0  0  0  0  0  0  0  0
   -1.5600   -2.7438    1.7572 O   0  0  0  0  0  0  0  0  0  0  0  0
   -2.2870   -0.8898    0.7102 N   0  0  0  0  0  0  0  0  0  0  0  0
   -3.0820   -0.4218    0.2992 H   0  0  0  0  0  0  0  0  0  0  0  0
   -1.0240   -0.1468    0.7262 C   0  0  1  0  0  0  0  0  0  0  0  0
   -0.3583   -0.6100    1.4558 H   0  0  0  0  0  0  0  0  0  0  0  0
   -0.3739   -0.2459   -0.6675 C   0  0  0  0  0  0  0  0  0  0  0  0
    0.4123    0.5086   -0.7382 H   0  0  0  0  0  0  0  0  0  0  0  0
    0.0860   -1.2286   -0.7807 H   0  0  0  0  0  0  0  0  0  0  0  0
   -1.3652   -0.0149   -1.8187 C   0  0  0  0  0  0  0  0  0  0  0  0
   -1.9977   -0.8948   -1.9392 H   0  0  0  0  0  0  0  0  0  0  0  0
   -1.9926    0.8471   -1.5846 H   0  0  0  0  0  0  0  0  0  0  0  0
   -0.6242    0.2438   -3.1354 C   0  0  0  0  0  0  0  0  0  0  0  0
    0.0194    1.1175   -3.0282 H   0  0  0  0  0  0  0  0  0  0  0  0
   -0.0141   -0.6245   -3.3860 H   0  0  0  0  0  0  0  0  0  0  0  0
   -1.6311    0.4945   -4.2563 C   0  0  0  0  0  0  0  0  0  0  0  0
   -2.2630   -0.3839   -4.3777 H   0  0  0  0  0  0  0  0  0  0  0  0
   -2.2530    1.3505   -3.9997 H   0  0  0  0  0  0  0  0  0  0  0  0
   -0.9537    0.7696   -5.5287 N   0  0  0  0  0  0  0  0  0  0  0  0
   -1.6471    0.9161   -6.2475 H   0  0  0  0  0  0  0  0  0  0  0  0
   -0.3906    1.6025   -5.4309 H   0  0  0  0  0  0  0  0  0  0  0  0
   -1.2712    1.3099    1.1517 C   0  0  0  0  0  0  0  0  0  0  0  0
   -2.2039    1.9448    0.6639 O   0  0  0  0  0  0  0  0  0  0  0  0
   -0.4306    1.8354    2.0503 N   0  0  0  0  0  0  0  0  0  0  0  0
    0.3001    1.2459    2.4139 H   0  0  0  0  0  0  0  0  0  0  0  0
   -0.5192    3.2082    2.5456 C   0  0  0  0  0  0  0  0  0  0  0  0
   -1.5166    3.3903    2.9518 H   0  0  0  0  0  0  0  0  0  0  0  0
    0.2240    3.3791    3.3257 H   0  0  0  0  0  0  0  0  0  0  0  0
   -0.3477    3.9067    1.7239 H   0  0  0  0  0  0  0  0  0  0  0  0
  5  6  2  0  0  0  0
  5  7  1  0  0  0  0
  2  3  1  0  0  0  0
  2  4  1  0  0  0  0
  2  5  1  0  0  0  0
  1  2  1  0  0  0  0
 26 27  2  0  0  0  0
 26 28  1  0  0  0  0
 23 24  1  0  0  0  0
 23 25  1  0  0  0  0
 20 21  1  0  0  0  0
 20 22  1  0  0  0  0
 20 23  1  0  0  0  0
 17 18  1  0  0  0  0
 17 19  1  0  0  0  0
 17 20  1  0  0  0  0
 14 15  1  0  0  0  0
 14 16  1  0  0  0  0
 14 17  1  0  0  0  0
 11 12  1  0  0  0  0
 11 13  1  0  0  0  0
 11 14  1  0  0  0  0
  9 10  1  0  0  0  0
  9 11  1  0  0  0  0
  9 26  1  0  0  0  0
  7  8  1  0  0  0  0
  7  9  1  0  0  0  0
 30 31  1  0  0  0  0
 30 32  1  0  0  0  0
 30 33  1  0  0  0  0
 28 29  1  0  0  0  0
 28 30  1  0  0  0  0
M  END
$$$$
default_name
  -OEChem-02102213163D

 33 32  0     1  0  0  0  0  0999 V2000
   -3.8420   -3.6918    1.5562 H   0  0  0  0  0  0  0  0  0  0  0  0
   -3.8430   -2.7008    1.1032 C   0  0  0  0  0  0  0  0  0  0  0  0
   -4.5510   -2.0608    1.6242 H   0  0  0  0  0  0  0  0  0  0  0  0
   -4.1140   -2.7798    0.0522 H   0  0  0  0  0  0  0  0  0  0  0  0
   -2.4570   -2.1098    1.2172 C   0  0  0  0  0  0  0  0  0  0  0  0
   -1.5600   -2.7438    1.7572 O   0  0  0  0  0  0  0  0  0  0  0  0
   -2.2870   -0.8898    0.7102 N   0  0  0  0  0  0  0  0  0  0  0  0
   -3.0820   -0.4218    0.2992 H   0  0  0  0  0  0  0  0  0  0  0  0
   -1.0240   -0.1468    0.7262 C   0  0  1  0  0  0  0  0  0  0  0  0
   -0.3583   -0.6100    1.4558 H   0  0  0  0  0  0  0  0  0  0  0  0
   -0.3739   -0.2459   -0.6675 C   0  0  0  0  0  0  0  0  0  0  0  0
    0.5682    0.3058   -0.6510 H   0  0  0  0  0  0  0  0  0  0  0  0
   -0.1526   -1.2912   -0.8876 H   0  0  0  0  0  0  0  0  0  0  0  0
   -1.2494    0.3336   -1.7895 C   0  0  0  0  0  0  0  0  0  0  0  0
   -2.1967   -0.2048   -1.8298 H   0  0  0  0  0  0  0  0  0  0  0  0
   -1.4458    1.3874   -1.5836 H   0  0  0  0  0  0  0  0  0  0  0  0
   -0.5520    0.2070   -3.1487 C   0  0  0  0  0  0  0  0  0  0  0  0
    0.4019    0.7347   -3.1217 H   0  0  0  0  0  0  0  0  0  0  0  0
   -0.3751   -0.8459   -3.3699 H   0  0  0  0  0  0  0  0  0  0  0  0
   -1.4317    0.8121   -4.2411 C   0  0  0  0  0  0  0  0  0  0  0  0
   -2.3777    0.2747   -4.2823 H   0  0  0  0  0  0  0  0  0  0  0  0
   -1.6240    1.8591   -4.0125 H   0  0  0  0  0  0  0  0  0  0  0  0
   -0.7824    0.7287   -5.5544 N   0  0  0  0  0  0  0  0  0  0  0  0
   -1.3957    1.1238   -6.2521 H   0  0  0  0  0  0  0  0  0  0  0  0
    0.0809    1.2527   -5.5311 H   0  0  0  0  0  0  0  0  0  0  0  0
   -1.2712    1.3099    1.1517 C   0  0  0  0  0  0  0  0  0  0  0  0
   -2.2039    1.9448    0.6639 O   0  0  0  0  0  0  0  0  0  0  0  0
   -0.4306    1.8354    2.0503 N   0  0  0  0  0  0  0  0  0  0  0  0
    0.3001    1.2459    2.4139 H   0  0  0  0  0  0  0  0  0  0  0  0
   -0.5192    3.2082    2.5456 C   0  0  0  0  0  0  0  0  0  0  0  0
   -1.5166    3.3903    2.9518 H   0  0  0  0  0  0  0  0  0  0  0  0
    0.2240    3.3791    3.3257 H   0  0  0  0  0  0  0  0  0  0  0  0
   -0.3477    3.9067    1.7239 H   0  0  0  0  0  0  0  0  0  0  0  0
  5  6  2  0  0  0  0
  5  7  1  0  0  0  0
  2  3  1  0  0  0  0
  2  4  1  0  0  0  0
  2  5  1  0  0  0  0
  1  2  1  0  0  0  0
 26 27  2  0  0  0  0
 26 28  1  0  0  0  0
 23 24  1  0  0  0  0
 23 25  1  0  0  0  0
 20 21  1  0  0  0  0
 20 22  1  0  0  0  0
 20 23  1  0  0  0  0
 17 18  1  0  0  0  0
 17 19  1  0  0  0  0
 17 20  1  0  0  0  0
 14 15  1  0  0  0  0
 14 16  1  0  0  0  0
 14 17  1  0  0  0  0
 11 12  1  0  0  0  0
 11 13  1  0  0  0  0
 11 14  1  0  0  0  0
  9 10  1  0  0  0  0
  9 11  1  0  0  0  0
  9 26  1  0  0  0  0
  7  8  1  0  0  0  0
  7  9  1  0  0  0  0
 30 31  1  0  0  0  0
 30 32  1  0  0  0  0
 30 33  1  0  0  0  0
 28 29  1  0  0  0  0
 28 30  1  0  0  0  0
M  END
$$$$
default_name
  -OEChem-02102213163D

 33 32  0     1  0  0  0  0  0999 V2000
   -3.8420   -3.6918    1.5562 H   0  0  0  0  0  0  0  0  0  0  0  0
   -3.8430   -2.7008    1.1032 C   0  0  0  0  0  0  0  0  0  0  0  0
   -4.5510   -2.0608    1.6242 H   0  0  0  0  0  0  0  0  0  0  0  0
   -4.1140   -2.7798    0.0522 H   0  0  0  0  0  0  0  0  0  0  0  0
   -2.4570   -2.1098    1.2172 C   0  0  0  0  0  0  0  0  0  0  0  0
   -1.5600   -2.7438    1.7572 O   0  0  0  0  0  0  0  0  0  0  0  0
   -2.2870   -0.8898    0.7102 N   0  0  0  0  0  0  0  0  0  0  0  0
   -3.0820   -0.4218    0.2992 H   0  0  0  0  0  0  0  0  0  0  0  0
   -1.0240   -0.1468    0.7262 C   0  0  1  0  0  0  0  0  0  0  0  0
   -0.3583   -0.6100    1.4558 H   0  0  0  0  0  0  0  0  0  0  0  0
   -0.3739   -0.2459   -0.6675 C   0  0  0  0  0  0  0  0  0  0  0  0
    0.5682    0.3058   -0.6510 H   0  0  0  0  0  0  0  0  0  0  0  0
   -0.1526   -1.2912   -0.8876 H   0  0  0  0  0  0  0  0  0  0  0  0
   -1.2494    0.3336   -1.7895 C   0  0  0  0  0  0  0  0  0  0  0  0
   -2.2772   -0.0087   -1.6657 H   0  0  0  0  0  0  0  0  0  0  0  0
   -1.2268    1.4236   -1.7358 H   0  0  0  0  0  0  0  0  0  0  0  0
   -0.7430   -0.1138   -3.1654 C   0  0  0  0  0  0  0  0  0  0  0  0
    0.2878    0.2148   -3.3012 H   0  0  0  0  0  0  0  0  0  0  0  0
   -0.7862   -1.2013   -3.2327 H   0  0  0  0  0  0  0  0  0  0  0  0
   -1.6146    0.4954   -4.2619 C   0  0  0  0  0  0  0  0  0  0  0  0
   -2.6411    0.1537   -4.1393 H   0  0  0  0  0  0  0  0  0  0  0  0
   -1.5868    1.5811   -4.1852 H   0  0  0  0  0  0  0  0  0  0  0  0
   -1.1422    0.1056   -5.5954 N   0  0  0  0  0  0  0  0  0  0  0  0
   -1.7476    0.5132   -6.2928 H   0  0  0  0  0  0  0  0  0  0  0  0
   -0.2010    0.4480   -5.7267 H   0  0  0  0  0  0  0  0  0  0  0  0
   -1.2712    1.3099    1.1517 C   0  0  0  0  0  0  0  0  0  0  0  0
   -2.2039    1.9448    0.6639 O   0  0  0  0  0  0  0  0  0  0  0  0
   -0.4306    1.8354    2.0503 N   0  0  0  0  0  0  0  0  0  0  0  0
    0.3001    1.2459    2.4139 H   0  0  0  0  0  0  0  0  0  0  0  0
   -0.5192    3.2082    2.5456 C   0  0  0  0  0  0  0  0  0  0  0  0
   -1.5166    3.3903    2.9518 H   0  0  0  0  0  0  0  0  0  0  0  0
    0.2240    3.3791    3.3257 H   0  0  0  0  0  0  0  0  0  0  0  0
   -0.3477    3.9067    1.7239 H   0  0  0  0  0  0  0  0  0  0  0  0
  5  6  2  0  0  0  0
  5  7  1  0  0  0  0
  2  3  1  0  0  0  0
  2  4  1  0  0  0  0
  2  5  1  0  0  0  0
  1  2  1  0  0  0  0
 26 27  2  0  0  0  0
 26 28  1  0  0  0  0
 23 24  1  0  0  0  0
 23 25  1  0  0  0  0
 20 21  1  0  0  0  0
 20 22  1  0  0  0  0
 20 23  1  0  0  0  0
 17 18  1  0  0  0  0
 17 19  1  0  0  0  0
 17 20  1  0  0  0  0
 14 15  1  0  0  0  0
 14 16  1  0  0  0  0
 14 17  1  0  0  0  0
 11 12  1  0  0  0  0
 11 13  1  0  0  0  0
 11 14  1  0  0  0  0
  9 10  1  0  0  0  0
  9 11  1  0  0  0  0
  9 26  1  0  0  0  0
  7  8  1  0  0  0  0
  7  9  1  0  0  0  0
 30 31  1  0  0  0  0
 30 32  1  0  0  0  0
 30 33  1  0  0  0  0
 28 29  1  0  0  0  0
 28 30  1  0  0  0  0
M  END
$$$$
default_name
  -OEChem-02102213163D

 33 32  0     1  0  0  0  0  0999 V2000
   -3.8420   -3.6918    1.5562 H   0  0  0  0  0  0  0  0  0  0  0  0
   -3.8430   -2.7008    1.1032 C   0  0  0  0  0  0  0  0  0  0  0  0
   -4.5510   -2.0608    1.6242 H   0  0  0  0  0  0  0  0  0  0  0  0
   -4.1140   -2.7798    0.0522 H   0  0  0  0  0  0  0  0  0  0  0  0
   -2.4570   -2.1098    1.2172 C   0  0  0  0  0  0  0  0  0  0  0  0
   -1.5600   -2.7438    1.7572 O   0  0  0  0  0  0  0  0  0  0  0  0
   -2.2870   -0.8898    0.7102 N   0  0  0  0  0  0  0  0  0  0  0  0
   -3.0820   -0.4218    0.2992 H   0  0  0  0  0  0  0  0  0  0  0  0
   -1.0240   -0.1468    0.7262 C   0  0  1  0  0  0  0  0  0  0  0  0
   -0.3583   -0.6100    1.4558 H   0  0  0  0  0  0  0  0  0  0  0  0
   -0.3739   -0.2459   -0.6675 C   0  0  0  0  0  0  0  0  0  0  0  0
    0.5682    0.3058   -0.6510 H   0  0  0  0  0  0  0  0  0  0  0  0
   -0.1526   -1.2912   -0.8876 H   0  0  0  0  0  0  0  0  0  0  0  0
   -1.2494    0.3336   -1.7895 C   0  0  0  0  0  0  0  0  0  0  0  0
   -2.3019    0.2202   -1.5282 H   0  0  0  0  0  0  0  0  0  0  0  0
   -1.0233    1.3947   -1.9095 H   0  0  0  0  0  0  0  0  0  0  0  0
   -0.9897   -0.3902   -3.1156 C   0  0  0  0  0  0  0  0  0  0  0  0
    0.0619   -0.2922   -3.3868 H   0  0  0  0  0  0  0  0  0  0  0  0
   -1.2370   -1.4466   -3.0076 H   0  0  0  0  0  0  0  0  0  0  0  0
   -1.8532    0.2209   -4.2175 C   0  0  0  0  0  0  0  0  0  0  0  0
   -2.9045    0.1077   -3.9576 H   0  0  0  0  0  0  0  0  0  0  0  0
   -1.6202    1.2801   -4.3145 H   0  0  0  0  0  0  0  0  0  0  0  0
   -1.6116   -0.4343   -5.5081 N   0  0  0  0  0  0  0  0  0  0  0  0
   -2.2069   -0.0160   -6.2078 H   0  0  0  0  0  0  0  0  0  0  0  0
   -0.6445   -0.3047   -5.7695 H   0  0  0  0  0  0  0  0  0  0  0  0
   -1.2712    1.3099    1.1517 C   0  0  0  0  0  0  0  0  0  0  0  0
   -2.2039    1.9448    0.6639 O   0  0  0  0  0  0  0  0  0  0  0  0
   -0.4306    1.8354    2.0503 N   0  0  0  0  0  0  0  0  0  0  0  0
    0.3001    1.2459    2.4139 H   0  0  0  0  0  0  0  0  0  0  0  0
   -0.5192    3.2082    2.5456 C   0  0  0  0  0  0  0  0  0  0  0  0
   -1.5166    3.3903    2.9518 H   0  0  0  0  0  0  0  0  0  0  0  0
    0.2240    3.3791    3.3257 H   0  0  0  0  0  0  0  0  0  0  0  0
   -0.3477    3.9067    1.7239 H   0  0  0  0  0  0  0  0  0  0  0  0
  5  6  2  0  0  0  0
  5  7  1  0  0  0  0
  2  3  1  0  0  0  0
  2  4  1  0  0  0  0
  2  5  1  0  0  0  0
  1  2  1  0  0  0  0
 26 27  2  0  0  0  0
 26 28  1  0  0  0  0
 23 24  1  0  0  0  0
 23 25  1  0  0  0  0
 20 21  1  0  0  0  0
 20 22  1  0  0  0  0
 20 23  1  0  0  0  0
 17 18  1  0  0  0  0
 17 19  1  0  0  0  0
 17 20  1  0  0  0  0
 14 15  1  0  0  0  0
 14 16  1  0  0  0  0
 14 17  1  0  0  0  0
 11 12  1  0  0  0  0
 11 13  1  0  0  0  0
 11 14  1  0  0  0  0
  9 10  1  0  0  0  0
  9 11  1  0  0  0  0
  9 26  1  0  0  0  0
  7  8  1  0  0  0  0
  7  9  1  0  0  0  0
 30 31  1  0  0  0  0
 30 32  1  0  0  0  0
 30 33  1  0  0  0  0
 28 29  1  0  0  0  0
 28 30  1  0  0  0  0
M  END
$$$$
default_name
  -OEChem-02102213163D

 33 32  0     1  0  0  0  0  0999 V2000
   -3.8420   -3.6918    1.5562 H   0  0  0  0  0  0  0  0  0  0  0  0
   -3.8430   -2.7008    1.1032 C   0  0  0  0  0  0  0  0  0  0  0  0
   -4.5510   -2.0608    1.6242 H   0  0  0  0  0  0  0  0  0  0  0  0
   -4.1140   -2.7798    0.0522 H   0  0  0  0  0  0  0  0  0  0  0  0
   -2.4570   -2.1098    1.2172 C   0  0  0  0  0  0  0  0  0  0  0  0
   -1.5600   -2.7438    1.7572 O   0  0  0  0  0  0  0  0  0  0  0  0
   -2.2870   -0.8898    0.7102 N   0  0  0  0  0  0  0  0  0  0  0  0
   -3.0820   -0.4218    0.2992 H   0  0  0  0  0  0  0  0  0  0  0  0
   -1.0240   -0.1468    0.7262 C   0  0  1  0  0  0  0  0  0  0  0  0
   -0.3583   -0.6100    1.4558 H   0  0  0  0  0  0  0  0  0  0  0  0
   -0.3739   -0.2459   -0.6675 C   0  0  0  0  0  0  0  0  0  0  0  0
    0.5682    0.3058   -0.6510 H   0  0  0  0  0  0  0  0  0  0  0  0
   -0.1526   -1.2912   -0.8876 H   0  0  0  0  0  0  0  0  0  0  0  0
   -1.2494    0.3336   -1.7895 C   0  0  0  0  0  0  0  0  0  0  0  0
   -2.2691    0.4662   -1.4267 H   0  0  0  0  0  0  0  0  0  0  0  0
   -0.8492    1.3028   -2.0929 H   0  0  0  0  0  0  0  0  0  0  0  0
   -1.2754   -0.6031   -3.0026 C   0  0  0  0  0  0  0  0  0  0  0  0
   -0.2605   -0.7519   -3.3726 H   0  0  0  0  0  0  0  0  0  0  0  0
   -1.6969   -1.5652   -2.7101 H   0  0  0  0  0  0  0  0  0  0  0  0
   -2.1312    0.0075   -4.1108 C   0  0  0  0  0  0  0  0  0  0  0  0
   -3.1498    0.1398   -3.7496 H   0  0  0  0  0  0  0  0  0  0  0  0
   -1.7220    0.9765   -4.3919 H   0  0  0  0  0  0  0  0  0  0  0  0
   -2.1584   -0.8542   -5.2983 N   0  0  0  0  0  0  0  0  0  0  0  0
   -2.7423   -0.4279   -6.0028 H   0  0  0  0  0  0  0  0  0  0  0  0
   -1.2193   -0.9544   -5.6565 H   0  0  0  0  0  0  0  0  0  0  0  0
   -1.2712    1.3099    1.1517 C   0  0  0  0  0  0  0  0  0  0  0  0
   -2.2039    1.9448    0.6639 O   0  0  0  0  0  0  0  0  0  0  0  0
   -0.4306    1.8354    2.0503 N   0  0  0  0  0  0  0  0  0  0  0  0
    0.3001    1.2459    2.4139 H   0  0  0  0  0  0  0  0  0  0  0  0
   -0.5192    3.2082    2.5456 C   0  0  0  0  0  0  0  0  0  0  0  0
   -1.5166    3.3903    2.9518 H   0  0  0  0  0  0  0  0  0  0  0  0
    0.2240    3.3791    3.3257 H   0  0  0  0  0  0  0  0  0  0  0  0
   -0.3477    3.9067    1.7239 H   0  0  0  0  0  0  0  0  0  0  0  0
  5  6  2  0  0  0  0
  5  7  1  0  0  0  0
  2  3  1  0  0  0  0
  2  4  1  0  0  0  0
  2  5  1  0  0  0  0
  1  2  1  0  0  0  0
 26 27  2  0  0  0  0
 26 28  1  0  0  0  0
 23 24  1  0  0  0  0
 23 25  1  0  0  0  0
 20 21  1  0  0  0  0
 20 22  1  0  0  0  0
 20 23  1  0  0  0  0
 17 18  1  0  0  0  0
 17 19  1  0  0  0  0
 17 20  1  0  0  0  0
 14 15  1  0  0  0  0
 14 16  1  0  0  0  0
 14 17  1  0  0  0  0
 11 12  1  0  0  0  0
 11 13  1  0  0  0  0
 11 14  1  0  0  0  0
  9 10  1  0  0  0  0
  9 11  1  0  0  0  0
  9 26  1  0  0  0  0
  7  8  1  0  0  0  0
  7  9  1  0  0  0  0
 30 31  1  0  0  0  0
 30 32  1  0  0  0  0
 30 33  1  0  0  0  0
 28 29  1  0  0  0  0
 28 30  1  0  0  0  0
M  END
$$$$
default_name
  -OEChem-02102213163D

 33 32  0     1  0  0  0  0  0999 V2000
   -3.8420   -3.6918    1.5562 H   0  0  0  0  0  0  0  0  0  0  0  0
   -3.8430   -2.7008    1.1032 C   0  0  0  0  0  0  0  0  0  0  0  0
   -4.5510   -2.0608    1.6242 H   0  0  0  0  0  0  0  0  0  0  0  0
   -4.1140   -2.7798    0.0522 H   0  0  0  0  0  0  0  0  0  0  0  0
   -2.4570   -2.1098    1.2172 C   0  0  0  0  0  0  0  0  0  0  0  0
   -1.5600   -2.7438    1.7572 O   0  0  0  0  0  0  0  0  0  0  0  0
   -2.2870   -0.8898    0.7102 N   0  0  0  0  0  0  0  0  0  0  0  0
   -3.0820   -0.4218    0.2992 H   0  0  0  0  0  0  0  0  0  0  0  0
   -1.0240   -0.1468    0.7262 C   0  0  1  0  0  0  0  0  0  0  0  0
   -0.3583   -0.6100    1.4558 H   0  0  0  0  0  0  0  0  0  0  0  0
   -0.3739   -0.2459   -0.6675 C   0  0  0  0  0  0  0  0  0  0  0  0
    0.5682    0.3058   -0.6510 H   0  0  0  0  0  0  0  0  0  0  0  0
   -0.1526   -1.2912   -0.8876 H   0  0  0  0  0  0  0  0  0  0  0  0
   -1.2494    0.3336   -1.7895 C   0  0  0  0  0  0  0  0  0  0  0  0
   -2.1810    0.7126   -1.3682 H   0  0  0  0  0  0  0  0  0  0  0  0
   -0.7162    1.1540   -2.2735 H   0  0  0  0  0  0  0  0  0  0  0  0
   -1.5806   -0.7381   -2.8343 C   0  0  0  0  0  0  0  0  0  0  0  0
   -0.6575   -1.1328   -3.2597 H   0  0  0  0  0  0  0  0  0  0  0  0
   -2.1344   -1.5490   -2.3603 H   0  0  0  0  0  0  0  0  0  0  0  0
   -2.4296   -0.1304   -3.9492 C   0  0  0  0  0  0  0  0  0  0  0  0
   -3.3603    0.2479   -3.5295 H   0  0  0  0  0  0  0  0  0  0  0  0
   -1.8852    0.6912   -4.4119 H   0  0  0  0  0  0  0  0  0  0  0  0
   -2.7455   -1.1255   -4.9803 N   0  0  0  0  0  0  0  0  0  0  0  0
   -3.3173   -0.6944   -5.6918 H   0  0  0  0  0  0  0  0  0  0  0  0
   -1.8862   -1.4566   -5.3955 H   0  0  0  0  0  0  0  0  0  0  0  0
   -1.2712    1.3099    1.1517 C   0  0  0  0  0  0  0  0  0  0  0  0
   -2.2039    1.9448    0.6639 O   0  0  0  0  0  0  0  0  0  0  0  0
   -0.4306    1.8354    2.0503 N   0  0  0  0  0  0  0  0  0  0  0  0
    0.3001    1.2459    2.4139 H   0  0  0  0  0  0  0  0  0  0  0  0
   -0.5192    3.2082    2.5456 C   0  0  0  0  0  0  0  0  0  0  0  0
   -1.5166    3.3903    2.9518 H   0  0  0  0  0  0  0  0  0  0  0  0
    0.2240    3.3791    3.3257 H   0  0  0  0  0  0  0  0  0  0  0  0
   -0.3477    3.9067    1.7239 H   0  0  0  0  0  0  0  0  0  0  0  0
  5  6  2  0  0  0  0
  5  7  1  0  0  0  0
  2  3  1  0  0  0  0
  2  4  1  0  0  0  0
  2  5  1  0  0  0  0
  1  2  1  0  0  0  0
 26 27  2  0  0  0  0
 26 28  1  0  0  0  0
 23 24  1  0  0  0  0
 23 25  1  0  0  0  0
 20 21  1  0  0  0  0
 20 22  1  0  0  0  0
 20 23  1  0  0  0  0
 17 18  1  0  0  0  0
 17 19  1  0  0  0  0
 17 20  1  0  0  0  0
 14 15  1  0  0  0  0
 14 16  1  0  0  0  0
 14 17  1  0  0  0  0
 11 12  1  0  0  0  0
 11 13  1  0  0  0  0
 11 14  1  0  0  0  0
  9 10  1  0  0  0  0
  9 11  1  0  0  0  0
  9 26  1  0  0  0  0
  7  8  1  0  0  0  0
  7  9  1  0  0  0  0
 30 31  1  0  0  0  0
 30 32  1  0  0  0  0
 30 33  1  0  0  0  0
 28 29  1  0  0  0  0
 28 30  1  0  0  0  0
M  END
$$$$
default_name
  -OEChem-02102213163D

 33 32  0     1  0  0  0  0  0999 V2000
   -3.8420   -3.6918    1.5562 H   0  0  0  0  0  0  0  0  0  0  0  0
   -3.8430   -2.7008    1.1032 C   0  0  0  0  0  0  0  0  0  0  0  0
   -4.5510   -2.0608    1.6242 H   0  0  0  0  0  0  0  0  0  0  0  0
   -4.1140   -2.7798    0.0522 H   0  0  0  0  0  0  0  0  0  0  0  0
   -2.4570   -2.1098    1.2172 C   0  0  0  0  0  0  0  0  0  0  0  0
   -1.5600   -2.7438    1.7572 O   0  0  0  0  0  0  0  0  0  0  0  0
   -2.2870   -0.8898    0.7102 N   0  0  0  0  0  0  0  0  0  0  0  0
   -3.0820   -0.4218    0.2992 H   0  0  0  0  0  0  0  0  0  0  0  0
   -1.0240   -0.1468    0.7262 C   0  0  1  0  0  0  0  0  0  0  0  0
   -0.3583   -0.6100    1.4558 H   0  0  0  0  0  0  0  0  0  0  0  0
   -0.3739   -0.2459   -0.6675 C   0  0  0  0  0  0  0  0  0  0  0  0
    0.5682    0.3058   -0.6510 H   0  0  0  0  0  0  0  0  0  0  0  0
   -0.1526   -1.2912   -0.8876 H   0  0  0  0  0  0  0  0  0  0  0  0
   -1.2494    0.3336   -1.7895 C   0  0  0  0  0  0  0  0  0  0  0  0
   -2.0436    0.9425   -1.3566 H   0  0  0  0  0  0  0  0  0  0  0  0
   -0.6336    0.9585   -2.4389 H   0  0  0  0  0  0  0  0  0  0  0  0
   -1.8845   -0.7860   -2.6219 C   0  0  0  0  0  0  0  0  0  0  0  0
   -1.1018   -1.4092   -3.0557 H   0  0  0  0  0  0  0  0  0  0  0  0
   -2.5199   -1.3991   -1.9821 H   0  0  0  0  0  0  0  0  0  0  0  0
   -2.7282   -0.1833   -3.7436 C   0  0  0  0  0  0  0  0  0  0  0  0
   -3.5218    0.4246   -3.3122 H   0  0  0  0  0  0  0  0  0  0  0  0
   -2.0988    0.4435   -4.3732 H   0  0  0  0  0  0  0  0  0  0  0  0
   -3.3328   -1.2297   -4.5759 N   0  0  0  0  0  0  0  0  0  0  0  0
   -3.8926   -0.7972   -5.2959 H   0  0  0  0  0  0  0  0  0  0  0  0
   -2.5999   -1.7772   -5.0042 H   0  0  0  0  0  0  0  0  0  0  0  0
   -1.2712    1.3099    1.1517 C   0  0  0  0  0  0  0  0  0  0  0  0
   -2.2039    1.9448    0.6639 O   0  0  0  0  0  0  0  0  0  0  0  0
   -0.4306    1.8354    2.0503 N   0  0  0  0  0  0  0  0  0  0  0  0
    0.3001    1.2459    2.4139 H   0  0  0  0  0  0  0  0  0  0  0  0
   -0.5192    3.2082    2.5456 C   0  0  0  0  0  0  0  0  0  0  0  0
   -1.5166    3.3903    2.9518 H   0  0  0  0  0  0  0  0  0  0  0  0
    0.2240    3.3791    3.3257 H   0  0  0  0  0  0  0  0  0  0  0  0
   -0.3477    3.9067    1.7239 H   0  0  0  0  0  0  0  0  0  0  0  0
  5  6  2  0  0  0  0
  5  7  1  0  0  0  0
  2  3  1  0  0  0  0
  2  4  1  0  0  0  0
  2  5  1  0  0  0  0
  1  2  1  0  0  0  0
 26 27  2  0  0  0  0
 26 28  1  0  0  0  0
 23 24  1  0  0  0  0
 23 25  1  0  0  0  0
 20 21  1  0  0  0  0
 20 22  1  0  0  0  0
 20 23  1  0  0  0  0
 17 18  1  0  0  0  0
 17 19  1  0  0  0  0
 17 20  1  0  0  0  0
 14 15  1  0  0  0  0
 14 16  1  0  0  0  0
 14 17  1  0  0  0  0
 11 12  1  0  0  0  0
 11 13  1  0  0  0  0
 11 14  1  0  0  0  0
  9 10  1  0  0  0  0
  9 11  1  0  0  0  0
  9 26  1  0  0  0  0
  7  8  1  0  0  0  0
  7  9  1  0  0  0  0
 30 31  1  0  0  0  0
 30 32  1  0  0  0  0
 30 33  1  0  0  0  0
 28 29  1  0  0  0  0
 28 30  1  0  0  0  0
M  END
$$$$
default_name
  -OEChem-02102213163D

 33 32  0     1  0  0  0  0  0999 V2000
   -3.8420   -3.6918    1.5562 H   0  0  0  0  0  0  0  0  0  0  0  0
   -3.8430   -2.7008    1.1032 C   0  0  0  0  0  0  0  0  0  0  0  0
   -4.5510   -2.0608    1.6242 H   0  0  0  0  0  0  0  0  0  0  0  0
   -4.1140   -2.7798    0.0522 H   0  0  0  0  0  0  0  0  0  0  0  0
   -2.4570   -2.1098    1.2172 C   0  0  0  0  0  0  0  0  0  0  0  0
   -1.5600   -2.7438    1.7572 O   0  0  0  0  0  0  0  0  0  0  0  0
   -2.2870   -0.8898    0.7102 N   0  0  0  0  0  0  0  0  0  0  0  0
   -3.0820   -0.4218    0.2992 H   0  0  0  0  0  0  0  0  0  0  0  0
   -1.0240   -0.1468    0.7262 C   0  0  1  0  0  0  0  0  0  0  0  0
   -0.3583   -0.6100    1.4558 H   0  0  0  0  0  0  0  0  0  0  0  0
   -0.3739   -0.2459   -0.6675 C   0  0  0  0  0  0  0  0  0  0  0  0
    0.5682    0.3058   -0.6510 H   0  0  0  0  0  0  0  0  0  0  0  0
   -0.1526   -1.2912   -0.8876 H   0  0  0  0  0  0  0  0  0  0  0  0
   -1.2494    0.3336   -1.7895 C   0  0  0  0  0  0  0  0  0  0  0  0
   -1.8663    1.1404   -1.3928 H   0  0  0  0  0  0  0  0  0  0  0  0
   -0.6068    0.7297   -2.5780 H   0  0  0  0  0  0  0  0  0  0  0  0
   -2.1663   -0.7436   -2.3801 C   0  0  0  0  0  0  0  0  0  0  0  0
   -1.5634   -1.5620   -2.7745 H   0  0  0  0  0  0  0  0  0  0  0  0
   -2.8269   -1.1256   -1.6012 H   0  0  0  0  0  0  0  0  0  0  0  0
   -3.0065   -0.1477   -3.5080 C   0  0  0  0  0  0  0  0  0  0  0  0
   -3.6232    0.6577   -3.1127 H   0  0  0  0  0  0  0  0  0  0  0  0
   -2.3481    0.2502   -4.2785 H   0  0  0  0  0  0  0  0  0  0  0  0
   -3.8803   -1.1598   -4.1125 N   0  0  0  0  0  0  0  0  0  0  0  0
   -4.4292   -0.7294   -4.8422 H   0  0  0  0  0  0  0  0  0  0  0  0
   -3.3116   -1.8942   -4.5093 H   0  0  0  0  0  0  0  0  0  0  0  0
   -1.2712    1.3099    1.1517 C   0  0  0  0  0  0  0  0  0  0  0  0
   -2.2039    1.9448    0.6639 O   0  0  0  0  0  0  0  0  0  0  0  0
   -0.4306    1.8354    2.0503 N   0  0  0  0  0  0  0  0  0  0  0  0
    0.3001    1.2459    2.4139 H   0  0  0  0  0  0  0  0  0  0  0  0
   -0.5192    3.2082    2.5456 C   0  0  0  0  0  0  0  0  0  0  0  0
   -1.5166    3.3903    2.9518 H   0  0  0  0  0  0  0  0  0  0  0  0
    0.2240    3.3791    3.3257 H   0  0  0  0  0  0  0  0  0  0  0  0
   -0.3477    3.9067    1.7239 H   0  0  0  0  0  0  0  0  0  0  0  0
  5  6  2  0  0  0  0
  5  7  1  0  0  0  0
  2  3  1  0  0  0  0
  2  4  1  0  0  0  0
  2  5  1  0  0  0  0
  1  2  1  0  0  0  0
 26 27  2  0  0  0  0
 26 28  1  0  0  0  0
 23 24  1  0  0  0  0
 23 25  1  0  0  0  0
 20 21  1  0  0  0  0
 20 22  1  0  0  0  0
 20 23  1  0  0  0  0
 17 18  1  0  0  0  0
 17 19  1  0  0  0  0
 17 20  1  0  0  0  0
 14 15  1  0  0  0  0
 14 16  1  0  0  0  0
 14 17  1  0  0  0  0
 11 12  1  0  0  0  0
 11 13  1  0  0  0  0
 11 14  1  0  0  0  0
  9 10  1  0  0  0  0
  9 11  1  0  0  0  0
  9 26  1  0  0  0  0
  7  8  1  0  0  0  0
  7  9  1  0  0  0  0
 30 31  1  0  0  0  0
 30 32  1  0  0  0  0
 30 33  1  0  0  0  0
 28 29  1  0  0  0  0
 28 30  1  0  0  0  0
M  END
$$$$
default_name
  -OEChem-02102213163D

 33 32  0     1  0  0  0  0  0999 V2000
   -3.8420   -3.6918    1.5562 H   0  0  0  0  0  0  0  0  0  0  0  0
   -3.8430   -2.7008    1.1032 C   0  0  0  0  0  0  0  0  0  0  0  0
   -4.5510   -2.0608    1.6242 H   0  0  0  0  0  0  0  0  0  0  0  0
   -4.1140   -2.7798    0.0522 H   0  0  0  0  0  0  0  0  0  0  0  0
   -2.4570   -2.1098    1.2172 C   0  0  0  0  0  0  0  0  0  0  0  0
   -1.5600   -2.7438    1.7572 O   0  0  0  0  0  0  0  0  0  0  0  0
   -2.2870   -0.8898    0.7102 N   0  0  0  0  0  0  0  0  0  0  0  0
   -3.0820   -0.4218    0.2992 H   0  0  0  0  0  0  0  0  0  0  0  0
   -1.0240   -0.1468    0.7262 C   0  0  1  0  0  0  0  0  0  0  0  0
   -0.3583   -0.6100    1.4558 H   0  0  0  0  0  0  0  0  0  0  0  0
   -0.3739   -0.2459   -0.6675 C   0  0  0  0  0  0  0  0  0  0  0  0
    0.5682    0.3058   -0.6510 H   0  0  0  0  0  0  0  0  0  0  0  0
   -0.1526   -1.2912   -0.8876 H   0  0  0  0  0  0  0  0  0  0  0  0
   -1.2494    0.3336   -1.7895 C   0  0  0  0  0  0  0  0  0  0  0  0
   -1.6612    1.2927   -1.4742 H   0  0  0  0  0  0  0  0  0  0  0  0
   -0.6378    0.4831   -2.6812 H   0  0  0  0  0  0  0  0  0  0  0  0
   -2.4069   -0.6136   -2.1252 C   0  0  0  0  0  0  0  0  0  0  0  0
   -2.0106   -1.5810   -2.4353 H   0  0  0  0  0  0  0  0  0  0  0  0
   -3.0346   -0.7473   -1.2438 H   0  0  0  0  0  0  0  0  0  0  0  0
   -3.2456   -0.0260   -3.2586 C   0  0  0  0  0  0  0  0  0  0  0  0
   -3.6576    0.9316   -2.9444 H   0  0  0  0  0  0  0  0  0  0  0  0
   -2.6162    0.1247   -4.1341 H   0  0  0  0  0  0  0  0  0  0  0  0
   -4.3508   -0.9204   -3.6218 N   0  0  0  0  0  0  0  0  0  0  0  0
   -4.8904   -0.4957   -4.3616 H   0  0  0  0  0  0  0  0  0  0  0  0
   -3.9729   -1.7998   -3.9446 H   0  0  0  0  0  0  0  0  0  0  0  0
   -1.2712    1.3099    1.1517 C   0  0  0  0  0  0  0  0  0  0  0  0
   -2.2039    1.9448    0.6639 O   0  0  0  0  0  0  0  0  0  0  0  0
   -0.4306    1.8354    2.0503 N   0  0  0  0  0  0  0  0  0  0  0  0
    0.3001    1.2459    2.4139 H   0  0  0  0  0  0  0  0  0  0  0  0
   -0.5192    3.2082    2.5456 C   0  0  0  0  0  0  0  0  0  0  0  0
   -1.5166    3.3903    2.9518 H   0  0  0  0  0  0  0  0  0  0  0  0
    0.2240    3.3791    3.3257 H   0  0  0  0  0  0  0  0  0  0  0  0
   -0.3477    3.9067    1.7239 H   0  0  0  0  0  0  0  0  0  0  0  0
  5  6  2  0  0  0  0
  5  7  1  0  0  0  0
  2  3  1  0  0  0  0
  2  4  1  0  0  0  0
  2  5  1  0  0  0  0
  1  2  1  0  0  0  0
 26 27  2  0  0  0  0
 26 28  1  0  0  0  0
 23 24  1  0  0  0  0
 23 25  1  0  0  0  0
 20 21  1  0  0  0  0
 20 22  1  0  0  0  0
 20 23  1  0  0  0  0
 17 18  1  0  0  0  0
 17 19  1  0  0  0  0
 17 20  1  0  0  0  0
 14 15  1  0  0  0  0
 14 16  1  0  0  0  0
 14 17  1  0  0  0  0
 11 12  1  0  0  0  0
 11 13  1  0  0  0  0
 11 14  1  0  0  0  0
  9 10  1  0  0  0  0
  9 11  1  0  0  0  0
  9 26  1  0  0  0  0
  7  8  1  0  0  0  0
  7  9  1  0  0  0  0
 30 31  1  0  0  0  0
 30 32  1  0  0  0  0
 30 33  1  0  0  0  0
 28 29  1  0  0  0  0
 28 30  1  0  0  0  0
M  END
$$$$
default_name
  -OEChem-02102213163D

 33 32  0     1  0  0  0  0  0999 V2000
   -3.8420   -3.6918    1.5562 H   0  0  0  0  0  0  0  0  0  0  0  0
   -3.8430   -2.7008    1.1032 C   0  0  0  0  0  0  0  0  0  0  0  0
   -4.5510   -2.0608    1.6242 H   0  0  0  0  0  0  0  0  0  0  0  0
   -4.1140   -2.7798    0.0522 H   0  0  0  0  0  0  0  0  0  0  0  0
   -2.4570   -2.1098    1.2172 C   0  0  0  0  0  0  0  0  0  0  0  0
   -1.5600   -2.7438    1.7572 O   0  0  0  0  0  0  0  0  0  0  0  0
   -2.2870   -0.8898    0.7102 N   0  0  0  0  0  0  0  0  0  0  0  0
   -3.0820   -0.4218    0.2992 H   0  0  0  0  0  0  0  0  0  0  0  0
   -1.0240   -0.1468    0.7262 C   0  0  1  0  0  0  0  0  0  0  0  0
   -0.3583   -0.6100    1.4558 H   0  0  0  0  0  0  0  0  0  0  0  0
   -0.3739   -0.2459   -0.6675 C   0  0  0  0  0  0  0  0  0  0  0  0
    0.5682    0.3058   -0.6510 H   0  0  0  0  0  0  0  0  0  0  0  0
   -0.1526   -1.2912   -0.8876 H   0  0  0  0  0  0  0  0  0  0  0  0
   -1.2494    0.3336   -1.7895 C   0  0  0  0  0  0  0  0  0  0  0  0
   -1.4422    1.3891   -1.5952 H   0  0  0  0  0  0  0  0  0  0  0  0
   -0.7244    0.2355   -2.7415 H   0  0  0  0  0  0  0  0  0  0  0  0
   -2.5899   -0.4051   -1.8748 C   0  0  0  0  0  0  0  0  0  0  0  0
   -2.4131   -1.4648   -2.0612 H   0  0  0  0  0  0  0  0  0  0  0  0
   -3.1289   -0.2899   -0.9339 H   0  0  0  0  0  0  0  0  0  0  0  0
   -3.4292    0.1735   -3.0123 C   0  0  0  0  0  0  0  0  0  0  0  0
   -3.6227    1.2274   -2.8189 H   0  0  0  0  0  0  0  0  0  0  0  0
   -2.8848    0.0754   -3.9500 H   0  0  0  0  0  0  0  0  0  0  0  0
   -4.7120   -0.5280   -3.1372 N   0  0  0  0  0  0  0  0  0  0  0  0
   -5.2448   -0.1118   -3.8869 H   0  0  0  0  0  0  0  0  0  0  0  0
   -4.5387   -1.5004   -3.3485 H   0  0  0  0  0  0  0  0  0  0  0  0
   -1.2712    1.3099    1.1517 C   0  0  0  0  0  0  0  0  0  0  0  0
   -2.2039    1.9448    0.6639 O   0  0  0  0  0  0  0  0  0  0  0  0
   -0.4306    1.8354    2.0503 N   0  0  0  0  0  0  0  0  0  0  0  0
    0.3001    1.2459    2.4139 H   0  0  0  0  0  0  0  0  0  0  0  0
   -0.5192    3.2082    2.5456 C   0  0  0  0  0  0  0  0  0  0  0  0
   -1.5166    3.3903    2.9518 H   0  0  0  0  0  0  0  0  0  0  0  0
    0.2240    3.3791    3.3257 H   0  0  0  0  0  0  0  0  0  0  0  0
   -0.3477    3.9067    1.7239 H   0  0  0  0  0  0  0  0  0  0  0  0
  5  6  2  0  0  0  0
  5  7  1  0  0  0  0
  2  3  1  0  0  0  0
  2  4  1  0  0  0  0
  2  5  1  0  0  0  0
  1  2  1  0  0  0  0
 26 27  2  0  0  0  0
 26 28  1  0  0  0  0
 23 24  1  0  0  0  0
 23 25  1  0  0  0  0
 20 21  1  0  0  0  0
 20 22  1  0  0  0  0
 20 23  1  0  0  0  0
 17 18  1  0  0  0  0
 17 19  1  0  0  0  0
 17 20  1  0  0  0  0
 14 15  1  0  0  0  0
 14 16  1  0  0  0  0
 14 17  1  0  0  0  0
 11 12  1  0  0  0  0
 11 13  1  0  0  0  0
 11 14  1  0  0  0  0
  9 10  1  0  0  0  0
  9 11  1  0  0  0  0
  9 26  1  0  0  0  0
  7  8  1  0  0  0  0
  7  9  1  0  0  0  0
 30 31  1  0  0  0  0
 30 32  1  0  0  0  0
 30 33  1  0  0  0  0
 28 29  1  0  0  0  0
 28 30  1  0  0  0  0
M  END
$$$$
default_name
  -OEChem-02102213163D

 33 32  0     1  0  0  0  0  0999 V2000
   -3.8420   -3.6918    1.5562 H   0  0  0  0  0  0  0  0  0  0  0  0
   -3.8430   -2.7008    1.1032 C   0  0  0  0  0  0  0  0  0  0  0  0
   -4.5510   -2.0608    1.6242 H   0  0  0  0  0  0  0  0  0  0  0  0
   -4.1140   -2.7798    0.0522 H   0  0  0  0  0  0  0  0  0  0  0  0
   -2.4570   -2.1098    1.2172 C   0  0  0  0  0  0  0  0  0  0  0  0
   -1.5600   -2.7438    1.7572 O   0  0  0  0  0  0  0  0  0  0  0  0
   -2.2870   -0.8898    0.7102 N   0  0  0  0  0  0  0  0  0  0  0  0
   -3.0820   -0.4218    0.2992 H   0  0  0  0  0  0  0  0  0  0  0  0
   -1.0240   -0.1468    0.7262 C   0  0  1  0  0  0  0  0  0  0  0  0
   -0.3583   -0.6100    1.4558 H   0  0  0  0  0  0  0  0  0  0  0  0
   -0.3739   -0.2459   -0.6675 C   0  0  0  0  0  0  0  0  0  0  0  0
    0.5682    0.3058   -0.6510 H   0  0  0  0  0  0  0  0  0  0  0  0
   -0.1526   -1.2912   -0.8876 H   0  0  0  0  0  0  0  0  0  0  0  0
   -1.2494    0.3336   -1.7895 C   0  0  0  0  0  0  0  0  0  0  0  0
   -1.2244    1.4229   -1.7478 H   0  0  0  0  0  0  0  0  0  0  0  0
   -0.8607    0.0039   -2.7547 H   0  0  0  0  0  0  0  0  0  0  0  0
   -2.7027   -0.1321   -1.6457 C   0  0  0  0  0  0  0  0  0  0  0  0
   -2.7434   -1.2213   -1.6778 H   0  0  0  0  0  0  0  0  0  0  0  0
   -3.1033    0.2154   -0.6929 H   0  0  0  0  0  0  0  0  0  0  0  0
   -3.5448    0.4372   -2.7858 C   0  0  0  0  0  0  0  0  0  0  0  0
   -3.5208    1.5250   -2.7447 H   0  0  0  0  0  0  0  0  0  0  0  0
   -3.1356    0.1056   -3.7387 H   0  0  0  0  0  0  0  0  0  0  0  0
   -4.9395   -0.0091   -2.6917 N   0  0  0  0  0  0  0  0  0  0  0  0
   -5.4682    0.3959   -3.4503 H   0  0  0  0  0  0  0  0  0  0  0  0
   -4.9705   -1.0164   -2.7616 H   0  0  0  0  0  0  0  0  0  0  0  0
   -1.2712    1.3099    1.1517 C   0  0  0  0  0  0  0  0  0  0  0  0
   -2.2039    1.9448    0.6639 O   0  0  0  0  0  0  0  0  0  0  0  0
   -0.4306    1.8354    2.0503 N   0  0  0  0  0  0  0  0  0  0  0  0
    0.3001    1.2459    2.4139 H   0  0  0  0  0  0  0  0  0  0  0  0
   -0.5192    3.2082    2.5456 C   0  0  0  0  0  0  0  0  0  0  0  0
   -1.5166    3.3903    2.9518 H   0  0  0  0  0  0  0  0  0  0  0  0
    0.2240    3.3791    3.3257 H   0  0  0  0  0  0  0  0  0  0  0  0
   -0.3477    3.9067    1.7239 H   0  0  0  0  0  0  0  0  0  0  0  0
  5  6  2  0  0  0  0
  5  7  1  0  0  0  0
  2  3  1  0  0  0  0
  2  4  1  0  0  0  0
  2  5  1  0  0  0  0
  1  2  1  0  0  0  0
 26 27  2  0  0  0  0
 26 28  1  0  0  0  0
 23 24  1  0  0  0  0
 23 25  1  0  0  0  0
 20 21  1  0  0  0  0
 20 22  1  0  0  0  0
 20 23  1  0  0  0  0
 17 18  1  0  0  0  0
 17 19  1  0  0  0  0
 17 20  1  0  0  0  0
 14 15  1  0  0  0  0
 14 16  1  0  0  0  0
 14 17  1  0  0  0  0
 11 12  1  0  0  0  0
 11 13  1  0  0  0  0
 11 14  1  0  0  0  0
  9 10  1  0  0  0  0
  9 11  1  0  0  0  0
  9 26  1  0  0  0  0
  7  8  1  0  0  0  0
  7  9  1  0  0  0  0
 30 31  1  0  0  0  0
 30 32  1  0  0  0  0
 30 33  1  0  0  0  0
 28 29  1  0  0  0  0
 28 30  1  0  0  0  0
M  END
$$$$
default_name
  -OEChem-02102213163D

 33 32  0     1  0  0  0  0  0999 V2000
   -3.8420   -3.6918    1.5562 H   0  0  0  0  0  0  0  0  0  0  0  0
   -3.8430   -2.7008    1.1032 C   0  0  0  0  0  0  0  0  0  0  0  0
   -4.5510   -2.0608    1.6242 H   0  0  0  0  0  0  0  0  0  0  0  0
   -4.1140   -2.7798    0.0522 H   0  0  0  0  0  0  0  0  0  0  0  0
   -2.4570   -2.1098    1.2172 C   0  0  0  0  0  0  0  0  0  0  0  0
   -1.5600   -2.7438    1.7572 O   0  0  0  0  0  0  0  0  0  0  0  0
   -2.2870   -0.8898    0.7102 N   0  0  0  0  0  0  0  0  0  0  0  0
   -3.0820   -0.4218    0.2992 H   0  0  0  0  0  0  0  0  0  0  0  0
   -1.0240   -0.1468    0.7262 C   0  0  1  0  0  0  0  0  0  0  0  0
   -0.3583   -0.6100    1.4558 H   0  0  0  0  0  0  0  0  0  0  0  0
   -0.3739   -0.2459   -0.6675 C   0  0  0  0  0  0  0  0  0  0  0  0
    0.5682    0.3058   -0.6510 H   0  0  0  0  0  0  0  0  0  0  0  0
   -0.1526   -1.2912   -0.8876 H   0  0  0  0  0  0  0  0  0  0  0  0
   -1.2494    0.3336   -1.7895 C   0  0  0  0  0  0  0  0  0  0  0  0
   -1.0224    1.3919   -1.9214 H   0  0  0  0  0  0  0  0  0  0  0  0
   -1.0375   -0.1961   -2.7201 H   0  0  0  0  0  0  0  0  0  0  0  0
   -2.7378    0.1866   -1.4537 C   0  0  0  0  0  0  0  0  0  0  0  0
   -2.9790   -0.8672   -1.3110 H   0  0  0  0  0  0  0  0  0  0  0  0
   -2.9595    0.7342   -0.5372 H   0  0  0  0  0  0  0  0  0  0  0  0
   -3.5845    0.7472   -2.5947 C   0  0  0  0  0  0  0  0  0  0  0  0
   -3.3588    1.8042   -2.7268 H   0  0  0  0  0  0  0  0  0  0  0  0
   -3.3515    0.2134   -3.5146 H   0  0  0  0  0  0  0  0  0  0  0  0
   -5.0177    0.6007   -2.3157 N   0  0  0  0  0  0  0  0  0  0  0  0
   -5.5455    0.9929   -3.0817 H   0  0  0  0  0  0  0  0  0  0  0  0
   -5.2387   -0.3807   -2.2239 H   0  0  0  0  0  0  0  0  0  0  0  0
   -1.2712    1.3099    1.1517 C   0  0  0  0  0  0  0  0  0  0  0  0
   -2.2039    1.9448    0.6639 O   0  0  0  0  0  0  0  0  0  0  0  0
   -0.4306    1.8354    2.0503 N   0  0  0  0  0  0  0  0  0  0  0  0
    0.3001    1.2459    2.4139 H   0  0  0  0  0  0  0  0  0  0  0  0
   -0.5192    3.2082    2.5456 C   0  0  0  0  0  0  0  0  0  0  0  0
   -1.5166    3.3903    2.9518 H   0  0  0  0  0  0  0  0  0  0  0  0
    0.2240    3.3791    3.3257 H   0  0  0  0  0  0  0  0  0  0  0  0
   -0.3477    3.9067    1.7239 H   0  0  0  0  0  0  0  0  0  0  0  0
  5  6  2  0  0  0  0
  5  7  1  0  0  0  0
  2  3  1  0  0  0  0
  2  4  1  0  0  0  0
  2  5  1  0  0  0  0
  1  2  1  0  0  0  0
 26 27  2  0  0  0  0
 26 28  1  0  0  0  0
 23 24  1  0  0  0  0
 23 25  1  0  0  0  0
 20 21  1  0  0  0  0
 20 22  1  0  0  0  0
 20 23  1  0  0  0  0
 17 18  1  0  0  0  0
 17 19  1  0  0  0  0
 17 20  1  0  0  0  0
 14 15  1  0  0  0  0
 14 16  1  0  0  0  0
 14 17  1  0  0  0  0
 11 12  1  0  0  0  0
 11 13  1  0  0  0  0
 11 14  1  0  0  0  0
  9 10  1  0  0  0  0
  9 11  1  0  0  0  0
  9 26  1  0  0  0  0
  7  8  1  0  0  0  0
  7  9  1  0  0  0  0
 30 31  1  0  0  0  0
 30 32  1  0  0  0  0
 30 33  1  0  0  0  0
 28 29  1  0  0  0  0
 28 30  1  0  0  0  0
M  END
$$$$
default_name
  -OEChem-02102213163D

 33 32  0     1  0  0  0  0  0999 V2000
   -3.8420   -3.6918    1.5562 H   0  0  0  0  0  0  0  0  0  0  0  0
   -3.8430   -2.7008    1.1032 C   0  0  0  0  0  0  0  0  0  0  0  0
   -4.5510   -2.0608    1.6242 H   0  0  0  0  0  0  0  0  0  0  0  0
   -4.1140   -2.7798    0.0522 H   0  0  0  0  0  0  0  0  0  0  0  0
   -2.4570   -2.1098    1.2172 C   0  0  0  0  0  0  0  0  0  0  0  0
   -1.5600   -2.7438    1.7572 O   0  0  0  0  0  0  0  0  0  0  0  0
   -2.2870   -0.8898    0.7102 N   0  0  0  0  0  0  0  0  0  0  0  0
   -3.0820   -0.4218    0.2992 H   0  0  0  0  0  0  0  0  0  0  0  0
   -1.0240   -0.1468    0.7262 C   0  0  1  0  0  0  0  0  0  0  0  0
   -0.3583   -0.6100    1.4558 H   0  0  0  0  0  0  0  0  0  0  0  0
   -0.3739   -0.2459   -0.6675 C   0  0  0  0  0  0  0  0  0  0  0  0
    0.5682    0.3058   -0.6510 H   0  0  0  0  0  0  0  0  0  0  0  0
   -0.1526   -1.2912   -0.8876 H   0  0  0  0  0  0  0  0  0  0  0  0
   -1.2494    0.3336   -1.7895 C   0  0  0  0  0  0  0  0  0  0  0  0
   -0.8501    1.2982   -2.1042 H   0  0  0  0  0  0  0  0  0  0  0  0
   -1.2426   -0.3507   -2.6399 H   0  0  0  0  0  0  0  0  0  0  0  0
   -2.6927    0.5295   -1.3118 C   0  0  0  0  0  0  0  0  0  0  0  0
   -3.1038   -0.4265   -0.9860 H   0  0  0  0  0  0  0  0  0  0  0  0
   -2.7074    1.2311   -0.4772 H   0  0  0  0  0  0  0  0  0  0  0  0
   -3.5457    1.0824   -2.4519 C   0  0  0  0  0  0  0  0  0  0  0  0
   -3.1479    2.0459   -2.7666 H   0  0  0  0  0  0  0  0  0  0  0  0
   -3.5178    0.3914   -3.2929 H   0  0  0  0  0  0  0  0  0  0  0  0
   -4.9413    1.2600   -2.0349 N   0  0  0  0  0  0  0  0  0  0  0  0
   -5.4713    1.6386   -2.8061 H   0  0  0  0  0  0  0  0  0  0  0  0
   -5.3252    0.3634   -1.7721 H   0  0  0  0  0  0  0  0  0  0  0  0
   -1.2712    1.3099    1.1517 C   0  0  0  0  0  0  0  0  0  0  0  0
   -2.2039    1.9448    0.6639 O   0  0  0  0  0  0  0  0  0  0  0  0
   -0.4306    1.8354    2.0503 N   0  0  0  0  0  0  0  0  0  0  0  0
    0.3001    1.2459    2.4139 H   0  0  0  0  0  0  0  0  0  0  0  0
   -0.5192    3.2082    2.5456 C   0  0  0  0  0  0  0  0  0  0  0  0
   -1.5166    3.3903    2.9518 H   0  0  0  0  0  0  0  0  0  0  0  0
    0.2240    3.3791    3.3257 H   0  0  0  0  0  0  0  0  0  0  0  0
   -0.3477    3.9067    1.7239 H   0  0  0  0  0  0  0  0  0  0  0  0
  5  6  2  0  0  0  0
  5  7  1  0  0  0  0
  2  3  1  0  0  0  0
  2  4  1  0  0  0  0
  2  5  1  0  0  0  0
  1  2  1  0  0  0  0
 26 27  2  0  0  0  0
 26 28  1  0  0  0  0
 23 24  1  0  0  0  0
 23 25  1  0  0  0  0
 20 21  1  0  0  0  0
 20 22  1  0  0  0  0
 20 23  1  0  0  0  0
 17 18  1  0  0  0  0
 17 19  1  0  0  0  0
 17 20  1  0  0  0  0
 14 15  1  0  0  0  0
 14 16  1  0  0  0  0
 14 17  1  0  0  0  0
 11 12  1  0  0  0  0
 11 13  1  0  0  0  0
 11 14  1  0  0  0  0
  9 10  1  0  0  0  0
  9 11  1  0  0  0  0
  9 26  1  0  0  0  0
  7  8  1  0  0  0  0
  7  9  1  0  0  0  0
 30 31  1  0  0  0  0
 30 32  1  0  0  0  0
 30 33  1  0  0  0  0
 28 29  1  0  0  0  0
 28 30  1  0  0  0  0
M  END
$$$$
default_name
  -OEChem-02102213163D

 33 32  0     1  0  0  0  0  0999 V2000
   -3.8420   -3.6918    1.5562 H   0  0  0  0  0  0  0  0  0  0  0  0
   -3.8430   -2.7008    1.1032 C   0  0  0  0  0  0  0  0  0  0  0  0
   -4.5510   -2.0608    1.6242 H   0  0  0  0  0  0  0  0  0  0  0  0
   -4.1140   -2.7798    0.0522 H   0  0  0  0  0  0  0  0  0  0  0  0
   -2.4570   -2.1098    1.2172 C   0  0  0  0  0  0  0  0  0  0  0  0
   -1.5600   -2.7438    1.7572 O   0  0  0  0  0  0  0  0  0  0  0  0
   -2.2870   -0.8898    0.7102 N   0  0  0  0  0  0  0  0  0  0  0  0
   -3.0820   -0.4218    0.2992 H   0  0  0  0  0  0  0  0  0  0  0  0
   -1.0240   -0.1468    0.7262 C   0  0  1  0  0  0  0  0  0  0  0  0
   -0.3583   -0.6100    1.4558 H   0  0  0  0  0  0  0  0  0  0  0  0
   -0.3739   -0.2459   -0.6675 C   0  0  0  0  0  0  0  0  0  0  0  0
    0.5682    0.3058   -0.6510 H   0  0  0  0  0  0  0  0  0  0  0  0
   -0.1526   -1.2912   -0.8876 H   0  0  0  0  0  0  0  0  0  0  0  0
   -1.2494    0.3336   -1.7895 C   0  0  0  0  0  0  0  0  0  0  0  0
   -0.7192    1.1482   -2.2838 H   0  0  0  0  0  0  0  0  0  0  0  0
   -1.4621   -0.4494   -2.5196 H   0  0  0  0  0  0  0  0  0  0  0  0
   -2.5705    0.8731   -1.2297 C   0  0  0  0  0  0  0  0  0  0  0  0
   -3.1094    0.0707   -0.7248 H   0  0  0  0  0  0  0  0  0  0  0  0
   -2.3641    1.6723   -0.5172 H   0  0  0  0  0  0  0  0  0  0  0  0
   -3.4308    1.4198   -2.3672 C   0  0  0  0  0  0  0  0  0  0  0  0
   -2.9024    2.2336   -2.8612 H   0  0  0  0  0  0  0  0  0  0  0  0
   -3.6232    0.6274   -3.0888 H   0  0  0  0  0  0  0  0  0  0  0  0
   -4.7155    1.9237   -1.8682 N   0  0  0  0  0  0  0  0  0  0  0  0
   -5.2507    2.2889   -2.6423 H   0  0  0  0  0  0  0  0  0  0  0  0
   -5.2241    1.1650   -1.4370 H   0  0  0  0  0  0  0  0  0  0  0  0
   -1.2712    1.3099    1.1517 C   0  0  0  0  0  0  0  0  0  0  0  0
   -2.2039    1.9448    0.6639 O   0  0  0  0  0  0  0  0  0  0  0  0
   -0.4306    1.8354    2.0503 N   0  0  0  0  0  0  0  0  0  0  0  0
    0.3001    1.2459    2.4139 H   0  0  0  0  0  0  0  0  0  0  0  0
   -0.5192    3.2082    2.5456 C   0  0  0  0  0  0  0  0  0  0  0  0
   -1.5166    3.3903    2.9518 H   0  0  0  0  0  0  0  0  0  0  0  0
    0.2240    3.3791    3.3257 H   0  0  0  0  0  0  0  0  0  0  0  0
   -0.3477    3.9067    1.7239 H   0  0  0  0  0  0  0  0  0  0  0  0
  5  6  2  0  0  0  0
  5  7  1  0  0  0  0
  2  3  1  0  0  0  0
  2  4  1  0  0  0  0
  2  5  1  0  0  0  0
  1  2  1  0  0  0  0
 26 27  2  0  0  0  0
 26 28  1  0  0  0  0
 23 24  1  0  0  0  0
 23 25  1  0  0  0  0
 20 21  1  0  0  0  0
 20 22  1  0  0  0  0
 20 23  1  0  0  0  0
 17 18  1  0  0  0  0
 17 19  1  0  0  0  0
 17 20  1  0  0  0  0
 14 15  1  0  0  0  0
 14 16  1  0  0  0  0
 14 17  1  0  0  0  0
 11 12  1  0  0  0  0
 11 13  1  0  0  0  0
 11 14  1  0  0  0  0
  9 10  1  0  0  0  0
  9 11  1  0  0  0  0
  9 26  1  0  0  0  0
  7  8  1  0  0  0  0
  7  9  1  0  0  0  0
 30 31  1  0  0  0  0
 30 32  1  0  0  0  0
 30 33  1  0  0  0  0
 28 29  1  0  0  0  0
 28 30  1  0  0  0  0
M  END
$$$$
default_name
  -OEChem-02102213163D

 33 32  0     1  0  0  0  0  0999 V2000
   -3.8420   -3.6918    1.5562 H   0  0  0  0  0  0  0  0  0  0  0  0
   -3.8430   -2.7008    1.1032 C   0  0  0  0  0  0  0  0  0  0  0  0
   -4.5510   -2.0608    1.6242 H   0  0  0  0  0  0  0  0  0  0  0  0
   -4.1140   -2.7798    0.0522 H   0  0  0  0  0  0  0  0  0  0  0  0
   -2.4570   -2.1098    1.2172 C   0  0  0  0  0  0  0  0  0  0  0  0
   -1.5600   -2.7438    1.7572 O   0  0  0  0  0  0  0  0  0  0  0  0
   -2.2870   -0.8898    0.7102 N   0  0  0  0  0  0  0  0  0  0  0  0
   -3.0820   -0.4218    0.2992 H   0  0  0  0  0  0  0  0  0  0  0  0
   -1.0240   -0.1468    0.7262 C   0  0  1  0  0  0  0  0  0  0  0  0
   -0.3583   -0.6100    1.4558 H   0  0  0  0  0  0  0  0  0  0  0  0
   -0.3739   -0.2459   -0.6675 C   0  0  0  0  0  0  0  0  0  0  0  0
    0.5682    0.3058   -0.6510 H   0  0  0  0  0  0  0  0  0  0  0  0
   -0.1526   -1.2912   -0.8876 H   0  0  0  0  0  0  0  0  0  0  0  0
   -1.2494    0.3336   -1.7895 C   0  0  0  0  0  0  0  0  0  0  0  0
   -0.6387    0.9520   -2.4479 H   0  0  0  0  0  0  0  0  0  0  0  0
   -1.6811   -0.4856   -2.3674 H   0  0  0  0  0  0  0  0  0  0  0  0
   -2.3795    1.1939   -1.2130 C   0  0  0  0  0  0  0  0  0  0  0  0
   -2.9954    0.5906   -0.5453 H   0  0  0  0  0  0  0  0  0  0  0  0
   -1.9530    2.0277   -0.6544 H   0  0  0  0  0  0  0  0  0  0  0  0
   -3.2479    1.7365   -2.3464 C   0  0  0  0  0  0  0  0  0  0  0  0
   -2.6390    2.3546   -3.0042 H   0  0  0  0  0  0  0  0  0  0  0  0
   -3.6604    0.9054   -2.9161 H   0  0  0  0  0  0  0  0  0  0  0  0
   -4.3557    2.5468   -1.8272 N   0  0  0  0  0  0  0  0  0  0  0  0
   -4.8987    2.8994   -2.6016 H   0  0  0  0  0  0  0  0  0  0  0  0
   -4.9422    1.9696   -1.2414 H   0  0  0  0  0  0  0  0  0  0  0  0
   -1.2712    1.3099    1.1517 C   0  0  0  0  0  0  0  0  0  0  0  0
   -2.2039    1.9448    0.6639 O   0  0  0  0  0  0  0  0  0  0  0  0
   -0.4306    1.8354    2.0503 N   0  0  0  0  0  0  0  0  0  0  0  0
    0.3001    1.2459    2.4139 H   0  0  0  0  0  0  0  0  0  0  0  0
   -0.5192    3.2082    2.5456 C   0  0  0  0  0  0  0  0  0  0  0  0
   -1.5166    3.3903    2.9518 H   0  0  0  0  0  0  0  0  0  0  0  0
    0.2240    3.3791    3.3257 H   0  0  0  0  0  0  0  0  0  0  0  0
   -0.3477    3.9067    1.7239 H   0  0  0  0  0  0  0  0  0  0  0  0
  5  6  2  0  0  0  0
  5  7  1  0  0  0  0
  2  3  1  0  0  0  0
  2  4  1  0  0  0  0
  2  5  1  0  0  0  0
  1  2  1  0  0  0  0
 26 27  2  0  0  0  0
 26 28  1  0  0  0  0
 23 24  1  0  0  0  0
 23 25  1  0  0  0  0
 20 21  1  0  0  0  0
 20 22  1  0  0  0  0
 20 23  1  0  0  0  0
 17 18  1  0  0  0  0
 17 19  1  0  0  0  0
 17 20  1  0  0  0  0
 14 15  1  0  0  0  0
 14 16  1  0  0  0  0
 14 17  1  0  0  0  0
 11 12  1  0  0  0  0
 11 13  1  0  0  0  0
 11 14  1  0  0  0  0
  9 10  1  0  0  0  0
  9 11  1  0  0  0  0
  9 26  1  0  0  0  0
  7  8  1  0  0  0  0
  7  9  1  0  0  0  0
 30 31  1  0  0  0  0
 30 32  1  0  0  0  0
 30 33  1  0  0  0  0
 28 29  1  0  0  0  0
 28 30  1  0  0  0  0
M  END
$$$$
default_name
  -OEChem-02102213163D

 33 32  0     1  0  0  0  0  0999 V2000
   -3.8420   -3.6918    1.5562 H   0  0  0  0  0  0  0  0  0  0  0  0
   -3.8430   -2.7008    1.1032 C   0  0  0  0  0  0  0  0  0  0  0  0
   -4.5510   -2.0608    1.6242 H   0  0  0  0  0  0  0  0  0  0  0  0
   -4.1140   -2.7798    0.0522 H   0  0  0  0  0  0  0  0  0  0  0  0
   -2.4570   -2.1098    1.2172 C   0  0  0  0  0  0  0  0  0  0  0  0
   -1.5600   -2.7438    1.7572 O   0  0  0  0  0  0  0  0  0  0  0  0
   -2.2870   -0.8898    0.7102 N   0  0  0  0  0  0  0  0  0  0  0  0
   -3.0820   -0.4218    0.2992 H   0  0  0  0  0  0  0  0  0  0  0  0
   -1.0240   -0.1468    0.7262 C   0  0  1  0  0  0  0  0  0  0  0  0
   -0.3583   -0.6100    1.4558 H   0  0  0  0  0  0  0  0  0  0  0  0
   -0.3739   -0.2459   -0.6675 C   0  0  0  0  0  0  0  0  0  0  0  0
    0.5682    0.3058   -0.6510 H   0  0  0  0  0  0  0  0  0  0  0  0
   -0.1526   -1.2912   -0.8876 H   0  0  0  0  0  0  0  0  0  0  0  0
   -1.2494    0.3336   -1.7895 C   0  0  0  0  0  0  0  0  0  0  0  0
   -0.6140    0.7232   -2.5854 H   0  0  0  0  0  0  0  0  0  0  0  0
   -1.8846   -0.4567   -2.1937 H   0  0  0  0  0  0  0  0  0  0  0  0
   -2.1328    1.4703   -1.2628 C   0  0  0  0  0  0  0  0  0  0  0  0
   -2.7694    1.0976   -0.4597 H   0  0  0  0  0  0  0  0  0  0  0  0
   -1.5022    2.2730   -0.8795 H   0  0  0  0  0  0  0  0  0  0  0  0
   -3.0093    2.0109   -2.3908 C   0  0  0  0  0  0  0  0  0  0  0  0
   -2.3757    2.4006   -3.1859 H   0  0  0  0  0  0  0  0  0  0  0  0
   -3.6270    1.2064   -2.7867 H   0  0  0  0  0  0  0  0  0  0  0  0
   -3.8863    3.0867   -1.9145 N   0  0  0  0  0  0  0  0  0  0  0  0
   -4.4394    3.4287   -2.6866 H   0  0  0  0  0  0  0  0  0  0  0  0
   -4.4987    2.7224   -1.1986 H   0  0  0  0  0  0  0  0  0  0  0  0
   -1.2712    1.3099    1.1517 C   0  0  0  0  0  0  0  0  0  0  0  0
   -2.2039    1.9448    0.6639 O   0  0  0  0  0  0  0  0  0  0  0  0
   -0.4306    1.8354    2.0503 N   0  0  0  0  0  0  0  0  0  0  0  0
    0.3001    1.2459    2.4139 H   0  0  0  0  0  0  0  0  0  0  0  0
   -0.5192    3.2082    2.5456 C   0  0  0  0  0  0  0  0  0  0  0  0
   -1.5166    3.3903    2.9518 H   0  0  0  0  0  0  0  0  0  0  0  0
    0.2240    3.3791    3.3257 H   0  0  0  0  0  0  0  0  0  0  0  0
   -0.3477    3.9067    1.7239 H   0  0  0  0  0  0  0  0  0  0  0  0
  5  6  2  0  0  0  0
  5  7  1  0  0  0  0
  2  3  1  0  0  0  0
  2  4  1  0  0  0  0
  2  5  1  0  0  0  0
  1  2  1  0  0  0  0
 26 27  2  0  0  0  0
 26 28  1  0  0  0  0
 23 24  1  0  0  0  0
 23 25  1  0  0  0  0
 20 21  1  0  0  0  0
 20 22  1  0  0  0  0
 20 23  1  0  0  0  0
 17 18  1  0  0  0  0
 17 19  1  0  0  0  0
 17 20  1  0  0  0  0
 14 15  1  0  0  0  0
 14 16  1  0  0  0  0
 14 17  1  0  0  0  0
 11 12  1  0  0  0  0
 11 13  1  0  0  0  0
 11 14  1  0  0  0  0
  9 10  1  0  0  0  0
  9 11  1  0  0  0  0
  9 26  1  0  0  0  0
  7  8  1  0  0  0  0
  7  9  1  0  0  0  0
 30 31  1  0  0  0  0
 30 32  1  0  0  0  0
 30 33  1  0  0  0  0
 28 29  1  0  0  0  0
 28 30  1  0  0  0  0
M  END
$$$$
default_name
  -OEChem-02102213163D

 33 32  0     1  0  0  0  0  0999 V2000
   -3.8420   -3.6918    1.5562 H   0  0  0  0  0  0  0  0  0  0  0  0
   -3.8430   -2.7008    1.1032 C   0  0  0  0  0  0  0  0  0  0  0  0
   -4.5510   -2.0608    1.6242 H   0  0  0  0  0  0  0  0  0  0  0  0
   -4.1140   -2.7798    0.0522 H   0  0  0  0  0  0  0  0  0  0  0  0
   -2.4570   -2.1098    1.2172 C   0  0  0  0  0  0  0  0  0  0  0  0
   -1.5600   -2.7438    1.7572 O   0  0  0  0  0  0  0  0  0  0  0  0
   -2.2870   -0.8898    0.7102 N   0  0  0  0  0  0  0  0  0  0  0  0
   -3.0820   -0.4218    0.2992 H   0  0  0  0  0  0  0  0  0  0  0  0
   -1.0240   -0.1468    0.7262 C   0  0  1  0  0  0  0  0  0  0  0  0
   -0.3583   -0.6100    1.4558 H   0  0  0  0  0  0  0  0  0  0  0  0
   -0.3739   -0.2459   -0.6675 C   0  0  0  0  0  0  0  0  0  0  0  0
    0.5682    0.3058   -0.6510 H   0  0  0  0  0  0  0  0  0  0  0  0
   -0.1526   -1.2912   -0.8876 H   0  0  0  0  0  0  0  0  0  0  0  0
   -1.2494    0.3336   -1.7895 C   0  0  0  0  0  0  0  0  0  0  0  0
   -0.6469    0.4772   -2.6868 H   0  0  0  0  0  0  0  0  0  0  0  0
   -2.0587   -0.3647   -2.0104 H   0  0  0  0  0  0  0  0  0  0  0  0
   -1.8471    1.6832   -1.3757 C   0  0  0  0  0  0  0  0  0  0  0  0
   -2.4470    1.5573   -0.4739 H   0  0  0  0  0  0  0  0  0  0  0  0
   -1.0424    2.3916   -1.1771 H   0  0  0  0  0  0  0  0  0  0  0  0
   -2.7313    2.2243   -2.4975 C   0  0  0  0  0  0  0  0  0  0  0  0
   -2.1304    2.3684   -3.3939 H   0  0  0  0  0  0  0  0  0  0  0  0
   -3.5252    1.5100   -2.7094 H   0  0  0  0  0  0  0  0  0  0  0  0
   -3.3395    3.5066   -2.1243 N   0  0  0  0  0  0  0  0  0  0  0  0
   -3.9040    3.8406   -2.8916 H   0  0  0  0  0  0  0  0  0  0  0  0
   -3.9239    3.3721   -1.3115 H   0  0  0  0  0  0  0  0  0  0  0  0
   -1.2712    1.3099    1.1517 C   0  0  0  0  0  0  0  0  0  0  0  0
   -2.2039    1.9448    0.6639 O   0  0  0  0  0  0  0  0  0  0  0  0
   -0.4306    1.8354    2.0503 N   0  0  0  0  0  0  0  0  0  0  0  0
    0.3001    1.2459    2.4139 H   0  0  0  0  0  0  0  0  0  0  0  0
   -0.5192    3.2082    2.5456 C   0  0  0  0  0  0  0  0  0  0  0  0
   -1.5166    3.3903    2.9518 H   0  0  0  0  0  0  0  0  0  0  0  0
    0.2240    3.3791    3.3257 H   0  0  0  0  0  0  0  0  0  0  0  0
   -0.3477    3.9067    1.7239 H   0  0  0  0  0  0  0  0  0  0  0  0
  5  6  2  0  0  0  0
  5  7  1  0  0  0  0
  2  3  1  0  0  0  0
  2  4  1  0  0  0  0
  2  5  1  0  0  0  0
  1  2  1  0  0  0  0
 26 27  2  0  0  0  0
 26 28  1  0  0  0  0
 23 24  1  0  0  0  0
 23 25  1  0  0  0  0
 20 21  1  0  0  0  0
 20 22  1  0  0  0  0
 20 23  1  0  0  0  0
 17 18  1  0  0  0  0
 17 19  1  0  0  0  0
 17 20  1  0  0  0  0
 14 15  1  0  0  0  0
 14 16  1  0  0  0  0
 14 17  1  0  0  0  0
 11 12  1  0  0  0  0
 11 13  1  0  0  0  0
 11 14  1  0  0  0  0
  9 10  1  0  0  0  0
  9 11  1  0  0  0  0
  9 26  1  0  0  0  0
  7  8  1  0  0  0  0
  7  9  1  0  0  0  0
 30 31  1  0  0  0  0
 30 32  1  0  0  0  0
 30 33  1  0  0  0  0
 28 29  1  0  0  0  0
 28 30  1  0  0  0  0
M  END
$$$$
default_name
  -OEChem-02102213163D

 33 32  0     1  0  0  0  0  0999 V2000
   -3.8420   -3.6918    1.5562 H   0  0  0  0  0  0  0  0  0  0  0  0
   -3.8430   -2.7008    1.1032 C   0  0  0  0  0  0  0  0  0  0  0  0
   -4.5510   -2.0608    1.6242 H   0  0  0  0  0  0  0  0  0  0  0  0
   -4.1140   -2.7798    0.0522 H   0  0  0  0  0  0  0  0  0  0  0  0
   -2.4570   -2.1098    1.2172 C   0  0  0  0  0  0  0  0  0  0  0  0
   -1.5600   -2.7438    1.7572 O   0  0  0  0  0  0  0  0  0  0  0  0
   -2.2870   -0.8898    0.7102 N   0  0  0  0  0  0  0  0  0  0  0  0
   -3.0820   -0.4218    0.2992 H   0  0  0  0  0  0  0  0  0  0  0  0
   -1.0240   -0.1468    0.7262 C   0  0  1  0  0  0  0  0  0  0  0  0
   -0.3583   -0.6100    1.4558 H   0  0  0  0  0  0  0  0  0  0  0  0
   -0.3739   -0.2459   -0.6675 C   0  0  0  0  0  0  0  0  0  0  0  0
    0.5682    0.3058   -0.6510 H   0  0  0  0  0  0  0  0  0  0  0  0
   -0.1526   -1.2912   -0.8876 H   0  0  0  0  0  0  0  0  0  0  0  0
   -1.2494    0.3336   -1.7895 C   0  0  0  0  0  0  0  0  0  0  0  0
   -0.7350    0.2308   -2.7454 H   0  0  0  0  0  0  0  0  0  0  0  0
   -2.1917   -0.2160   -1.8298 H   0  0  0  0  0  0  0  0  0  0  0  0
   -1.5419    1.8182   -1.5441 C   0  0  0  0  0  0  0  0  0  0  0  0
   -2.0501    1.9382   -0.5868 H   0  0  0  0  0  0  0  0  0  0  0  0
   -0.6048    2.3754   -1.5269 H   0  0  0  0  0  0  0  0  0  0  0  0
   -2.4329    2.3622   -2.6591 C   0  0  0  0  0  0  0  0  0  0  0  0
   -1.9198    2.2604   -3.6141 H   0  0  0  0  0  0  0  0  0  0  0  0
   -3.3619    1.7953   -2.6894 H   0  0  0  0  0  0  0  0  0  0  0  0
   -2.7524    3.7779   -2.4423 N   0  0  0  0  0  0  0  0  0  0  0  0
   -3.3291    4.1070   -3.2027 H   0  0  0  0  0  0  0  0  0  0  0  0
   -3.2570    3.8743   -1.5726 H   0  0  0  0  0  0  0  0  0  0  0  0
   -1.2712    1.3099    1.1517 C   0  0  0  0  0  0  0  0  0  0  0  0
   -2.2039    1.9448    0.6639 O   0  0  0  0  0  0  0  0  0  0  0  0
   -0.4306    1.8354    2.0503 N   0  0  0  0  0  0  0  0  0  0  0  0
    0.3001    1.2459    2.4139 H   0  0  0  0  0  0  0  0  0  0  0  0
   -0.5192    3.2082    2.5456 C   0  0  0  0  0  0  0  0  0  0  0  0
   -1.5166    3.3903    2.9518 H   0  0  0  0  0  0  0  0  0  0  0  0
    0.2240    3.3791    3.3257 H   0  0  0  0  0  0  0  0  0  0  0  0
   -0.3477    3.9067    1.7239 H   0  0  0  0  0  0  0  0  0  0  0  0
  5  6  2  0  0  0  0
  5  7  1  0  0  0  0
  2  3  1  0  0  0  0
  2  4  1  0  0  0  0
  2  5  1  0  0  0  0
  1  2  1  0  0  0  0
 26 27  2  0  0  0  0
 26 28  1  0  0  0  0
 23 24  1  0  0  0  0
 23 25  1  0  0  0  0
 20 21  1  0  0  0  0
 20 22  1  0  0  0  0
 20 23  1  0  0  0  0
 17 18  1  0  0  0  0
 17 19  1  0  0  0  0
 17 20  1  0  0  0  0
 14 15  1  0  0  0  0
 14 16  1  0  0  0  0
 14 17  1  0  0  0  0
 11 12  1  0  0  0  0
 11 13  1  0  0  0  0
 11 14  1  0  0  0  0
  9 10  1  0  0  0  0
  9 11  1  0  0  0  0
  9 26  1  0  0  0  0
  7  8  1  0  0  0  0
  7  9  1  0  0  0  0
 30 31  1  0  0  0  0
 30 32  1  0  0  0  0
 30 33  1  0  0  0  0
 28 29  1  0  0  0  0
 28 30  1  0  0  0  0
M  END
$$$$
default_name
  -OEChem-02102213163D

 33 32  0     1  0  0  0  0  0999 V2000
   -3.8420   -3.6918    1.5562 H   0  0  0  0  0  0  0  0  0  0  0  0
   -3.8430   -2.7008    1.1032 C   0  0  0  0  0  0  0  0  0  0  0  0
   -4.5510   -2.0608    1.6242 H   0  0  0  0  0  0  0  0  0  0  0  0
   -4.1140   -2.7798    0.0522 H   0  0  0  0  0  0  0  0  0  0  0  0
   -2.4570   -2.1098    1.2172 C   0  0  0  0  0  0  0  0  0  0  0  0
   -1.5600   -2.7438    1.7572 O   0  0  0  0  0  0  0  0  0  0  0  0
   -2.2870   -0.8898    0.7102 N   0  0  0  0  0  0  0  0  0  0  0  0
   -3.0820   -0.4218    0.2992 H   0  0  0  0  0  0  0  0  0  0  0  0
   -1.0240   -0.1468    0.7262 C   0  0  1  0  0  0  0  0  0  0  0  0
   -0.3583   -0.6100    1.4558 H   0  0  0  0  0  0  0  0  0  0  0  0
   -0.3739   -0.2459   -0.6675 C   0  0  0  0  0  0  0  0  0  0  0  0
    0.5682    0.3058   -0.6510 H   0  0  0  0  0  0  0  0  0  0  0  0
   -0.1526   -1.2912   -0.8876 H   0  0  0  0  0  0  0  0  0  0  0  0
   -1.2494    0.3336   -1.7895 C   0  0  0  0  0  0  0  0  0  0  0  0
   -0.8723    0.0008   -2.7569 H   0  0  0  0  0  0  0  0  0  0  0  0
   -2.2743   -0.0205   -1.6643 H   0  0  0  0  0  0  0  0  0  0  0  0
   -1.2381    1.8661   -1.7565 C   0  0  0  0  0  0  0  0  0  0  0  0
   -1.6057    2.2146   -0.7908 H   0  0  0  0  0  0  0  0  0  0  0  0
   -0.2194    2.2254   -1.9051 H   0  0  0  0  0  0  0  0  0  0  0  0
   -2.1344    2.4152   -2.8647 C   0  0  0  0  0  0  0  0  0  0  0  0
   -1.7583    2.0837   -3.8313 H   0  0  0  0  0  0  0  0  0  0  0  0
   -3.1484    2.0430   -2.7281 H   0  0  0  0  0  0  0  0  0  0  0  0
   -2.1651    3.8822   -2.8467 N   0  0  0  0  0  0  0  0  0  0  0  0
   -2.7537    4.2098   -3.5985 H   0  0  0  0  0  0  0  0  0  0  0  0
   -2.5433    4.1948   -1.9638 H   0  0  0  0  0  0  0  0  0  0  0  0
   -1.2712    1.3099    1.1517 C   0  0  0  0  0  0  0  0  0  0  0  0
   -2.2039    1.9448    0.6639 O   0  0  0  0  0  0  0  0  0  0  0  0
   -0.4306    1.8354    2.0503 N   0  0  0  0  0  0  0  0  0  0  0  0
    0.3001    1.2459    2.4139 H   0  0  0  0  0  0  0  0  0  0  0  0
   -0.5192    3.2082    2.5456 C   0  0  0  0  0  0  0  0  0  0  0  0
   -1.5166    3.3903    2.9518 H   0  0  0  0  0  0  0  0  0  0  0  0
    0.2240    3.3791    3.3257 H   0  0  0  0  0  0  0  0  0  0  0  0
   -0.3477    3.9067    1.7239 H   0  0  0  0  0  0  0  0  0  0  0  0
  5  6  2  0  0  0  0
  5  7  1  0  0  0  0
  2  3  1  0  0  0  0
  2  4  1  0  0  0  0
  2  5  1  0  0  0  0
  1  2  1  0  0  0  0
 26 27  2  0  0  0  0
 26 28  1  0  0  0  0
 23 24  1  0  0  0  0
 23 25  1  0  0  0  0
 20 21  1  0  0  0  0
 20 22  1  0  0  0  0
 20 23  1  0  0  0  0
 17 18  1  0  0  0  0
 17 19  1  0  0  0  0
 17 20  1  0  0  0  0
 14 15  1  0  0  0  0
 14 16  1  0  0  0  0
 14 17  1  0  0  0  0
 11 12  1  0  0  0  0
 11 13  1  0  0  0  0
 11 14  1  0  0  0  0
  9 10  1  0  0  0  0
  9 11  1  0  0  0  0
  9 26  1  0  0  0  0
  7  8  1  0  0  0  0
  7  9  1  0  0  0  0
 30 31  1  0  0  0  0
 30 32  1  0  0  0  0
 30 33  1  0  0  0  0
 28 29  1  0  0  0  0
 28 30  1  0  0  0  0
M  END
$$$$
default_name
  -OEChem-02102213163D

 33 32  0     1  0  0  0  0  0999 V2000
   -3.8420   -3.6918    1.5562 H   0  0  0  0  0  0  0  0  0  0  0  0
   -3.8430   -2.7008    1.1032 C   0  0  0  0  0  0  0  0  0  0  0  0
   -4.5510   -2.0608    1.6242 H   0  0  0  0  0  0  0  0  0  0  0  0
   -4.1140   -2.7798    0.0522 H   0  0  0  0  0  0  0  0  0  0  0  0
   -2.4570   -2.1098    1.2172 C   0  0  0  0  0  0  0  0  0  0  0  0
   -1.5600   -2.7438    1.7572 O   0  0  0  0  0  0  0  0  0  0  0  0
   -2.2870   -0.8898    0.7102 N   0  0  0  0  0  0  0  0  0  0  0  0
   -3.0820   -0.4218    0.2992 H   0  0  0  0  0  0  0  0  0  0  0  0
   -1.0240   -0.1468    0.7262 C   0  0  1  0  0  0  0  0  0  0  0  0
   -0.3583   -0.6100    1.4558 H   0  0  0  0  0  0  0  0  0  0  0  0
   -0.3739   -0.2459   -0.6675 C   0  0  0  0  0  0  0  0  0  0  0  0
    0.5682    0.3058   -0.6510 H   0  0  0  0  0  0  0  0  0  0  0  0
   -0.1526   -1.2912   -0.8876 H   0  0  0  0  0  0  0  0  0  0  0  0
   -1.2494    0.3336   -1.7895 C   0  0  0  0  0  0  0  0  0  0  0  0
   -1.0496   -0.1971   -2.7208 H   0  0  0  0  0  0  0  0  0  0  0  0
   -2.3011    0.2083   -1.5253 H   0  0  0  0  0  0  0  0  0  0  0  0
   -0.9562    1.8237   -1.9983 C   0  0  0  0  0  0  0  0  0  0  0  0
   -1.1442    2.3674   -1.0720 H   0  0  0  0  0  0  0  0  0  0  0  0
    0.0877    1.9520   -2.2859 H   0  0  0  0  0  0  0  0  0  0  0  0
   -1.8561    2.3796   -3.1003 C   0  0  0  0  0  0  0  0  0  0  0  0
   -1.6569    1.8506   -4.0309 H   0  0  0  0  0  0  0  0  0  0  0  0
   -2.8991    2.2362   -2.8228 H   0  0  0  0  0  0  0  0  0  0  0  0
   -1.6175    3.8122   -3.3101 N   0  0  0  0  0  0  0  0  0  0  0  0
   -2.2171    4.1421   -4.0522 H   0  0  0  0  0  0  0  0  0  0  0  0
   -1.8316    4.3119   -2.4587 H   0  0  0  0  0  0  0  0  0  0  0  0
   -1.2712    1.3099    1.1517 C   0  0  0  0  0  0  0  0  0  0  0  0
   -2.2039    1.9448    0.6639 O   0  0  0  0  0  0  0  0  0  0  0  0
   -0.4306    1.8354    2.0503 N   0  0  0  0  0  0  0  0  0  0  0  0
    0.3001    1.2459    2.4139 H   0  0  0  0  0  0  0  0  0  0  0  0
   -0.5192    3.2082    2.5456 C   0  0  0  0  0  0  0  0  0  0  0  0
   -1.5166    3.3903    2.9518 H   0  0  0  0  0  0  0  0  0  0  0  0
    0.2240    3.3791    3.3257 H   0  0  0  0  0  0  0  0  0  0  0  0
   -0.3477    3.9067    1.7239 H   0  0  0  0  0  0  0  0  0  0  0  0
  5  6  2  0  0  0  0
  5  7  1  0  0  0  0
  2  3  1  0  0  0  0
  2  4  1  0  0  0  0
  2  5  1  0  0  0  0
  1  2  1  0  0  0  0
 26 27  2  0  0  0  0
 26 28  1  0  0  0  0
 23 24  1  0  0  0  0
 23 25  1  0  0  0  0
 20 21  1  0  0  0  0
 20 22  1  0  0  0  0
 20 23  1  0  0  0  0
 17 18  1  0  0  0  0
 17 19  1  0  0  0  0
 17 20  1  0  0  0  0
 14 15  1  0  0  0  0
 14 16  1  0  0  0  0
 14 17  1  0  0  0  0
 11 12  1  0  0  0  0
 11 13  1  0  0  0  0
 11 14  1  0  0  0  0
  9 10  1  0  0  0  0
  9 11  1  0  0  0  0
  9 26  1  0  0  0  0
  7  8  1  0  0  0  0
  7  9  1  0  0  0  0
 30 31  1  0  0  0  0
 30 32  1  0  0  0  0
 30 33  1  0  0  0  0
 28 29  1  0  0  0  0
 28 30  1  0  0  0  0
M  END
$$$$
default_name
  -OEChem-02102213163D

 33 32  0     1  0  0  0  0  0999 V2000
   -3.8420   -3.6918    1.5562 H   0  0  0  0  0  0  0  0  0  0  0  0
   -3.8430   -2.7008    1.1032 C   0  0  0  0  0  0  0  0  0  0  0  0
   -4.5510   -2.0608    1.6242 H   0  0  0  0  0  0  0  0  0  0  0  0
   -4.1140   -2.7798    0.0522 H   0  0  0  0  0  0  0  0  0  0  0  0
   -2.4570   -2.1098    1.2172 C   0  0  0  0  0  0  0  0  0  0  0  0
   -1.5600   -2.7438    1.7572 O   0  0  0  0  0  0  0  0  0  0  0  0
   -2.2870   -0.8898    0.7102 N   0  0  0  0  0  0  0  0  0  0  0  0
   -3.0820   -0.4218    0.2992 H   0  0  0  0  0  0  0  0  0  0  0  0
   -1.0240   -0.1468    0.7262 C   0  0  1  0  0  0  0  0  0  0  0  0
   -0.3583   -0.6100    1.4558 H   0  0  0  0  0  0  0  0  0  0  0  0
   -0.3739   -0.2459   -0.6675 C   0  0  0  0  0  0  0  0  0  0  0  0
    0.5682    0.3058   -0.6510 H   0  0  0  0  0  0  0  0  0  0  0  0
   -0.1526   -1.2912   -0.8876 H   0  0  0  0  0  0  0  0  0  0  0  0
   -1.2494    0.3336   -1.7895 C   0  0  0  0  0  0  0  0  0  0  0  0
   -1.2547   -0.3494   -2.6394 H   0  0  0  0  0  0  0  0  0  0  0  0
   -2.2701    0.4549   -1.4221 H   0  0  0  0  0  0  0  0  0  0  0  0
   -0.7156    1.6937   -2.2531 C   0  0  0  0  0  0  0  0  0  0  0  0
   -0.6969    2.3864   -1.4112 H   0  0  0  0  0  0  0  0  0  0  0  0
    0.2954    1.5737   -2.6434 H   0  0  0  0  0  0  0  0  0  0  0  0
   -1.6169    2.2579   -3.3497 C   0  0  0  0  0  0  0  0  0  0  0  0
   -1.6225    1.5767   -4.1991 H   0  0  0  0  0  0  0  0  0  0  0  0
   -2.6310    2.3618   -2.9672 H   0  0  0  0  0  0  0  0  0  0  0  0
   -1.1471    3.5729   -3.8008 N   0  0  0  0  0  0  0  0  0  0  0  0
   -1.7559    3.9083   -4.5328 H   0  0  0  0  0  0  0  0  0  0  0  0
   -1.1703    4.2175   -3.0235 H   0  0  0  0  0  0  0  0  0  0  0  0
   -1.2712    1.3099    1.1517 C   0  0  0  0  0  0  0  0  0  0  0  0
   -2.2039    1.9448    0.6639 O   0  0  0  0  0  0  0  0  0  0  0  0
   -0.4306    1.8354    2.0503 N   0  0  0  0  0  0  0  0  0  0  0  0
    0.3001    1.2459    2.4139 H   0  0  0  0  0  0  0  0  0  0  0  0
   -0.5192    3.2082    2.5456 C   0  0  0  0  0  0  0  0  0  0  0  0
   -1.5166    3.3903    2.9518 H   0  0  0  0  0  0  0  0  0  0  0  0
    0.2240    3.3791    3.3257 H   0  0  0  0  0  0  0  0  0  0  0  0
   -0.3477    3.9067    1.7239 H   0  0  0  0  0  0  0  0  0  0  0  0
  5  6  2  0  0  0  0
  5  7  1  0  0  0  0
  2  3  1  0  0  0  0
  2  4  1  0  0  0  0
  2  5  1  0  0  0  0
  1  2  1  0  0  0  0
 26 27  2  0  0  0  0
 26 28  1  0  0  0  0
 23 24  1  0  0  0  0
 23 25  1  0  0  0  0
 20 21  1  0  0  0  0
 20 22  1  0  0  0  0
 20 23  1  0  0  0  0
 17 18  1  0  0  0  0
 17 19  1  0  0  0  0
 17 20  1  0  0  0  0
 14 15  1  0  0  0  0
 14 16  1  0  0  0  0
 14 17  1  0  0  0  0
 11 12  1  0  0  0  0
 11 13  1  0  0  0  0
 11 14  1  0  0  0  0
  9 10  1  0  0  0  0
  9 11  1  0  0  0  0
  9 26  1  0  0  0  0
  7  8  1  0  0  0  0
  7  9  1  0  0  0  0
 30 31  1  0  0  0  0
 30 32  1  0  0  0  0
 30 33  1  0  0  0  0
 28 29  1  0  0  0  0
 28 30  1  0  0  0  0
M  END
$$$$
default_name
  -OEChem-02102213163D

 33 32  0     1  0  0  0  0  0999 V2000
   -3.8420   -3.6918    1.5562 H   0  0  0  0  0  0  0  0  0  0  0  0
   -3.8430   -2.7008    1.1032 C   0  0  0  0  0  0  0  0  0  0  0  0
   -4.5510   -2.0608    1.6242 H   0  0  0  0  0  0  0  0  0  0  0  0
   -4.1140   -2.7798    0.0522 H   0  0  0  0  0  0  0  0  0  0  0  0
   -2.4570   -2.1098    1.2172 C   0  0  0  0  0  0  0  0  0  0  0  0
   -1.5600   -2.7438    1.7572 O   0  0  0  0  0  0  0  0  0  0  0  0
   -2.2870   -0.8898    0.7102 N   0  0  0  0  0  0  0  0  0  0  0  0
   -3.0820   -0.4218    0.2992 H   0  0  0  0  0  0  0  0  0  0  0  0
   -1.0240   -0.1468    0.7262 C   0  0  1  0  0  0  0  0  0  0  0  0
   -0.3583   -0.6100    1.4558 H   0  0  0  0  0  0  0  0  0  0  0  0
   -0.3739   -0.2459   -0.6675 C   0  0  0  0  0  0  0  0  0  0  0  0
    0.5682    0.3058   -0.6510 H   0  0  0  0  0  0  0  0  0  0  0  0
   -0.1526   -1.2912   -0.8876 H   0  0  0  0  0  0  0  0  0  0  0  0
   -1.2494    0.3336   -1.7895 C   0  0  0  0  0  0  0  0  0  0  0  0
   -1.4737   -0.4457   -2.5184 H   0  0  0  0  0  0  0  0  0  0  0  0
   -2.1835    0.7025   -1.3618 H   0  0  0  0  0  0  0  0  0  0  0  0
   -0.5327    1.4852   -2.5036 C   0  0  0  0  0  0  0  0  0  0  0  0
   -0.2944    2.2702   -1.7853 H   0  0  0  0  0  0  0  0  0  0  0  0
    0.3897    1.1163   -2.9532 H   0  0  0  0  0  0  0  0  0  0  0  0
   -1.4333    2.0584   -3.5961 C   0  0  0  0  0  0  0  0  0  0  0  0
   -1.6575    1.2809   -4.3246 H   0  0  0  0  0  0  0  0  0  0  0  0
   -2.3624    2.4111   -3.1513 H   0  0  0  0  0  0  0  0  0  0  0  0
   -0.7859    3.1804   -4.2854 N   0  0  0  0  0  0  0  0  0  0  0  0
   -1.4015    3.5245   -5.0075 H   0  0  0  0  0  0  0  0  0  0  0  0
   -0.6045    3.9181   -3.6196 H   0  0  0  0  0  0  0  0  0  0  0  0
   -1.2712    1.3099    1.1517 C   0  0  0  0  0  0  0  0  0  0  0  0
   -2.2039    1.9448    0.6639 O   0  0  0  0  0  0  0  0  0  0  0  0
   -0.4306    1.8354    2.0503 N   0  0  0  0  0  0  0  0  0  0  0  0
    0.3001    1.2459    2.4139 H   0  0  0  0  0  0  0  0  0  0  0  0
   -0.5192    3.2082    2.5456 C   0  0  0  0  0  0  0  0  0  0  0  0
   -1.5166    3.3903    2.9518 H   0  0  0  0  0  0  0  0  0  0  0  0
    0.2240    3.3791    3.3257 H   0  0  0  0  0  0  0  0  0  0  0  0
   -0.3477    3.9067    1.7239 H   0  0  0  0  0  0  0  0  0  0  0  0
  5  6  2  0  0  0  0
  5  7  1  0  0  0  0
  2  3  1  0  0  0  0
  2  4  1  0  0  0  0
  2  5  1  0  0  0  0
  1  2  1  0  0  0  0
 26 27  2  0  0  0  0
 26 28  1  0  0  0  0
 23 24  1  0  0  0  0
 23 25  1  0  0  0  0
 20 21  1  0  0  0  0
 20 22  1  0  0  0  0
 20 23  1  0  0  0  0
 17 18  1  0  0  0  0
 17 19  1  0  0  0  0
 17 20  1  0  0  0  0
 14 15  1  0  0  0  0
 14 16  1  0  0  0  0
 14 17  1  0  0  0  0
 11 12  1  0  0  0  0
 11 13  1  0  0  0  0
 11 14  1  0  0  0  0
  9 10  1  0  0  0  0
  9 11  1  0  0  0  0
  9 26  1  0  0  0  0
  7  8  1  0  0  0  0
  7  9  1  0  0  0  0
 30 31  1  0  0  0  0
 30 32  1  0  0  0  0
 30 33  1  0  0  0  0
 28 29  1  0  0  0  0
 28 30  1  0  0  0  0
M  END
$$$$
default_name
  -OEChem-02102213163D

 33 32  0     1  0  0  0  0  0999 V2000
   -3.8420   -3.6918    1.5562 H   0  0  0  0  0  0  0  0  0  0  0  0
   -3.8430   -2.7008    1.1032 C   0  0  0  0  0  0  0  0  0  0  0  0
   -4.5510   -2.0608    1.6242 H   0  0  0  0  0  0  0  0  0  0  0  0
   -4.1140   -2.7798    0.0522 H   0  0  0  0  0  0  0  0  0  0  0  0
   -2.4570   -2.1098    1.2172 C   0  0  0  0  0  0  0  0  0  0  0  0
   -1.5600   -2.7438    1.7572 O   0  0  0  0  0  0  0  0  0  0  0  0
   -2.2870   -0.8898    0.7102 N   0  0  0  0  0  0  0  0  0  0  0  0
   -3.0820   -0.4218    0.2992 H   0  0  0  0  0  0  0  0  0  0  0  0
   -1.0240   -0.1468    0.7262 C   0  0  1  0  0  0  0  0  0  0  0  0
   -0.3583   -0.6100    1.4558 H   0  0  0  0  0  0  0  0  0  0  0  0
   -0.3739   -0.2459   -0.6675 C   0  0  0  0  0  0  0  0  0  0  0  0
    0.5682    0.3058   -0.6510 H   0  0  0  0  0  0  0  0  0  0  0  0
   -0.1526   -1.2912   -0.8876 H   0  0  0  0  0  0  0  0  0  0  0  0
   -1.2494    0.3336   -1.7895 C   0  0  0  0  0  0  0  0  0  0  0  0
   -1.6916   -0.4795   -2.3658 H   0  0  0  0  0  0  0  0  0  0  0  0
   -2.0472    0.9341   -1.3485 H   0  0  0  0  0  0  0  0  0  0  0  0
   -0.4198    1.2122   -2.7327 C   0  0  0  0  0  0  0  0  0  0  0  0
    0.0359    2.0267   -2.1688 H   0  0  0  0  0  0  0  0  0  0  0  0
    0.3641    0.6109   -3.1942 H   0  0  0  0  0  0  0  0  0  0  0  0
   -1.3177    1.7946   -3.8225 C   0  0  0  0  0  0  0  0  0  0  0  0
   -1.7594    0.9833   -4.3988 H   0  0  0  0  0  0  0  0  0  0  0  0
   -2.1116    2.3809   -3.3626 H   0  0  0  0  0  0  0  0  0  0  0  0
   -0.5584    2.6616   -4.7308 N   0  0  0  0  0  0  0  0  0  0  0  0
   -1.1781    3.0167   -5.4441 H   0  0  0  0  0  0  0  0  0  0  0  0
   -0.1728    3.4340   -4.2065 H   0  0  0  0  0  0  0  0  0  0  0  0
   -1.2712    1.3099    1.1517 C   0  0  0  0  0  0  0  0  0  0  0  0
   -2.2039    1.9448    0.6639 O   0  0  0  0  0  0  0  0  0  0  0  0
   -0.4306    1.8354    2.0503 N   0  0  0  0  0  0  0  0  0  0  0  0
    0.3001    1.2459    2.4139 H   0  0  0  0  0  0  0  0  0  0  0  0
   -0.5192    3.2082    2.5456 C   0  0  0  0  0  0  0  0  0  0  0  0
   -1.5166    3.3903    2.9518 H   0  0  0  0  0  0  0  0  0  0  0  0
    0.2240    3.3791    3.3257 H   0  0  0  0  0  0  0  0  0  0  0  0
   -0.3477    3.9067    1.7239 H   0  0  0  0  0  0  0  0  0  0  0  0
  5  6  2  0  0  0  0
  5  7  1  0  0  0  0
  2  3  1  0  0  0  0
  2  4  1  0  0  0  0
  2  5  1  0  0  0  0
  1  2  1  0  0  0  0
 26 27  2  0  0  0  0
 26 28  1  0  0  0  0
 23 24  1  0  0  0  0
 23 25  1  0  0  0  0
 20 21  1  0  0  0  0
 20 22  1  0  0  0  0
 20 23  1  0  0  0  0
 17 18  1  0  0  0  0
 17 19  1  0  0  0  0
 17 20  1  0  0  0  0
 14 15  1  0  0  0  0
 14 16  1  0  0  0  0
 14 17  1  0  0  0  0
 11 12  1  0  0  0  0
 11 13  1  0  0  0  0
 11 14  1  0  0  0  0
  9 10  1  0  0  0  0
  9 11  1  0  0  0  0
  9 26  1  0  0  0  0
  7  8  1  0  0  0  0
  7  9  1  0  0  0  0
 30 31  1  0  0  0  0
 30 32  1  0  0  0  0
 30 33  1  0  0  0  0
 28 29  1  0  0  0  0
 28 30  1  0  0  0  0
M  END
$$$$
default_name
  -OEChem-02102213163D

 33 32  0     1  0  0  0  0  0999 V2000
   -3.8420   -3.6918    1.5562 H   0  0  0  0  0  0  0  0  0  0  0  0
   -3.8430   -2.7008    1.1032 C   0  0  0  0  0  0  0  0  0  0  0  0
   -4.5510   -2.0608    1.6242 H   0  0  0  0  0  0  0  0  0  0  0  0
   -4.1140   -2.7798    0.0522 H   0  0  0  0  0  0  0  0  0  0  0  0
   -2.4570   -2.1098    1.2172 C   0  0  0  0  0  0  0  0  0  0  0  0
   -1.5600   -2.7438    1.7572 O   0  0  0  0  0  0  0  0  0  0  0  0
   -2.2870   -0.8898    0.7102 N   0  0  0  0  0  0  0  0  0  0  0  0
   -3.0820   -0.4218    0.2992 H   0  0  0  0  0  0  0  0  0  0  0  0
   -1.0240   -0.1468    0.7262 C   0  0  1  0  0  0  0  0  0  0  0  0
   -0.3583   -0.6100    1.4558 H   0  0  0  0  0  0  0  0  0  0  0  0
   -0.3739   -0.2459   -0.6675 C   0  0  0  0  0  0  0  0  0  0  0  0
    0.5682    0.3058   -0.6510 H   0  0  0  0  0  0  0  0  0  0  0  0
   -0.1526   -1.2912   -0.8876 H   0  0  0  0  0  0  0  0  0  0  0  0
   -1.2494    0.3336   -1.7895 C   0  0  0  0  0  0  0  0  0  0  0  0
   -1.8935   -0.4486   -2.1922 H   0  0  0  0  0  0  0  0  0  0  0  0
   -1.8704    1.1341   -1.3832 H   0  0  0  0  0  0  0  0  0  0  0  0
   -0.3847    0.8935   -2.9247 C   0  0  0  0  0  0  0  0  0  0  0  0
    0.2715    1.6726   -2.5355 H   0  0  0  0  0  0  0  0  0  0  0  0
    0.2203    0.0922   -3.3499 H   0  0  0  0  0  0  0  0  0  0  0  0
   -1.2780    1.4846   -4.0136 C   0  0  0  0  0  0  0  0  0  0  0  0
   -1.9213    0.7041   -4.4167 H   0  0  0  0  0  0  0  0  0  0  0  0
   -1.8957    2.2731   -3.5867 H   0  0  0  0  0  0  0  0  0  0  0  0
   -0.4802    2.0518   -5.1068 N   0  0  0  0  0  0  0  0  0  0  0  0
   -1.1009    2.4197   -5.8128 H   0  0  0  0  0  0  0  0  0  0  0  0
    0.0955    2.7983   -4.7442 H   0  0  0  0  0  0  0  0  0  0  0  0
   -1.2712    1.3099    1.1517 C   0  0  0  0  0  0  0  0  0  0  0  0
   -2.2039    1.9448    0.6639 O   0  0  0  0  0  0  0  0  0  0  0  0
   -0.4306    1.8354    2.0503 N   0  0  0  0  0  0  0  0  0  0  0  0
    0.3001    1.2459    2.4139 H   0  0  0  0  0  0  0  0  0  0  0  0
   -0.5192    3.2082    2.5456 C   0  0  0  0  0  0  0  0  0  0  0  0
   -1.5166    3.3903    2.9518 H   0  0  0  0  0  0  0  0  0  0  0  0
    0.2240    3.3791    3.3257 H   0  0  0  0  0  0  0  0  0  0  0  0
   -0.3477    3.9067    1.7239 H   0  0  0  0  0  0  0  0  0  0  0  0
  5  6  2  0  0  0  0
  5  7  1  0  0  0  0
  2  3  1  0  0  0  0
  2  4  1  0  0  0  0
  2  5  1  0  0  0  0
  1  2  1  0  0  0  0
 26 27  2  0  0  0  0
 26 28  1  0  0  0  0
 23 24  1  0  0  0  0
 23 25  1  0  0  0  0
 20 21  1  0  0  0  0
 20 22  1  0  0  0  0
 20 23  1  0  0  0  0
 17 18  1  0  0  0  0
 17 19  1  0  0  0  0
 17 20  1  0  0  0  0
 14 15  1  0  0  0  0
 14 16  1  0  0  0  0
 14 17  1  0  0  0  0
 11 12  1  0  0  0  0
 11 13  1  0  0  0  0
 11 14  1  0  0  0  0
  9 10  1  0  0  0  0
  9 11  1  0  0  0  0
  9 26  1  0  0  0  0
  7  8  1  0  0  0  0
  7  9  1  0  0  0  0
 30 31  1  0  0  0  0
 30 32  1  0  0  0  0
 30 33  1  0  0  0  0
 28 29  1  0  0  0  0
 28 30  1  0  0  0  0
M  END
$$$$
default_name
  -OEChem-02102213163D

 33 32  0     1  0  0  0  0  0999 V2000
   -3.8420   -3.6918    1.5562 H   0  0  0  0  0  0  0  0  0  0  0  0
   -3.8430   -2.7008    1.1032 C   0  0  0  0  0  0  0  0  0  0  0  0
   -4.5510   -2.0608    1.6242 H   0  0  0  0  0  0  0  0  0  0  0  0
   -4.1140   -2.7798    0.0522 H   0  0  0  0  0  0  0  0  0  0  0  0
   -2.4570   -2.1098    1.2172 C   0  0  0  0  0  0  0  0  0  0  0  0
   -1.5600   -2.7438    1.7572 O   0  0  0  0  0  0  0  0  0  0  0  0
   -2.2870   -0.8898    0.7102 N   0  0  0  0  0  0  0  0  0  0  0  0
   -3.0820   -0.4218    0.2992 H   0  0  0  0  0  0  0  0  0  0  0  0
   -1.0240   -0.1468    0.7262 C   0  0  1  0  0  0  0  0  0  0  0  0
   -0.3583   -0.6100    1.4558 H   0  0  0  0  0  0  0  0  0  0  0  0
   -0.3739   -0.2459   -0.6675 C   0  0  0  0  0  0  0  0  0  0  0  0
    0.5682    0.3058   -0.6510 H   0  0  0  0  0  0  0  0  0  0  0  0
   -0.1526   -1.2912   -0.8876 H   0  0  0  0  0  0  0  0  0  0  0  0
   -1.2494    0.3336   -1.7895 C   0  0  0  0  0  0  0  0  0  0  0  0
   -2.0658   -0.3548   -2.0094 H   0  0  0  0  0  0  0  0  0  0  0  0
   -1.6653    1.2887   -1.4634 H   0  0  0  0  0  0  0  0  0  0  0  0
   -0.4298    0.5506   -3.0666 C   0  0  0  0  0  0  0  0  0  0  0  0
    0.3963    1.2319   -2.8606 H   0  0  0  0  0  0  0  0  0  0  0  0
   -0.0318   -0.4048   -3.4099 H   0  0  0  0  0  0  0  0  0  0  0  0
   -1.3169    1.1495   -4.1564 C   0  0  0  0  0  0  0  0  0  0  0  0
   -2.1322    0.4624   -4.3769 H   0  0  0  0  0  0  0  0  0  0  0  0
   -1.7294    2.0951   -3.8084 H   0  0  0  0  0  0  0  0  0  0  0  0
   -0.5566    1.3925   -5.3877 N   0  0  0  0  0  0  0  0  0  0  0  0
   -1.1751    1.7740   -6.0884 H   0  0  0  0  0  0  0  0  0  0  0  0
    0.1820    2.0543   -5.1960 H   0  0  0  0  0  0  0  0  0  0  0  0
   -1.2712    1.3099    1.1517 C   0  0  0  0  0  0  0  0  0  0  0  0
   -2.2039    1.9448    0.6639 O   0  0  0  0  0  0  0  0  0  0  0  0
   -0.4306    1.8354    2.0503 N   0  0  0  0  0  0  0  0  0  0  0  0
    0.3001    1.2459    2.4139 H   0  0  0  0  0  0  0  0  0  0  0  0
   -0.5192    3.2082    2.5456 C   0  0  0  0  0  0  0  0  0  0  0  0
   -1.5166    3.3903    2.9518 H   0  0  0  0  0  0  0  0  0  0  0  0
    0.2240    3.3791    3.3257 H   0  0  0  0  0  0  0  0  0  0  0  0
   -0.3477    3.9067    1.7239 H   0  0  0  0  0  0  0  0  0  0  0  0
  5  6  2  0  0  0  0
  5  7  1  0  0  0  0
  2  3  1  0  0  0  0
  2  4  1  0  0  0  0
  2  5  1  0  0  0  0
  1  2  1  0  0  0  0
 26 27  2  0  0  0  0
 26 28  1  0  0  0  0
 23 24  1  0  0  0  0
 23 25  1  0  0  0  0
 20 21  1  0  0  0  0
 20 22  1  0  0  0  0
 20 23  1  0  0  0  0
 17 18  1  0  0  0  0
 17 19  1  0  0  0  0
 17 20  1  0  0  0  0
 14 15  1  0  0  0  0
 14 16  1  0  0  0  0
 14 17  1  0  0  0  0
 11 12  1  0  0  0  0
 11 13  1  0  0  0  0
 11 14  1  0  0  0  0
  9 10  1  0  0  0  0
  9 11  1  0  0  0  0
  9 26  1  0  0  0  0
  7  8  1  0  0  0  0
  7  9  1  0  0  0  0
 30 31  1  0  0  0  0
 30 32  1  0  0  0  0
 30 33  1  0  0  0  0
 28 29  1  0  0  0  0
 28 30  1  0  0  0  0
M  END
$$$$
default_name
  -OEChem-02102213163D

 33 32  0     1  0  0  0  0  0999 V2000
   -3.8420   -3.6918    1.5562 H   0  0  0  0  0  0  0  0  0  0  0  0
   -3.8430   -2.7008    1.1032 C   0  0  0  0  0  0  0  0  0  0  0  0
   -4.5510   -2.0608    1.6242 H   0  0  0  0  0  0  0  0  0  0  0  0
   -4.1140   -2.7798    0.0522 H   0  0  0  0  0  0  0  0  0  0  0  0
   -2.4570   -2.1098    1.2172 C   0  0  0  0  0  0  0  0  0  0  0  0
   -1.5600   -2.7438    1.7572 O   0  0  0  0  0  0  0  0  0  0  0  0
   -2.2870   -0.8898    0.7102 N   0  0  0  0  0  0  0  0  0  0  0  0
   -3.0820   -0.4218    0.2992 H   0  0  0  0  0  0  0  0  0  0  0  0
   -1.0240   -0.1468    0.7262 C   0  0  1  0  0  0  0  0  0  0  0  0
   -0.3583   -0.6100    1.4558 H   0  0  0  0  0  0  0  0  0  0  0  0
   -0.3739   -0.2459   -0.6675 C   0  0  0  0  0  0  0  0  0  0  0  0
    0.6700    0.0639   -0.5864 H   0  0  0  0  0  0  0  0  0  0  0  0
   -0.3960   -1.2841   -1.0016 H   0  0  0  0  0  0  0  0  0  0  0  0
   -1.0565    0.6400   -1.7213 C   0  0  0  0  0  0  0  0  0  0  0  0
   -2.1016    0.3467   -1.8247 H   0  0  0  0  0  0  0  0  0  0  0  0
   -1.0078    1.6821   -1.4003 H   0  0  0  0  0  0  0  0  0  0  0  0
   -0.3679    0.4995   -3.0836 C   0  0  0  0  0  0  0  0  0  0  0  0
    0.6815    0.7822   -2.9946 H   0  0  0  0  0  0  0  0  0  0  0  0
   -0.4348   -0.5356   -3.4198 H   0  0  0  0  0  0  0  0  0  0  0  0
   -1.0494    1.4078   -4.1051 C   0  0  0  0  0  0  0  0  0  0  0  0
   -2.0930    1.1154   -4.2094 H   0  0  0  0  0  0  0  0  0  0  0  0
   -0.9991    2.4400   -3.7623 H   0  0  0  0  0  0  0  0  0  0  0  0
   -0.3988    1.3155   -5.4172 N   0  0  0  0  0  0  0  0  0  0  0  0
   -0.8821    1.9161   -6.0689 H   0  0  0  0  0  0  0  0  0  0  0  0
    0.5617    1.6163   -5.3327 H   0  0  0  0  0  0  0  0  0  0  0  0
   -1.2712    1.3099    1.1517 C   0  0  0  0  0  0  0  0  0  0  0  0
   -2.2039    1.9448    0.6639 O   0  0  0  0  0  0  0  0  0  0  0  0
   -0.4306    1.8354    2.0503 N   0  0  0  0  0  0  0  0  0  0  0  0
    0.3001    1.2459    2.4139 H   0  0  0  0  0  0  0  0  0  0  0  0
   -0.5192    3.2082    2.5456 C   0  0  0  0  0  0  0  0  0  0  0  0
   -1.5166    3.3903    2.9518 H   0  0  0  0  0  0  0  0  0  0  0  0
    0.2240    3.3791    3.3257 H   0  0  0  0  0  0  0  0  0  0  0  0
   -0.3477    3.9067    1.7239 H   0  0  0  0  0  0  0  0  0  0  0  0
  5  6  2  0  0  0  0
  5  7  1  0  0  0  0
  2  3  1  0  0  0  0
  2  4  1  0  0  0  0
  2  5  1  0  0  0  0
  1  2  1  0  0  0  0
 26 27  2  0  0  0  0
 26 28  1  0  0  0  0
 23 24  1  0  0  0  0
 23 25  1  0  0  0  0
 20 21  1  0  0  0  0
 20 22  1  0  0  0  0
 20 23  1  0  0  0  0
 17 18  1  0  0  0  0
 17 19  1  0  0  0  0
 17 20  1  0  0  0  0
 14 15  1  0  0  0  0
 14 16  1  0  0  0  0
 14 17  1  0  0  0  0
 11 12  1  0  0  0  0
 11 13  1  0  0  0  0
 11 14  1  0  0  0  0
  9 10  1  0  0  0  0
  9 11  1  0  0  0  0
  9 26  1  0  0  0  0
  7  8  1  0  0  0  0
  7  9  1  0  0  0  0
 30 31  1  0  0  0  0
 30 32  1  0  0  0  0
 30 33  1  0  0  0  0
 28 29  1  0  0  0  0
 28 30  1  0  0  0  0
M  END
$$$$
default_name
  -OEChem-02102213163D

 33 32  0     1  0  0  0  0  0999 V2000
   -3.8420   -3.6918    1.5562 H   0  0  0  0  0  0  0  0  0  0  0  0
   -3.8430   -2.7008    1.1032 C   0  0  0  0  0  0  0  0  0  0  0  0
   -4.5510   -2.0608    1.6242 H   0  0  0  0  0  0  0  0  0  0  0  0
   -4.1140   -2.7798    0.0522 H   0  0  0  0  0  0  0  0  0  0  0  0
   -2.4570   -2.1098    1.2172 C   0  0  0  0  0  0  0  0  0  0  0  0
   -1.5600   -2.7438    1.7572 O   0  0  0  0  0  0  0  0  0  0  0  0
   -2.2870   -0.8898    0.7102 N   0  0  0  0  0  0  0  0  0  0  0  0
   -3.0820   -0.4218    0.2992 H   0  0  0  0  0  0  0  0  0  0  0  0
   -1.0240   -0.1468    0.7262 C   0  0  1  0  0  0  0  0  0  0  0  0
   -0.3583   -0.6100    1.4558 H   0  0  0  0  0  0  0  0  0  0  0  0
   -0.3739   -0.2459   -0.6675 C   0  0  0  0  0  0  0  0  0  0  0  0
    0.6700    0.0639   -0.5864 H   0  0  0  0  0  0  0  0  0  0  0  0
   -0.3960   -1.2841   -1.0016 H   0  0  0  0  0  0  0  0  0  0  0  0
   -1.0565    0.6400   -1.7213 C   0  0  0  0  0  0  0  0  0  0  0  0
   -2.1390    0.5375   -1.6401 H   0  0  0  0  0  0  0  0  0  0  0  0
   -0.7820    1.6819   -1.5467 H   0  0  0  0  0  0  0  0  0  0  0  0
   -0.6278    0.2362   -3.1366 C   0  0  0  0  0  0  0  0  0  0  0  0
    0.4548    0.3260   -3.2312 H   0  0  0  0  0  0  0  0  0  0  0  0
   -0.9213   -0.7970   -3.3245 H   0  0  0  0  0  0  0  0  0  0  0  0
   -1.3004    1.1471   -4.1617 C   0  0  0  0  0  0  0  0  0  0  0  0
   -2.3815    1.0451   -4.0816 H   0  0  0  0  0  0  0  0  0  0  0  0
   -1.0226    2.1812   -3.9647 H   0  0  0  0  0  0  0  0  0  0  0  0
   -0.8926    0.8025   -5.5286 N   0  0  0  0  0  0  0  0  0  0  0  0
   -1.3653    1.4133   -6.1786 H   0  0  0  0  0  0  0  0  0  0  0  0
    0.1059    0.9262   -5.6175 H   0  0  0  0  0  0  0  0  0  0  0  0
   -1.2712    1.3099    1.1517 C   0  0  0  0  0  0  0  0  0  0  0  0
   -2.2039    1.9448    0.6639 O   0  0  0  0  0  0  0  0  0  0  0  0
   -0.4306    1.8354    2.0503 N   0  0  0  0  0  0  0  0  0  0  0  0
    0.3001    1.2459    2.4139 H   0  0  0  0  0  0  0  0  0  0  0  0
   -0.5192    3.2082    2.5456 C   0  0  0  0  0  0  0  0  0  0  0  0
   -1.5166    3.3903    2.9518 H   0  0  0  0  0  0  0  0  0  0  0  0
    0.2240    3.3791    3.3257 H   0  0  0  0  0  0  0  0  0  0  0  0
   -0.3477    3.9067    1.7239 H   0  0  0  0  0  0  0  0  0  0  0  0
  5  6  2  0  0  0  0
  5  7  1  0  0  0  0
  2  3  1  0  0  0  0
  2  4  1  0  0  0  0
  2  5  1  0  0  0  0
  1  2  1  0  0  0  0
 26 27  2  0  0  0  0
 26 28  1  0  0  0  0
 23 24  1  0  0  0  0
 23 25  1  0  0  0  0
 20 21  1  0  0  0  0
 20 22  1  0  0  0  0
 20 23  1  0  0  0  0
 17 18  1  0  0  0  0
 17 19  1  0  0  0  0
 17 20  1  0  0  0  0
 14 15  1  0  0  0  0
 14 16  1  0  0  0  0
 14 17  1  0  0  0  0
 11 12  1  0  0  0  0
 11 13  1  0  0  0  0
 11 14  1  0  0  0  0
  9 10  1  0  0  0  0
  9 11  1  0  0  0  0
  9 26  1  0  0  0  0
  7  8  1  0  0  0  0
  7  9  1  0  0  0  0
 30 31  1  0  0  0  0
 30 32  1  0  0  0  0
 30 33  1  0  0  0  0
 28 29  1  0  0  0  0
 28 30  1  0  0  0  0
M  END
$$$$
default_name
  -OEChem-02102213163D

 33 32  0     1  0  0  0  0  0999 V2000
   -3.8420   -3.6918    1.5562 H   0  0  0  0  0  0  0  0  0  0  0  0
   -3.8430   -2.7008    1.1032 C   0  0  0  0  0  0  0  0  0  0  0  0
   -4.5510   -2.0608    1.6242 H   0  0  0  0  0  0  0  0  0  0  0  0
   -4.1140   -2.7798    0.0522 H   0  0  0  0  0  0  0  0  0  0  0  0
   -2.4570   -2.1098    1.2172 C   0  0  0  0  0  0  0  0  0  0  0  0
   -1.5600   -2.7438    1.7572 O   0  0  0  0  0  0  0  0  0  0  0  0
   -2.2870   -0.8898    0.7102 N   0  0  0  0  0  0  0  0  0  0  0  0
   -3.0820   -0.4218    0.2992 H   0  0  0  0  0  0  0  0  0  0  0  0
   -1.0240   -0.1468    0.7262 C   0  0  1  0  0  0  0  0  0  0  0  0
   -0.3583   -0.6100    1.4558 H   0  0  0  0  0  0  0  0  0  0  0  0
   -0.3739   -0.2459   -0.6675 C   0  0  0  0  0  0  0  0  0  0  0  0
    0.6700    0.0639   -0.5864 H   0  0  0  0  0  0  0  0  0  0  0  0
   -0.3960   -1.2841   -1.0016 H   0  0  0  0  0  0  0  0  0  0  0  0
   -1.0565    0.6400   -1.7213 C   0  0  0  0  0  0  0  0  0  0  0  0
   -2.1137    0.7497   -1.4781 H   0  0  0  0  0  0  0  0  0  0  0  0
   -0.5858    1.6248   -1.7218 H   0  0  0  0  0  0  0  0  0  0  0  0
   -0.9335    0.0219   -3.1187 C   0  0  0  0  0  0  0  0  0  0  0  0
    0.1195   -0.1015   -3.3735 H   0  0  0  0  0  0  0  0  0  0  0  0
   -1.4234   -0.9522   -3.1297 H   0  0  0  0  0  0  0  0  0  0  0  0
   -1.5976    0.9333   -4.1489 C   0  0  0  0  0  0  0  0  0  0  0  0
   -2.6536    1.0431   -3.9071 H   0  0  0  0  0  0  0  0  0  0  0  0
   -1.1214    1.9121   -4.1268 H   0  0  0  0  0  0  0  0  0  0  0  0
   -1.4773    0.3819   -5.5035 N   0  0  0  0  0  0  0  0  0  0  0  0
   -1.9377    1.0008   -6.1546 H   0  0  0  0  0  0  0  0  0  0  0  0
   -0.4994    0.3078   -5.7454 H   0  0  0  0  0  0  0  0  0  0  0  0
   -1.2712    1.3099    1.1517 C   0  0  0  0  0  0  0  0  0  0  0  0
   -2.2039    1.9448    0.6639 O   0  0  0  0  0  0  0  0  0  0  0  0
   -0.4306    1.8354    2.0503 N   0  0  0  0  0  0  0  0  0  0  0  0
    0.3001    1.2459    2.4139 H   0  0  0  0  0  0  0  0  0  0  0  0
   -0.5192    3.2082    2.5456 C   0  0  0  0  0  0  0  0  0  0  0  0
   -1.5166    3.3903    2.9518 H   0  0  0  0  0  0  0  0  0  0  0  0
    0.2240    3.3791    3.3257 H   0  0  0  0  0  0  0  0  0  0  0  0
   -0.3477    3.9067    1.7239 H   0  0  0  0  0  0  0  0  0  0  0  0
  5  6  2  0  0  0  0
  5  7  1  0  0  0  0
  2  3  1  0  0  0  0
  2  4  1  0  0  0  0
  2  5  1  0  0  0  0
  1  2  1  0  0  0  0
 26 27  2  0  0  0  0
 26 28  1  0  0  0  0
 23 24  1  0  0  0  0
 23 25  1  0  0  0  0
 20 21  1  0  0  0  0
 20 22  1  0  0  0  0
 20 23  1  0  0  0  0
 17 18  1  0  0  0  0
 17 19  1  0  0  0  0
 17 20  1  0  0  0  0
 14 15  1  0  0  0  0
 14 16  1  0  0  0  0
 14 17  1  0  0  0  0
 11 12  1  0  0  0  0
 11 13  1  0  0  0  0
 11 14  1  0  0  0  0
  9 10  1  0  0  0  0
  9 11  1  0  0  0  0
  9 26  1  0  0  0  0
  7  8  1  0  0  0  0
  7  9  1  0  0  0  0
 30 31  1  0  0  0  0
 30 32  1  0  0  0  0
 30 33  1  0  0  0  0
 28 29  1  0  0  0  0
 28 30  1  0  0  0  0
M  END
$$$$
default_name
  -OEChem-02102213163D

 33 32  0     1  0  0  0  0  0999 V2000
   -3.8420   -3.6918    1.5562 H   0  0  0  0  0  0  0  0  0  0  0  0
   -3.8430   -2.7008    1.1032 C   0  0  0  0  0  0  0  0  0  0  0  0
   -4.5510   -2.0608    1.6242 H   0  0  0  0  0  0  0  0  0  0  0  0
   -4.1140   -2.7798    0.0522 H   0  0  0  0  0  0  0  0  0  0  0  0
   -2.4570   -2.1098    1.2172 C   0  0  0  0  0  0  0  0  0  0  0  0
   -1.5600   -2.7438    1.7572 O   0  0  0  0  0  0  0  0  0  0  0  0
   -2.2870   -0.8898    0.7102 N   0  0  0  0  0  0  0  0  0  0  0  0
   -3.0820   -0.4218    0.2992 H   0  0  0  0  0  0  0  0  0  0  0  0
   -1.0240   -0.1468    0.7262 C   0  0  1  0  0  0  0  0  0  0  0  0
   -0.3583   -0.6100    1.4558 H   0  0  0  0  0  0  0  0  0  0  0  0
   -0.3739   -0.2459   -0.6675 C   0  0  0  0  0  0  0  0  0  0  0  0
    0.6700    0.0639   -0.5864 H   0  0  0  0  0  0  0  0  0  0  0  0
   -0.3960   -1.2841   -1.0016 H   0  0  0  0  0  0  0  0  0  0  0  0
   -1.0565    0.6400   -1.7213 C   0  0  0  0  0  0  0  0  0  0  0  0
   -2.0274    0.9688   -1.3498 H   0  0  0  0  0  0  0  0  0  0  0  0
   -0.4325    1.5147   -1.9136 H   0  0  0  0  0  0  0  0  0  0  0  0
   -1.2642   -0.1288   -3.0312 C   0  0  0  0  0  0  0  0  0  0  0  0
   -0.3015   -0.4713   -3.4117 H   0  0  0  0  0  0  0  0  0  0  0  0
   -1.9068   -0.9906   -2.8489 H   0  0  0  0  0  0  0  0  0  0  0  0
   -1.9208    0.7810   -4.0677 C   0  0  0  0  0  0  0  0  0  0  0  0
   -2.8907    1.1095   -3.6977 H   0  0  0  0  0  0  0  0  0  0  0  0
   -1.2888    1.6511   -4.2378 H   0  0  0  0  0  0  0  0  0  0  0  0
   -2.1129    0.0822   -5.3437 N   0  0  0  0  0  0  0  0  0  0  0  0
   -2.5602    0.7067   -5.9986 H   0  0  0  0  0  0  0  0  0  0  0  0
   -1.2129   -0.1969   -5.7074 H   0  0  0  0  0  0  0  0  0  0  0  0
   -1.2712    1.3099    1.1517 C   0  0  0  0  0  0  0  0  0  0  0  0
   -2.2039    1.9448    0.6639 O   0  0  0  0  0  0  0  0  0  0  0  0
   -0.4306    1.8354    2.0503 N   0  0  0  0  0  0  0  0  0  0  0  0
    0.3001    1.2459    2.4139 H   0  0  0  0  0  0  0  0  0  0  0  0
   -0.5192    3.2082    2.5456 C   0  0  0  0  0  0  0  0  0  0  0  0
   -1.5166    3.3903    2.9518 H   0  0  0  0  0  0  0  0  0  0  0  0
    0.2240    3.3791    3.3257 H   0  0  0  0  0  0  0  0  0  0  0  0
   -0.3477    3.9067    1.7239 H   0  0  0  0  0  0  0  0  0  0  0  0
  5  6  2  0  0  0  0
  5  7  1  0  0  0  0
  2  3  1  0  0  0  0
  2  4  1  0  0  0  0
  2  5  1  0  0  0  0
  1  2  1  0  0  0  0
 26 27  2  0  0  0  0
 26 28  1  0  0  0  0
 23 24  1  0  0  0  0
 23 25  1  0  0  0  0
 20 21  1  0  0  0  0
 20 22  1  0  0  0  0
 20 23  1  0  0  0  0
 17 18  1  0  0  0  0
 17 19  1  0  0  0  0
 17 20  1  0  0  0  0
 14 15  1  0  0  0  0
 14 16  1  0  0  0  0
 14 17  1  0  0  0  0
 11 12  1  0  0  0  0
 11 13  1  0  0  0  0
 11 14  1  0  0  0  0
  9 10  1  0  0  0  0
  9 11  1  0  0  0  0
  9 26  1  0  0  0  0
  7  8  1  0  0  0  0
  7  9  1  0  0  0  0
 30 31  1  0  0  0  0
 30 32  1  0  0  0  0
 30 33  1  0  0  0  0
 28 29  1  0  0  0  0
 28 30  1  0  0  0  0
M  END
$$$$
default_name
  -OEChem-02102213163D

 33 32  0     1  0  0  0  0  0999 V2000
   -3.8420   -3.6918    1.5562 H   0  0  0  0  0  0  0  0  0  0  0  0
   -3.8430   -2.7008    1.1032 C   0  0  0  0  0  0  0  0  0  0  0  0
   -4.5510   -2.0608    1.6242 H   0  0  0  0  0  0  0  0  0  0  0  0
   -4.1140   -2.7798    0.0522 H   0  0  0  0  0  0  0  0  0  0  0  0
   -2.4570   -2.1098    1.2172 C   0  0  0  0  0  0  0  0  0  0  0  0
   -1.5600   -2.7438    1.7572 O   0  0  0  0  0  0  0  0  0  0  0  0
   -2.2870   -0.8898    0.7102 N   0  0  0  0  0  0  0  0  0  0  0  0
   -3.0820   -0.4218    0.2992 H   0  0  0  0  0  0  0  0  0  0  0  0
   -1.0240   -0.1468    0.7262 C   0  0  1  0  0  0  0  0  0  0  0  0
   -0.3583   -0.6100    1.4558 H   0  0  0  0  0  0  0  0  0  0  0  0
   -0.3739   -0.2459   -0.6675 C   0  0  0  0  0  0  0  0  0  0  0  0
    0.6700    0.0639   -0.5864 H   0  0  0  0  0  0  0  0  0  0  0  0
   -0.3960   -1.2841   -1.0016 H   0  0  0  0  0  0  0  0  0  0  0  0
   -1.0565    0.6400   -1.7213 C   0  0  0  0  0  0  0  0  0  0  0  0
   -1.8861    1.1798   -1.2639 H   0  0  0  0  0  0  0  0  0  0  0  0
   -0.3326    1.3591   -2.1091 H   0  0  0  0  0  0  0  0  0  0  0  0
   -1.5973   -0.2055   -2.8799 C   0  0  0  0  0  0  0  0  0  0  0  0
   -0.7794   -0.7582   -3.3432 H   0  0  0  0  0  0  0  0  0  0  0  0
   -2.3387   -0.9096   -2.5011 H   0  0  0  0  0  0  0  0  0  0  0  0
   -2.2478    0.7006   -3.9235 C   0  0  0  0  0  0  0  0  0  0  0  0
   -3.0767    1.2398   -3.4677 H   0  0  0  0  0  0  0  0  0  0  0  0
   -1.5134    1.4159   -4.2900 H   0  0  0  0  0  0  0  0  0  0  0  0
   -2.7562   -0.0760   -5.0600 N   0  0  0  0  0  0  0  0  0  0  0  0
   -3.1904    0.5511   -5.7212 H   0  0  0  0  0  0  0  0  0  0  0  0
   -1.9860   -0.5533   -5.5063 H   0  0  0  0  0  0  0  0  0  0  0  0
   -1.2712    1.3099    1.1517 C   0  0  0  0  0  0  0  0  0  0  0  0
   -2.2039    1.9448    0.6639 O   0  0  0  0  0  0  0  0  0  0  0  0
   -0.4306    1.8354    2.0503 N   0  0  0  0  0  0  0  0  0  0  0  0
    0.3001    1.2459    2.4139 H   0  0  0  0  0  0  0  0  0  0  0  0
   -0.5192    3.2082    2.5456 C   0  0  0  0  0  0  0  0  0  0  0  0
   -1.5166    3.3903    2.9518 H   0  0  0  0  0  0  0  0  0  0  0  0
    0.2240    3.3791    3.3257 H   0  0  0  0  0  0  0  0  0  0  0  0
   -0.3477    3.9067    1.7239 H   0  0  0  0  0  0  0  0  0  0  0  0
  5  6  2  0  0  0  0
  5  7  1  0  0  0  0
  2  3  1  0  0  0  0
  2  4  1  0  0  0  0
  2  5  1  0  0  0  0
  1  2  1  0  0  0  0
 26 27  2  0  0  0  0
 26 28  1  0  0  0  0
 23 24  1  0  0  0  0
 23 25  1  0  0  0  0
 20 21  1  0  0  0  0
 20 22  1  0  0  0  0
 20 23  1  0  0  0  0
 17 18  1  0  0  0  0
 17 19  1  0  0  0  0
 17 20  1  0  0  0  0
 14 15  1  0  0  0  0
 14 16  1  0  0  0  0
 14 17  1  0  0  0  0
 11 12  1  0  0  0  0
 11 13  1  0  0  0  0
 11 14  1  0  0  0  0
  9 10  1  0  0  0  0
  9 11  1  0  0  0  0
  9 26  1  0  0  0  0
  7  8  1  0  0  0  0
  7  9  1  0  0  0  0
 30 31  1  0  0  0  0
 30 32  1  0  0  0  0
 30 33  1  0  0  0  0
 28 29  1  0  0  0  0
 28 30  1  0  0  0  0
M  END
$$$$
default_name
  -OEChem-02102213163D

 33 32  0     1  0  0  0  0  0999 V2000
   -3.8420   -3.6918    1.5562 H   0  0  0  0  0  0  0  0  0  0  0  0
   -3.8430   -2.7008    1.1032 C   0  0  0  0  0  0  0  0  0  0  0  0
   -4.5510   -2.0608    1.6242 H   0  0  0  0  0  0  0  0  0  0  0  0
   -4.1140   -2.7798    0.0522 H   0  0  0  0  0  0  0  0  0  0  0  0
   -2.4570   -2.1098    1.2172 C   0  0  0  0  0  0  0  0  0  0  0  0
   -1.5600   -2.7438    1.7572 O   0  0  0  0  0  0  0  0  0  0  0  0
   -2.2870   -0.8898    0.7102 N   0  0  0  0  0  0  0  0  0  0  0  0
   -3.0820   -0.4218    0.2992 H   0  0  0  0  0  0  0  0  0  0  0  0
   -1.0240   -0.1468    0.7262 C   0  0  1  0  0  0  0  0  0  0  0  0
   -0.3583   -0.6100    1.4558 H   0  0  0  0  0  0  0  0  0  0  0  0
   -0.3739   -0.2459   -0.6675 C   0  0  0  0  0  0  0  0  0  0  0  0
    0.6700    0.0639   -0.5864 H   0  0  0  0  0  0  0  0  0  0  0  0
   -0.3960   -1.2841   -1.0016 H   0  0  0  0  0  0  0  0  0  0  0  0
   -1.0565    0.6400   -1.7213 C   0  0  0  0  0  0  0  0  0  0  0  0
   -1.6993    1.3684   -1.2264 H   0  0  0  0  0  0  0  0  0  0  0  0
   -0.2930    1.1685   -2.2950 H   0  0  0  0  0  0  0  0  0  0  0  0
   -1.9101   -0.2032   -2.6753 C   0  0  0  0  0  0  0  0  0  0  0  0
   -1.2818   -0.9426   -3.1728 H   0  0  0  0  0  0  0  0  0  0  0  0
   -2.6896   -0.7147   -2.1099 H   0  0  0  0  0  0  0  0  0  0  0  0
   -2.5564    0.6975   -3.7261 C   0  0  0  0  0  0  0  0  0  0  0  0
   -3.1989    1.4251   -3.2328 H   0  0  0  0  0  0  0  0  0  0  0  0
   -1.7799    1.2227   -4.2799 H   0  0  0  0  0  0  0  0  0  0  0  0
   -3.3634   -0.0821   -4.6718 N   0  0  0  0  0  0  0  0  0  0  0  0
   -3.7854    0.5446   -5.3413 H   0  0  0  0  0  0  0  0  0  0  0  0
   -2.7660   -0.7372   -5.1557 H   0  0  0  0  0  0  0  0  0  0  0  0
   -1.2712    1.3099    1.1517 C   0  0  0  0  0  0  0  0  0  0  0  0
   -2.2039    1.9448    0.6639 O   0  0  0  0  0  0  0  0  0  0  0  0
   -0.4306    1.8354    2.0503 N   0  0  0  0  0  0  0  0  0  0  0  0
    0.3001    1.2459    2.4139 H   0  0  0  0  0  0  0  0  0  0  0  0
   -0.5192    3.2082    2.5456 C   0  0  0  0  0  0  0  0  0  0  0  0
   -1.5166    3.3903    2.9518 H   0  0  0  0  0  0  0  0  0  0  0  0
    0.2240    3.3791    3.3257 H   0  0  0  0  0  0  0  0  0  0  0  0
   -0.3477    3.9067    1.7239 H   0  0  0  0  0  0  0  0  0  0  0  0
  5  6  2  0  0  0  0
  5  7  1  0  0  0  0
  2  3  1  0  0  0  0
  2  4  1  0  0  0  0
  2  5  1  0  0  0  0
  1  2  1  0  0  0  0
 26 27  2  0  0  0  0
 26 28  1  0  0  0  0
 23 24  1  0  0  0  0
 23 25  1  0  0  0  0
 20 21  1  0  0  0  0
 20 22  1  0  0  0  0
 20 23  1  0  0  0  0
 17 18  1  0  0  0  0
 17 19  1  0  0  0  0
 17 20  1  0  0  0  0
 14 15  1  0  0  0  0
 14 16  1  0  0  0  0
 14 17  1  0  0  0  0
 11 12  1  0  0  0  0
 11 13  1  0  0  0  0
 11 14  1  0  0  0  0
  9 10  1  0  0  0  0
  9 11  1  0  0  0  0
  9 26  1  0  0  0  0
  7  8  1  0  0  0  0
  7  9  1  0  0  0  0
 30 31  1  0  0  0  0
 30 32  1  0  0  0  0
 30 33  1  0  0  0  0
 28 29  1  0  0  0  0
 28 30  1  0  0  0  0
M  END
$$$$
default_name
  -OEChem-02102213163D

 33 32  0     1  0  0  0  0  0999 V2000
   -3.8420   -3.6918    1.5562 H   0  0  0  0  0  0  0  0  0  0  0  0
   -3.8430   -2.7008    1.1032 C   0  0  0  0  0  0  0  0  0  0  0  0
   -4.5510   -2.0608    1.6242 H   0  0  0  0  0  0  0  0  0  0  0  0
   -4.1140   -2.7798    0.0522 H   0  0  0  0  0  0  0  0  0  0  0  0
   -2.4570   -2.1098    1.2172 C   0  0  0  0  0  0  0  0  0  0  0  0
   -1.5600   -2.7438    1.7572 O   0  0  0  0  0  0  0  0  0  0  0  0
   -2.2870   -0.8898    0.7102 N   0  0  0  0  0  0  0  0  0  0  0  0
   -3.0820   -0.4218    0.2992 H   0  0  0  0  0  0  0  0  0  0  0  0
   -1.0240   -0.1468    0.7262 C   0  0  1  0  0  0  0  0  0  0  0  0
   -0.3583   -0.6100    1.4558 H   0  0  0  0  0  0  0  0  0  0  0  0
   -0.3739   -0.2459   -0.6675 C   0  0  0  0  0  0  0  0  0  0  0  0
    0.6700    0.0639   -0.5864 H   0  0  0  0  0  0  0  0  0  0  0  0
   -0.3960   -1.2841   -1.0016 H   0  0  0  0  0  0  0  0  0  0  0  0
   -1.0565    0.6400   -1.7213 C   0  0  0  0  0  0  0  0  0  0  0  0
   -1.4798    1.5218   -1.2396 H   0  0  0  0  0  0  0  0  0  0  0  0
   -0.3162    0.9561   -2.4585 H   0  0  0  0  0  0  0  0  0  0  0  0
   -2.1813   -0.1219   -2.4313 C   0  0  0  0  0  0  0  0  0  0  0  0
   -1.7744   -1.0120   -2.9121 H   0  0  0  0  0  0  0  0  0  0  0  0
   -2.9356   -0.4192   -1.7022 H   0  0  0  0  0  0  0  0  0  0  0  0
   -2.8256    0.7721   -3.4891 C   0  0  0  0  0  0  0  0  0  0  0  0
   -3.2490    1.6528   -3.0089 H   0  0  0  0  0  0  0  0  0  0  0  0
   -2.0701    1.0844   -4.2081 H   0  0  0  0  0  0  0  0  0  0  0  0
   -3.8930    0.0645   -4.2055 N   0  0  0  0  0  0  0  0  0  0  0  0
   -4.3046    0.6875   -4.8849 H   0  0  0  0  0  0  0  0  0  0  0  0
   -3.4997   -0.7361   -4.6795 H   0  0  0  0  0  0  0  0  0  0  0  0
   -1.2712    1.3099    1.1517 C   0  0  0  0  0  0  0  0  0  0  0  0
   -2.2039    1.9448    0.6639 O   0  0  0  0  0  0  0  0  0  0  0  0
   -0.4306    1.8354    2.0503 N   0  0  0  0  0  0  0  0  0  0  0  0
    0.3001    1.2459    2.4139 H   0  0  0  0  0  0  0  0  0  0  0  0
   -0.5192    3.2082    2.5456 C   0  0  0  0  0  0  0  0  0  0  0  0
   -1.5166    3.3903    2.9518 H   0  0  0  0  0  0  0  0  0  0  0  0
    0.2240    3.3791    3.3257 H   0  0  0  0  0  0  0  0  0  0  0  0
   -0.3477    3.9067    1.7239 H   0  0  0  0  0  0  0  0  0  0  0  0
  5  6  2  0  0  0  0
  5  7  1  0  0  0  0
  2  3  1  0  0  0  0
  2  4  1  0  0  0  0
  2  5  1  0  0  0  0
  1  2  1  0  0  0  0
 26 27  2  0  0  0  0
 26 28  1  0  0  0  0
 23 24  1  0  0  0  0
 23 25  1  0  0  0  0
 20 21  1  0  0  0  0
 20 22  1  0  0  0  0
 20 23  1  0  0  0  0
 17 18  1  0  0  0  0
 17 19  1  0  0  0  0
 17 20  1  0  0  0  0
 14 15  1  0  0  0  0
 14 16  1  0  0  0  0
 14 17  1  0  0  0  0
 11 12  1  0  0  0  0
 11 13  1  0  0  0  0
 11 14  1  0  0  0  0
  9 10  1  0  0  0  0
  9 11  1  0  0  0  0
  9 26  1  0  0  0  0
  7  8  1  0  0  0  0
  7  9  1  0  0  0  0
 30 31  1  0  0  0  0
 30 32  1  0  0  0  0
 30 33  1  0  0  0  0
 28 29  1  0  0  0  0
 28 30  1  0  0  0  0
M  END
$$$$
default_name
  -OEChem-02102213163D

 33 32  0     1  0  0  0  0  0999 V2000
   -3.8420   -3.6918    1.5562 H   0  0  0  0  0  0  0  0  0  0  0  0
   -3.8430   -2.7008    1.1032 C   0  0  0  0  0  0  0  0  0  0  0  0
   -4.5510   -2.0608    1.6242 H   0  0  0  0  0  0  0  0  0  0  0  0
   -4.1140   -2.7798    0.0522 H   0  0  0  0  0  0  0  0  0  0  0  0
   -2.4570   -2.1098    1.2172 C   0  0  0  0  0  0  0  0  0  0  0  0
   -1.5600   -2.7438    1.7572 O   0  0  0  0  0  0  0  0  0  0  0  0
   -2.2870   -0.8898    0.7102 N   0  0  0  0  0  0  0  0  0  0  0  0
   -3.0820   -0.4218    0.2992 H   0  0  0  0  0  0  0  0  0  0  0  0
   -1.0240   -0.1468    0.7262 C   0  0  1  0  0  0  0  0  0  0  0  0
   -0.3583   -0.6100    1.4558 H   0  0  0  0  0  0  0  0  0  0  0  0
   -0.3739   -0.2459   -0.6675 C   0  0  0  0  0  0  0  0  0  0  0  0
    0.6700    0.0639   -0.5864 H   0  0  0  0  0  0  0  0  0  0  0  0
   -0.3960   -1.2841   -1.0016 H   0  0  0  0  0  0  0  0  0  0  0  0
   -1.0565    0.6400   -1.7213 C   0  0  0  0  0  0  0  0  0  0  0  0
   -1.2425    1.6295   -1.3028 H   0  0  0  0  0  0  0  0  0  0  0  0
   -0.4007    0.7362   -2.5886 H   0  0  0  0  0  0  0  0  0  0  0  0
   -2.3925    0.0329   -2.1645 C   0  0  0  0  0  0  0  0  0  0  0  0
   -2.2236   -0.9616   -2.5787 H   0  0  0  0  0  0  0  0  0  0  0  0
   -3.0599   -0.0432   -1.3056 H   0  0  0  0  0  0  0  0  0  0  0  0
   -3.0370    0.9191   -3.2286 C   0  0  0  0  0  0  0  0  0  0  0  0
   -3.2236    1.9073   -2.8114 H   0  0  0  0  0  0  0  0  0  0  0  0
   -2.3642    1.0107   -4.0796 H   0  0  0  0  0  0  0  0  0  0  0  0
   -4.3090    0.3537   -3.6930 N   0  0  0  0  0  0  0  0  0  0  0  0
   -4.7126    0.9702   -4.3830 H   0  0  0  0  0  0  0  0  0  0  0  0
   -4.1372   -0.5501   -4.1102 H   0  0  0  0  0  0  0  0  0  0  0  0
   -1.2712    1.3099    1.1517 C   0  0  0  0  0  0  0  0  0  0  0  0
   -2.2039    1.9448    0.6639 O   0  0  0  0  0  0  0  0  0  0  0  0
   -0.4306    1.8354    2.0503 N   0  0  0  0  0  0  0  0  0  0  0  0
    0.3001    1.2459    2.4139 H   0  0  0  0  0  0  0  0  0  0  0  0
   -0.5192    3.2082    2.5456 C   0  0  0  0  0  0  0  0  0  0  0  0
   -1.5166    3.3903    2.9518 H   0  0  0  0  0  0  0  0  0  0  0  0
    0.2240    3.3791    3.3257 H   0  0  0  0  0  0  0  0  0  0  0  0
   -0.3477    3.9067    1.7239 H   0  0  0  0  0  0  0  0  0  0  0  0
  5  6  2  0  0  0  0
  5  7  1  0  0  0  0
  2  3  1  0  0  0  0
  2  4  1  0  0  0  0
  2  5  1  0  0  0  0
  1  2  1  0  0  0  0
 26 27  2  0  0  0  0
 26 28  1  0  0  0  0
 23 24  1  0  0  0  0
 23 25  1  0  0  0  0
 20 21  1  0  0  0  0
 20 22  1  0  0  0  0
 20 23  1  0  0  0  0
 17 18  1  0  0  0  0
 17 19  1  0  0  0  0
 17 20  1  0  0  0  0
 14 15  1  0  0  0  0
 14 16  1  0  0  0  0
 14 17  1  0  0  0  0
 11 12  1  0  0  0  0
 11 13  1  0  0  0  0
 11 14  1  0  0  0  0
  9 10  1  0  0  0  0
  9 11  1  0  0  0  0
  9 26  1  0  0  0  0
  7  8  1  0  0  0  0
  7  9  1  0  0  0  0
 30 31  1  0  0  0  0
 30 32  1  0  0  0  0
 30 33  1  0  0  0  0
 28 29  1  0  0  0  0
 28 30  1  0  0  0  0
M  END
$$$$
default_name
  -OEChem-02102213163D

 33 32  0     1  0  0  0  0  0999 V2000
   -3.8420   -3.6918    1.5562 H   0  0  0  0  0  0  0  0  0  0  0  0
   -3.8430   -2.7008    1.1032 C   0  0  0  0  0  0  0  0  0  0  0  0
   -4.5510   -2.0608    1.6242 H   0  0  0  0  0  0  0  0  0  0  0  0
   -4.1140   -2.7798    0.0522 H   0  0  0  0  0  0  0  0  0  0  0  0
   -2.4570   -2.1098    1.2172 C   0  0  0  0  0  0  0  0  0  0  0  0
   -1.5600   -2.7438    1.7572 O   0  0  0  0  0  0  0  0  0  0  0  0
   -2.2870   -0.8898    0.7102 N   0  0  0  0  0  0  0  0  0  0  0  0
   -3.0820   -0.4218    0.2992 H   0  0  0  0  0  0  0  0  0  0  0  0
   -1.0240   -0.1468    0.7262 C   0  0  1  0  0  0  0  0  0  0  0  0
   -0.3583   -0.6100    1.4558 H   0  0  0  0  0  0  0  0  0  0  0  0
   -0.3739   -0.2459   -0.6675 C   0  0  0  0  0  0  0  0  0  0  0  0
    0.6700    0.0639   -0.5864 H   0  0  0  0  0  0  0  0  0  0  0  0
   -0.3960   -1.2841   -1.0016 H   0  0  0  0  0  0  0  0  0  0  0  0
   -1.0565    0.6400   -1.7213 C   0  0  0  0  0  0  0  0  0  0  0  0
   -1.0036    1.6841   -1.4116 H   0  0  0  0  0  0  0  0  0  0  0  0
   -0.5408    0.5239   -2.6764 H   0  0  0  0  0  0  0  0  0  0  0  0
   -2.5291    0.2505   -1.8931 C   0  0  0  0  0  0  0  0  0  0  0  0
   -2.5988   -0.7948   -2.1955 H   0  0  0  0  0  0  0  0  0  0  0  0
   -3.0541    0.3876   -0.9472 H   0  0  0  0  0  0  0  0  0  0  0  0
   -3.1763    1.1286   -2.9622 C   0  0  0  0  0  0  0  0  0  0  0  0
   -3.1244    2.1715   -2.6536 H   0  0  0  0  0  0  0  0  0  0  0  0
   -2.6422    1.0064   -3.9031 H   0  0  0  0  0  0  0  0  0  0  0  0
   -4.5830    0.7658   -3.1691 N   0  0  0  0  0  0  0  0  0  0  0  0
   -4.9816    1.3734   -3.8698 H   0  0  0  0  0  0  0  0  0  0  0  0
   -4.6351   -0.1917   -3.4865 H   0  0  0  0  0  0  0  0  0  0  0  0
   -1.2712    1.3099    1.1517 C   0  0  0  0  0  0  0  0  0  0  0  0
   -2.2039    1.9448    0.6639 O   0  0  0  0  0  0  0  0  0  0  0  0
   -0.4306    1.8354    2.0503 N   0  0  0  0  0  0  0  0  0  0  0  0
    0.3001    1.2459    2.4139 H   0  0  0  0  0  0  0  0  0  0  0  0
   -0.5192    3.2082    2.5456 C   0  0  0  0  0  0  0  0  0  0  0  0
   -1.5166    3.3903    2.9518 H   0  0  0  0  0  0  0  0  0  0  0  0
    0.2240    3.3791    3.3257 H   0  0  0  0  0  0  0  0  0  0  0  0
   -0.3477    3.9067    1.7239 H   0  0  0  0  0  0  0  0  0  0  0  0
  5  6  2  0  0  0  0
  5  7  1  0  0  0  0
  2  3  1  0  0  0  0
  2  4  1  0  0  0  0
  2  5  1  0  0  0  0
  1  2  1  0  0  0  0
 26 27  2  0  0  0  0
 26 28  1  0  0  0  0
 23 24  1  0  0  0  0
 23 25  1  0  0  0  0
 20 21  1  0  0  0  0
 20 22  1  0  0  0  0
 20 23  1  0  0  0  0
 17 18  1  0  0  0  0
 17 19  1  0  0  0  0
 17 20  1  0  0  0  0
 14 15  1  0  0  0  0
 14 16  1  0  0  0  0
 14 17  1  0  0  0  0
 11 12  1  0  0  0  0
 11 13  1  0  0  0  0
 11 14  1  0  0  0  0
  9 10  1  0  0  0  0
  9 11  1  0  0  0  0
  9 26  1  0  0  0  0
  7  8  1  0  0  0  0
  7  9  1  0  0  0  0
 30 31  1  0  0  0  0
 30 32  1  0  0  0  0
 30 33  1  0  0  0  0
 28 29  1  0  0  0  0
 28 30  1  0  0  0  0
M  END
$$$$
default_name
  -OEChem-02102213163D

 33 32  0     1  0  0  0  0  0999 V2000
   -3.8420   -3.6918    1.5562 H   0  0  0  0  0  0  0  0  0  0  0  0
   -3.8430   -2.7008    1.1032 C   0  0  0  0  0  0  0  0  0  0  0  0
   -4.5510   -2.0608    1.6242 H   0  0  0  0  0  0  0  0  0  0  0  0
   -4.1140   -2.7798    0.0522 H   0  0  0  0  0  0  0  0  0  0  0  0
   -2.4570   -2.1098    1.2172 C   0  0  0  0  0  0  0  0  0  0  0  0
   -1.5600   -2.7438    1.7572 O   0  0  0  0  0  0  0  0  0  0  0  0
   -2.2870   -0.8898    0.7102 N   0  0  0  0  0  0  0  0  0  0  0  0
   -3.0820   -0.4218    0.2992 H   0  0  0  0  0  0  0  0  0  0  0  0
   -1.0240   -0.1468    0.7262 C   0  0  1  0  0  0  0  0  0  0  0  0
   -0.3583   -0.6100    1.4558 H   0  0  0  0  0  0  0  0  0  0  0  0
   -0.3739   -0.2459   -0.6675 C   0  0  0  0  0  0  0  0  0  0  0  0
    0.6700    0.0639   -0.5864 H   0  0  0  0  0  0  0  0  0  0  0  0
   -0.3960   -1.2841   -1.0016 H   0  0  0  0  0  0  0  0  0  0  0  0
   -1.0565    0.6400   -1.7213 C   0  0  0  0  0  0  0  0  0  0  0  0
   -0.7794    1.6819   -1.5587 H   0  0  0  0  0  0  0  0  0  0  0  0
   -0.7270    0.3336   -2.7158 H   0  0  0  0  0  0  0  0  0  0  0  0
   -2.5820    0.5161   -1.6355 C   0  0  0  0  0  0  0  0  0  0  0  0
   -2.8745   -0.5231   -1.7886 H   0  0  0  0  0  0  0  0  0  0  0  0
   -2.9185    0.8439   -0.6515 H   0  0  0  0  0  0  0  0  0  0  0  0
   -3.2339    1.3863   -2.7083 C   0  0  0  0  0  0  0  0  0  0  0  0
   -2.9581    2.4271   -2.5464 H   0  0  0  0  0  0  0  0  0  0  0  0
   -2.8852    1.0719   -3.6907 H   0  0  0  0  0  0  0  0  0  0  0  0
   -4.6964    1.2727   -2.6695 N   0  0  0  0  0  0  0  0  0  0  0  0
   -5.0934    1.8696   -3.3803 H   0  0  0  0  0  0  0  0  0  0  0  0
   -4.9593    0.3144   -2.8510 H   0  0  0  0  0  0  0  0  0  0  0  0
   -1.2712    1.3099    1.1517 C   0  0  0  0  0  0  0  0  0  0  0  0
   -2.2039    1.9448    0.6639 O   0  0  0  0  0  0  0  0  0  0  0  0
   -0.4306    1.8354    2.0503 N   0  0  0  0  0  0  0  0  0  0  0  0
    0.3001    1.2459    2.4139 H   0  0  0  0  0  0  0  0  0  0  0  0
   -0.5192    3.2082    2.5456 C   0  0  0  0  0  0  0  0  0  0  0  0
   -1.5166    3.3903    2.9518 H   0  0  0  0  0  0  0  0  0  0  0  0
    0.2240    3.3791    3.3257 H   0  0  0  0  0  0  0  0  0  0  0  0
   -0.3477    3.9067    1.7239 H   0  0  0  0  0  0  0  0  0  0  0  0
  5  6  2  0  0  0  0
  5  7  1  0  0  0  0
  2  3  1  0  0  0  0
  2  4  1  0  0  0  0
  2  5  1  0  0  0  0
  1  2  1  0  0  0  0
 26 27  2  0  0  0  0
 26 28  1  0  0  0  0
 23 24  1  0  0  0  0
 23 25  1  0  0  0  0
 20 21  1  0  0  0  0
 20 22  1  0  0  0  0
 20 23  1  0  0  0  0
 17 18  1  0  0  0  0
 17 19  1  0  0  0  0
 17 20  1  0  0  0  0
 14 15  1  0  0  0  0
 14 16  1  0  0  0  0
 14 17  1  0  0  0  0
 11 12  1  0  0  0  0
 11 13  1  0  0  0  0
 11 14  1  0  0  0  0
  9 10  1  0  0  0  0
  9 11  1  0  0  0  0
  9 26  1  0  0  0  0
  7  8  1  0  0  0  0
  7  9  1  0  0  0  0
 30 31  1  0  0  0  0
 30 32  1  0  0  0  0
 30 33  1  0  0  0  0
 28 29  1  0  0  0  0
 28 30  1  0  0  0  0
M  END
$$$$
default_name
  -OEChem-02102213163D

 33 32  0     1  0  0  0  0  0999 V2000
   -3.8420   -3.6918    1.5562 H   0  0  0  0  0  0  0  0  0  0  0  0
   -3.8430   -2.7008    1.1032 C   0  0  0  0  0  0  0  0  0  0  0  0
   -4.5510   -2.0608    1.6242 H   0  0  0  0  0  0  0  0  0  0  0  0
   -4.1140   -2.7798    0.0522 H   0  0  0  0  0  0  0  0  0  0  0  0
   -2.4570   -2.1098    1.2172 C   0  0  0  0  0  0  0  0  0  0  0  0
   -1.5600   -2.7438    1.7572 O   0  0  0  0  0  0  0  0  0  0  0  0
   -2.2870   -0.8898    0.7102 N   0  0  0  0  0  0  0  0  0  0  0  0
   -3.0820   -0.4218    0.2992 H   0  0  0  0  0  0  0  0  0  0  0  0
   -1.0240   -0.1468    0.7262 C   0  0  1  0  0  0  0  0  0  0  0  0
   -0.3583   -0.6100    1.4558 H   0  0  0  0  0  0  0  0  0  0  0  0
   -0.3739   -0.2459   -0.6675 C   0  0  0  0  0  0  0  0  0  0  0  0
    0.6700    0.0639   -0.5864 H   0  0  0  0  0  0  0  0  0  0  0  0
   -0.3960   -1.2841   -1.0016 H   0  0  0  0  0  0  0  0  0  0  0  0
   -1.0565    0.6400   -1.7213 C   0  0  0  0  0  0  0  0  0  0  0  0
   -0.5852    1.6231   -1.7339 H   0  0  0  0  0  0  0  0  0  0  0  0
   -0.9464    0.1782   -2.7043 H   0  0  0  0  0  0  0  0  0  0  0  0
   -2.5474    0.8118   -1.4093 C   0  0  0  0  0  0  0  0  0  0  0  0
   -3.0318   -0.1649   -1.3856 H   0  0  0  0  0  0  0  0  0  0  0  0
   -2.6624    1.2946   -0.4385 H   0  0  0  0  0  0  0  0  0  0  0  0
   -3.2059    1.6746   -2.4841 C   0  0  0  0  0  0  0  0  0  0  0  0
   -2.7362    2.6568   -2.4971 H   0  0  0  0  0  0  0  0  0  0  0  0
   -3.0766    1.2028   -3.4567 H   0  0  0  0  0  0  0  0  0  0  0  0
   -4.6414    1.8399   -2.2284 N   0  0  0  0  0  0  0  0  0  0  0  0
   -5.0402    2.4250   -2.9479 H   0  0  0  0  0  0  0  0  0  0  0  0
   -5.0877    0.9340   -2.2470 H   0  0  0  0  0  0  0  0  0  0  0  0
   -1.2712    1.3099    1.1517 C   0  0  0  0  0  0  0  0  0  0  0  0
   -2.2039    1.9448    0.6639 O   0  0  0  0  0  0  0  0  0  0  0  0
   -0.4306    1.8354    2.0503 N   0  0  0  0  0  0  0  0  0  0  0  0
    0.3001    1.2459    2.4139 H   0  0  0  0  0  0  0  0  0  0  0  0
   -0.5192    3.2082    2.5456 C   0  0  0  0  0  0  0  0  0  0  0  0
   -1.5166    3.3903    2.9518 H   0  0  0  0  0  0  0  0  0  0  0  0
    0.2240    3.3791    3.3257 H   0  0  0  0  0  0  0  0  0  0  0  0
   -0.3477    3.9067    1.7239 H   0  0  0  0  0  0  0  0  0  0  0  0
  5  6  2  0  0  0  0
  5  7  1  0  0  0  0
  2  3  1  0  0  0  0
  2  4  1  0  0  0  0
  2  5  1  0  0  0  0
  1  2  1  0  0  0  0
 26 27  2  0  0  0  0
 26 28  1  0  0  0  0
 23 24  1  0  0  0  0
 23 25  1  0  0  0  0
 20 21  1  0  0  0  0
 20 22  1  0  0  0  0
 20 23  1  0  0  0  0
 17 18  1  0  0  0  0
 17 19  1  0  0  0  0
 17 20  1  0  0  0  0
 14 15  1  0  0  0  0
 14 16  1  0  0  0  0
 14 17  1  0  0  0  0
 11 12  1  0  0  0  0
 11 13  1  0  0  0  0
 11 14  1  0  0  0  0
  9 10  1  0  0  0  0
  9 11  1  0  0  0  0
  9 26  1  0  0  0  0
  7  8  1  0  0  0  0
  7  9  1  0  0  0  0
 30 31  1  0  0  0  0
 30 32  1  0  0  0  0
 30 33  1  0  0  0  0
 28 29  1  0  0  0  0
 28 30  1  0  0  0  0
M  END
$$$$
default_name
  -OEChem-02102213163D

 33 32  0     1  0  0  0  0  0999 V2000
   -3.8420   -3.6918    1.5562 H   0  0  0  0  0  0  0  0  0  0  0  0
   -3.8430   -2.7008    1.1032 C   0  0  0  0  0  0  0  0  0  0  0  0
   -4.5510   -2.0608    1.6242 H   0  0  0  0  0  0  0  0  0  0  0  0
   -4.1140   -2.7798    0.0522 H   0  0  0  0  0  0  0  0  0  0  0  0
   -2.4570   -2.1098    1.2172 C   0  0  0  0  0  0  0  0  0  0  0  0
   -1.5600   -2.7438    1.7572 O   0  0  0  0  0  0  0  0  0  0  0  0
   -2.2870   -0.8898    0.7102 N   0  0  0  0  0  0  0  0  0  0  0  0
   -3.0820   -0.4218    0.2992 H   0  0  0  0  0  0  0  0  0  0  0  0
   -1.0240   -0.1468    0.7262 C   0  0  1  0  0  0  0  0  0  0  0  0
   -0.3583   -0.6100    1.4558 H   0  0  0  0  0  0  0  0  0  0  0  0
   -0.3739   -0.2459   -0.6675 C   0  0  0  0  0  0  0  0  0  0  0  0
    0.6700    0.0639   -0.5864 H   0  0  0  0  0  0  0  0  0  0  0  0
   -0.3960   -1.2841   -1.0016 H   0  0  0  0  0  0  0  0  0  0  0  0
   -1.0565    0.6400   -1.7213 C   0  0  0  0  0  0  0  0  0  0  0  0
   -0.4342    1.5117   -1.9254 H   0  0  0  0  0  0  0  0  0  0  0  0
   -1.1842    0.0685   -2.6425 H   0  0  0  0  0  0  0  0  0  0  0  0
   -2.4279    1.1172   -1.2301 C   0  0  0  0  0  0  0  0  0  0  0  0
   -3.0600    0.2553   -1.0140 H   0  0  0  0  0  0  0  0  0  0  0  0
   -2.3033    1.7090   -0.3228 H   0  0  0  0  0  0  0  0  0  0  0  0
   -3.0942    1.9739   -2.3048 C   0  0  0  0  0  0  0  0  0  0  0  0
   -2.4737    2.8450   -2.5089 H   0  0  0  0  0  0  0  0  0  0  0  0
   -3.2033    1.3900   -3.2172 H   0  0  0  0  0  0  0  0  0  0  0  0
   -4.4217    2.4288   -1.8757 N   0  0  0  0  0  0  0  0  0  0  0  0
   -4.8257    3.0018   -2.6019 H   0  0  0  0  0  0  0  0  0  0  0  0
   -5.0118    1.6247   -1.7156 H   0  0  0  0  0  0  0  0  0  0  0  0
   -1.2712    1.3099    1.1517 C   0  0  0  0  0  0  0  0  0  0  0  0
   -2.2039    1.9448    0.6639 O   0  0  0  0  0  0  0  0  0  0  0  0
   -0.4306    1.8354    2.0503 N   0  0  0  0  0  0  0  0  0  0  0  0
    0.3001    1.2459    2.4139 H   0  0  0  0  0  0  0  0  0  0  0  0
   -0.5192    3.2082    2.5456 C   0  0  0  0  0  0  0  0  0  0  0  0
   -1.5166    3.3903    2.9518 H   0  0  0  0  0  0  0  0  0  0  0  0
    0.2240    3.3791    3.3257 H   0  0  0  0  0  0  0  0  0  0  0  0
   -0.3477    3.9067    1.7239 H   0  0  0  0  0  0  0  0  0  0  0  0
  5  6  2  0  0  0  0
  5  7  1  0  0  0  0
  2  3  1  0  0  0  0
  2  4  1  0  0  0  0
  2  5  1  0  0  0  0
  1  2  1  0  0  0  0
 26 27  2  0  0  0  0
 26 28  1  0  0  0  0
 23 24  1  0  0  0  0
 23 25  1  0  0  0  0
 20 21  1  0  0  0  0
 20 22  1  0  0  0  0
 20 23  1  0  0  0  0
 17 18  1  0  0  0  0
 17 19  1  0  0  0  0
 17 20  1  0  0  0  0
 14 15  1  0  0  0  0
 14 16  1  0  0  0  0
 14 17  1  0  0  0  0
 11 12  1  0  0  0  0
 11 13  1  0  0  0  0
 11 14  1  0  0  0  0
  9 10  1  0  0  0  0
  9 11  1  0  0  0  0
  9 26  1  0  0  0  0
  7  8  1  0  0  0  0
  7  9  1  0  0  0  0
 30 31  1  0  0  0  0
 30 32  1  0  0  0  0
 30 33  1  0  0  0  0
 28 29  1  0  0  0  0
 28 30  1  0  0  0  0
M  END
$$$$
default_name
  -OEChem-02102213163D

 33 32  0     1  0  0  0  0  0999 V2000
   -3.8420   -3.6918    1.5562 H   0  0  0  0  0  0  0  0  0  0  0  0
   -3.8430   -2.7008    1.1032 C   0  0  0  0  0  0  0  0  0  0  0  0
   -4.5510   -2.0608    1.6242 H   0  0  0  0  0  0  0  0  0  0  0  0
   -4.1140   -2.7798    0.0522 H   0  0  0  0  0  0  0  0  0  0  0  0
   -2.4570   -2.1098    1.2172 C   0  0  0  0  0  0  0  0  0  0  0  0
   -1.5600   -2.7438    1.7572 O   0  0  0  0  0  0  0  0  0  0  0  0
   -2.2870   -0.8898    0.7102 N   0  0  0  0  0  0  0  0  0  0  0  0
   -3.0820   -0.4218    0.2992 H   0  0  0  0  0  0  0  0  0  0  0  0
   -1.0240   -0.1468    0.7262 C   0  0  1  0  0  0  0  0  0  0  0  0
   -0.3583   -0.6100    1.4558 H   0  0  0  0  0  0  0  0  0  0  0  0
   -0.3739   -0.2459   -0.6675 C   0  0  0  0  0  0  0  0  0  0  0  0
    0.6700    0.0639   -0.5864 H   0  0  0  0  0  0  0  0  0  0  0  0
   -0.3960   -1.2841   -1.0016 H   0  0  0  0  0  0  0  0  0  0  0  0
   -1.0565    0.6400   -1.7213 C   0  0  0  0  0  0  0  0  0  0  0  0
   -0.3366    1.3553   -2.1201 H   0  0  0  0  0  0  0  0  0  0  0  0
   -1.4242    0.0117   -2.5347 H   0  0  0  0  0  0  0  0  0  0  0  0
   -2.2314    1.4116   -1.1098 C   0  0  0  0  0  0  0  0  0  0  0  0
   -2.9573    0.7090   -0.6992 H   0  0  0  0  0  0  0  0  0  0  0  0
   -1.8656    2.0588   -0.3122 H   0  0  0  0  0  0  0  0  0  0  0  0
   -2.9065    2.2638   -2.1827 C   0  0  0  0  0  0  0  0  0  0  0  0
   -2.1884    2.9788   -2.5812 H   0  0  0  0  0  0  0  0  0  0  0  0
   -3.2567    1.6209   -2.9885 H   0  0  0  0  0  0  0  0  0  0  0  0
   -4.0524    2.9991   -1.6354 N   0  0  0  0  0  0  0  0  0  0  0  0
   -4.4645    3.5606   -2.3661 H   0  0  0  0  0  0  0  0  0  0  0  0
   -4.7365    2.3394   -1.2931 H   0  0  0  0  0  0  0  0  0  0  0  0
   -1.2712    1.3099    1.1517 C   0  0  0  0  0  0  0  0  0  0  0  0
   -2.2039    1.9448    0.6639 O   0  0  0  0  0  0  0  0  0  0  0  0
   -0.4306    1.8354    2.0503 N   0  0  0  0  0  0  0  0  0  0  0  0
    0.3001    1.2459    2.4139 H   0  0  0  0  0  0  0  0  0  0  0  0
   -0.5192    3.2082    2.5456 C   0  0  0  0  0  0  0  0  0  0  0  0
   -1.5166    3.3903    2.9518 H   0  0  0  0  0  0  0  0  0  0  0  0
    0.2240    3.3791    3.3257 H   0  0  0  0  0  0  0  0  0  0  0  0
   -0.3477    3.9067    1.7239 H   0  0  0  0  0  0  0  0  0  0  0  0
  5  6  2  0  0  0  0
  5  7  1  0  0  0  0
  2  3  1  0  0  0  0
  2  4  1  0  0  0  0
  2  5  1  0  0  0  0
  1  2  1  0  0  0  0
 26 27  2  0  0  0  0
 26 28  1  0  0  0  0
 23 24  1  0  0  0  0
 23 25  1  0  0  0  0
 20 21  1  0  0  0  0
 20 22  1  0  0  0  0
 20 23  1  0  0  0  0
 17 18  1  0  0  0  0
 17 19  1  0  0  0  0
 17 20  1  0  0  0  0
 14 15  1  0  0  0  0
 14 16  1  0  0  0  0
 14 17  1  0  0  0  0
 11 12  1  0  0  0  0
 11 13  1  0  0  0  0
 11 14  1  0  0  0  0
  9 10  1  0  0  0  0
  9 11  1  0  0  0  0
  9 26  1  0  0  0  0
  7  8  1  0  0  0  0
  7  9  1  0  0  0  0
 30 31  1  0  0  0  0
 30 32  1  0  0  0  0
 30 33  1  0  0  0  0
 28 29  1  0  0  0  0
 28 30  1  0  0  0  0
M  END
$$$$
default_name
  -OEChem-02102213163D

 33 32  0     1  0  0  0  0  0999 V2000
   -3.8420   -3.6918    1.5562 H   0  0  0  0  0  0  0  0  0  0  0  0
   -3.8430   -2.7008    1.1032 C   0  0  0  0  0  0  0  0  0  0  0  0
   -4.5510   -2.0608    1.6242 H   0  0  0  0  0  0  0  0  0  0  0  0
   -4.1140   -2.7798    0.0522 H   0  0  0  0  0  0  0  0  0  0  0  0
   -2.4570   -2.1098    1.2172 C   0  0  0  0  0  0  0  0  0  0  0  0
   -1.5600   -2.7438    1.7572 O   0  0  0  0  0  0  0  0  0  0  0  0
   -2.2870   -0.8898    0.7102 N   0  0  0  0  0  0  0  0  0  0  0  0
   -3.0820   -0.4218    0.2992 H   0  0  0  0  0  0  0  0  0  0  0  0
   -1.0240   -0.1468    0.7262 C   0  0  1  0  0  0  0  0  0  0  0  0
   -0.3583   -0.6100    1.4558 H   0  0  0  0  0  0  0  0  0  0  0  0
   -0.3739   -0.2459   -0.6675 C   0  0  0  0  0  0  0  0  0  0  0  0
    0.6700    0.0639   -0.5864 H   0  0  0  0  0  0  0  0  0  0  0  0
   -0.3960   -1.2841   -1.0016 H   0  0  0  0  0  0  0  0  0  0  0  0
   -1.0565    0.6400   -1.7213 C   0  0  0  0  0  0  0  0  0  0  0  0
   -0.2992    1.1645   -2.3047 H   0  0  0  0  0  0  0  0  0  0  0  0
   -1.6500    0.0119   -2.3883 H   0  0  0  0  0  0  0  0  0  0  0  0
   -1.9715    1.6749   -1.0568 C   0  0  0  0  0  0  0  0  0  0  0  0
   -2.7305    1.1651   -0.4627 H   0  0  0  0  0  0  0  0  0  0  0  0
   -1.3791    2.3202   -0.4076 H   0  0  0  0  0  0  0  0  0  0  0  0
   -2.6554    2.5246   -2.1261 C   0  0  0  0  0  0  0  0  0  0  0  0
   -1.9000    3.0491   -2.7089 H   0  0  0  0  0  0  0  0  0  0  0  0
   -3.2332    1.8797   -2.7862 H   0  0  0  0  0  0  0  0  0  0  0  0
   -3.5586    3.5121   -1.5241 N   0  0  0  0  0  0  0  0  0  0  0  0
   -3.9813    4.0633   -2.2565 H   0  0  0  0  0  0  0  0  0  0  0  0
   -4.2807    3.0295   -1.0082 H   0  0  0  0  0  0  0  0  0  0  0  0
   -1.2712    1.3099    1.1517 C   0  0  0  0  0  0  0  0  0  0  0  0
   -2.2039    1.9448    0.6639 O   0  0  0  0  0  0  0  0  0  0  0  0
   -0.4306    1.8354    2.0503 N   0  0  0  0  0  0  0  0  0  0  0  0
    0.3001    1.2459    2.4139 H   0  0  0  0  0  0  0  0  0  0  0  0
   -0.5192    3.2082    2.5456 C   0  0  0  0  0  0  0  0  0  0  0  0
   -1.5166    3.3903    2.9518 H   0  0  0  0  0  0  0  0  0  0  0  0
    0.2240    3.3791    3.3257 H   0  0  0  0  0  0  0  0  0  0  0  0
   -0.3477    3.9067    1.7239 H   0  0  0  0  0  0  0  0  0  0  0  0
  5  6  2  0  0  0  0
  5  7  1  0  0  0  0
  2  3  1  0  0  0  0
  2  4  1  0  0  0  0
  2  5  1  0  0  0  0
  1  2  1  0  0  0  0
 26 27  2  0  0  0  0
 26 28  1  0  0  0  0
 23 24  1  0  0  0  0
 23 25  1  0  0  0  0
 20 21  1  0  0  0  0
 20 22  1  0  0  0  0
 20 23  1  0  0  0  0
 17 18  1  0  0  0  0
 17 19  1  0  0  0  0
 17 20  1  0  0  0  0
 14 15  1  0  0  0  0
 14 16  1  0  0  0  0
 14 17  1  0  0  0  0
 11 12  1  0  0  0  0
 11 13  1  0  0  0  0
 11 14  1  0  0  0  0
  9 10  1  0  0  0  0
  9 11  1  0  0  0  0
  9 26  1  0  0  0  0
  7  8  1  0  0  0  0
  7  9  1  0  0  0  0
 30 31  1  0  0  0  0
 30 32  1  0  0  0  0
 30 33  1  0  0  0  0
 28 29  1  0  0  0  0
 28 30  1  0  0  0  0
M  END
$$$$
default_name
  -OEChem-02102213163D

 33 32  0     1  0  0  0  0  0999 V2000
   -3.8420   -3.6918    1.5562 H   0  0  0  0  0  0  0  0  0  0  0  0
   -3.8430   -2.7008    1.1032 C   0  0  0  0  0  0  0  0  0  0  0  0
   -4.5510   -2.0608    1.6242 H   0  0  0  0  0  0  0  0  0  0  0  0
   -4.1140   -2.7798    0.0522 H   0  0  0  0  0  0  0  0  0  0  0  0
   -2.4570   -2.1098    1.2172 C   0  0  0  0  0  0  0  0  0  0  0  0
   -1.5600   -2.7438    1.7572 O   0  0  0  0  0  0  0  0  0  0  0  0
   -2.2870   -0.8898    0.7102 N   0  0  0  0  0  0  0  0  0  0  0  0
   -3.0820   -0.4218    0.2992 H   0  0  0  0  0  0  0  0  0  0  0  0
   -1.0240   -0.1468    0.7262 C   0  0  1  0  0  0  0  0  0  0  0  0
   -0.3583   -0.6100    1.4558 H   0  0  0  0  0  0  0  0  0  0  0  0
   -0.3739   -0.2459   -0.6675 C   0  0  0  0  0  0  0  0  0  0  0  0
    0.6700    0.0639   -0.5864 H   0  0  0  0  0  0  0  0  0  0  0  0
   -0.3960   -1.2841   -1.0016 H   0  0  0  0  0  0  0  0  0  0  0  0
   -1.0565    0.6400   -1.7213 C   0  0  0  0  0  0  0  0  0  0  0  0
   -0.3245    0.9523   -2.4666 H   0  0  0  0  0  0  0  0  0  0  0  0
   -1.8462    0.0691   -2.2132 H   0  0  0  0  0  0  0  0  0  0  0  0
   -1.6658    1.8892   -1.0747 C   0  0  0  0  0  0  0  0  0  0  0  0
   -2.3952    1.5927   -0.3204 H   0  0  0  0  0  0  0  0  0  0  0  0
   -0.8771    2.4754   -0.6023 H   0  0  0  0  0  0  0  0  0  0  0  0
   -2.3582    2.7384   -2.1389 C   0  0  0  0  0  0  0  0  0  0  0  0
   -1.6279    3.0512   -2.8834 H   0  0  0  0  0  0  0  0  0  0  0  0
   -3.1344    2.1488   -2.6240 H   0  0  0  0  0  0  0  0  0  0  0  0
   -2.9740    3.9327   -1.5492 N   0  0  0  0  0  0  0  0  0  0  0  0
   -3.4089    4.4758   -2.2805 H   0  0  0  0  0  0  0  0  0  0  0  0
   -3.6754    3.6479   -0.8804 H   0  0  0  0  0  0  0  0  0  0  0  0
   -1.2712    1.3099    1.1517 C   0  0  0  0  0  0  0  0  0  0  0  0
   -2.2039    1.9448    0.6639 O   0  0  0  0  0  0  0  0  0  0  0  0
   -0.4306    1.8354    2.0503 N   0  0  0  0  0  0  0  0  0  0  0  0
    0.3001    1.2459    2.4139 H   0  0  0  0  0  0  0  0  0  0  0  0
   -0.5192    3.2082    2.5456 C   0  0  0  0  0  0  0  0  0  0  0  0
   -1.5166    3.3903    2.9518 H   0  0  0  0  0  0  0  0  0  0  0  0
    0.2240    3.3791    3.3257 H   0  0  0  0  0  0  0  0  0  0  0  0
   -0.3477    3.9067    1.7239 H   0  0  0  0  0  0  0  0  0  0  0  0
  5  6  2  0  0  0  0
  5  7  1  0  0  0  0
  2  3  1  0  0  0  0
  2  4  1  0  0  0  0
  2  5  1  0  0  0  0
  1  2  1  0  0  0  0
 26 27  2  0  0  0  0
 26 28  1  0  0  0  0
 23 24  1  0  0  0  0
 23 25  1  0  0  0  0
 20 21  1  0  0  0  0
 20 22  1  0  0  0  0
 20 23  1  0  0  0  0
 17 18  1  0  0  0  0
 17 19  1  0  0  0  0
 17 20  1  0  0  0  0
 14 15  1  0  0  0  0
 14 16  1  0  0  0  0
 14 17  1  0  0  0  0
 11 12  1  0  0  0  0
 11 13  1  0  0  0  0
 11 14  1  0  0  0  0
  9 10  1  0  0  0  0
  9 11  1  0  0  0  0
  9 26  1  0  0  0  0
  7  8  1  0  0  0  0
  7  9  1  0  0  0  0
 30 31  1  0  0  0  0
 30 32  1  0  0  0  0
 30 33  1  0  0  0  0
 28 29  1  0  0  0  0
 28 30  1  0  0  0  0
M  END
$$$$
default_name
  -OEChem-02102213163D

 33 32  0     1  0  0  0  0  0999 V2000
   -3.8420   -3.6918    1.5562 H   0  0  0  0  0  0  0  0  0  0  0  0
   -3.8430   -2.7008    1.1032 C   0  0  0  0  0  0  0  0  0  0  0  0
   -4.5510   -2.0608    1.6242 H   0  0  0  0  0  0  0  0  0  0  0  0
   -4.1140   -2.7798    0.0522 H   0  0  0  0  0  0  0  0  0  0  0  0
   -2.4570   -2.1098    1.2172 C   0  0  0  0  0  0  0  0  0  0  0  0
   -1.5600   -2.7438    1.7572 O   0  0  0  0  0  0  0  0  0  0  0  0
   -2.2870   -0.8898    0.7102 N   0  0  0  0  0  0  0  0  0  0  0  0
   -3.0820   -0.4218    0.2992 H   0  0  0  0  0  0  0  0  0  0  0  0
   -1.0240   -0.1468    0.7262 C   0  0  1  0  0  0  0  0  0  0  0  0
   -0.3583   -0.6100    1.4558 H   0  0  0  0  0  0  0  0  0  0  0  0
   -0.3739   -0.2459   -0.6675 C   0  0  0  0  0  0  0  0  0  0  0  0
    0.6700    0.0639   -0.5864 H   0  0  0  0  0  0  0  0  0  0  0  0
   -0.3960   -1.2841   -1.0016 H   0  0  0  0  0  0  0  0  0  0  0  0
   -1.0565    0.6400   -1.7213 C   0  0  0  0  0  0  0  0  0  0  0  0
   -0.4108    0.7332   -2.5949 H   0  0  0  0  0  0  0  0  0  0  0  0
   -1.9994    0.1792   -2.0214 H   0  0  0  0  0  0  0  0  0  0  0  0
   -1.3351    2.0398   -1.1623 C   0  0  0  0  0  0  0  0  0  0  0  0
   -1.9743    1.9625   -0.2822 H   0  0  0  0  0  0  0  0  0  0  0  0
   -0.3936    2.5138   -0.8831 H   0  0  0  0  0  0  0  0  0  0  0  0
   -2.0351    2.8907   -2.2202 C   0  0  0  0  0  0  0  0  0  0  0  0
   -1.3908    2.9848   -3.0928 H   0  0  0  0  0  0  0  0  0  0  0  0
   -2.9670    2.4098   -2.5131 H   0  0  0  0  0  0  0  0  0  0  0  0
   -2.3383    4.2323   -1.7090 N   0  0  0  0  0  0  0  0  0  0  0  0
   -2.7864    4.7699   -2.4365 H   0  0  0  0  0  0  0  0  0  0  0  0
   -2.9619    4.1526   -0.9183 H   0  0  0  0  0  0  0  0  0  0  0  0
   -1.2712    1.3099    1.1517 C   0  0  0  0  0  0  0  0  0  0  0  0
   -2.2039    1.9448    0.6639 O   0  0  0  0  0  0  0  0  0  0  0  0
   -0.4306    1.8354    2.0503 N   0  0  0  0  0  0  0  0  0  0  0  0
    0.3001    1.2459    2.4139 H   0  0  0  0  0  0  0  0  0  0  0  0
   -0.5192    3.2082    2.5456 C   0  0  0  0  0  0  0  0  0  0  0  0
   -1.5166    3.3903    2.9518 H   0  0  0  0  0  0  0  0  0  0  0  0
    0.2240    3.3791    3.3257 H   0  0  0  0  0  0  0  0  0  0  0  0
   -0.3477    3.9067    1.7239 H   0  0  0  0  0  0  0  0  0  0  0  0
  5  6  2  0  0  0  0
  5  7  1  0  0  0  0
  2  3  1  0  0  0  0
  2  4  1  0  0  0  0
  2  5  1  0  0  0  0
  1  2  1  0  0  0  0
 26 27  2  0  0  0  0
 26 28  1  0  0  0  0
 23 24  1  0  0  0  0
 23 25  1  0  0  0  0
 20 21  1  0  0  0  0
 20 22  1  0  0  0  0
 20 23  1  0  0  0  0
 17 18  1  0  0  0  0
 17 19  1  0  0  0  0
 17 20  1  0  0  0  0
 14 15  1  0  0  0  0
 14 16  1  0  0  0  0
 14 17  1  0  0  0  0
 11 12  1  0  0  0  0
 11 13  1  0  0  0  0
 11 14  1  0  0  0  0
  9 10  1  0  0  0  0
  9 11  1  0  0  0  0
  9 26  1  0  0  0  0
  7  8  1  0  0  0  0
  7  9  1  0  0  0  0
 30 31  1  0  0  0  0
 30 32  1  0  0  0  0
 30 33  1  0  0  0  0
 28 29  1  0  0  0  0
 28 30  1  0  0  0  0
M  END
$$$$
default_name
  -OEChem-02102213163D

 33 32  0     1  0  0  0  0  0999 V2000
   -3.8420   -3.6918    1.5562 H   0  0  0  0  0  0  0  0  0  0  0  0
   -3.8430   -2.7008    1.1032 C   0  0  0  0  0  0  0  0  0  0  0  0
   -4.5510   -2.0608    1.6242 H   0  0  0  0  0  0  0  0  0  0  0  0
   -4.1140   -2.7798    0.0522 H   0  0  0  0  0  0  0  0  0  0  0  0
   -2.4570   -2.1098    1.2172 C   0  0  0  0  0  0  0  0  0  0  0  0
   -1.5600   -2.7438    1.7572 O   0  0  0  0  0  0  0  0  0  0  0  0
   -2.2870   -0.8898    0.7102 N   0  0  0  0  0  0  0  0  0  0  0  0
   -3.0820   -0.4218    0.2992 H   0  0  0  0  0  0  0  0  0  0  0  0
   -1.0240   -0.1468    0.7262 C   0  0  1  0  0  0  0  0  0  0  0  0
   -0.3583   -0.6100    1.4558 H   0  0  0  0  0  0  0  0  0  0  0  0
   -0.3739   -0.2459   -0.6675 C   0  0  0  0  0  0  0  0  0  0  0  0
    0.6700    0.0639   -0.5864 H   0  0  0  0  0  0  0  0  0  0  0  0
   -0.3960   -1.2841   -1.0016 H   0  0  0  0  0  0  0  0  0  0  0  0
   -1.0565    0.6400   -1.7213 C   0  0  0  0  0  0  0  0  0  0  0  0
   -0.5521    0.5222   -2.6808 H   0  0  0  0  0  0  0  0  0  0  0  0
   -2.0993    0.3348   -1.8259 H   0  0  0  0  0  0  0  0  0  0  0  0
   -1.0020    2.1166   -1.3135 C   0  0  0  0  0  0  0  0  0  0  0  0
   -1.4963    2.2494   -0.3507 H   0  0  0  0  0  0  0  0  0  0  0  0
    0.0383    2.4328   -1.2310 H   0  0  0  0  0  0  0  0  0  0  0  0
   -1.7081    2.9711   -2.3644 C   0  0  0  0  0  0  0  0  0  0  0  0
   -1.2048    2.8545   -3.3228 H   0  0  0  0  0  0  0  0  0  0  0  0
   -2.7424    2.6450   -2.4609 H   0  0  0  0  0  0  0  0  0  0  0  0
   -1.6950    4.3906   -1.9927 N   0  0  0  0  0  0  0  0  0  0  0  0
   -2.1562    4.9255   -2.7138 H   0  0  0  0  0  0  0  0  0  0  0  0
   -2.1888    4.5090   -1.1195 H   0  0  0  0  0  0  0  0  0  0  0  0
   -1.2712    1.3099    1.1517 C   0  0  0  0  0  0  0  0  0  0  0  0
   -2.2039    1.9448    0.6639 O   0  0  0  0  0  0  0  0  0  0  0  0
   -0.4306    1.8354    2.0503 N   0  0  0  0  0  0  0  0  0  0  0  0
    0.3001    1.2459    2.4139 H   0  0  0  0  0  0  0  0  0  0  0  0
   -0.5192    3.2082    2.5456 C   0  0  0  0  0  0  0  0  0  0  0  0
   -1.5166    3.3903    2.9518 H   0  0  0  0  0  0  0  0  0  0  0  0
    0.2240    3.3791    3.3257 H   0  0  0  0  0  0  0  0  0  0  0  0
   -0.3477    3.9067    1.7239 H   0  0  0  0  0  0  0  0  0  0  0  0
  5  6  2  0  0  0  0
  5  7  1  0  0  0  0
  2  3  1  0  0  0  0
  2  4  1  0  0  0  0
  2  5  1  0  0  0  0
  1  2  1  0  0  0  0
 26 27  2  0  0  0  0
 26 28  1  0  0  0  0
 23 24  1  0  0  0  0
 23 25  1  0  0  0  0
 20 21  1  0  0  0  0
 20 22  1  0  0  0  0
 20 23  1  0  0  0  0
 17 18  1  0  0  0  0
 17 19  1  0  0  0  0
 17 20  1  0  0  0  0
 14 15  1  0  0  0  0
 14 16  1  0  0  0  0
 14 17  1  0  0  0  0
 11 12  1  0  0  0  0
 11 13  1  0  0  0  0
 11 14  1  0  0  0  0
  9 10  1  0  0  0  0
  9 11  1  0  0  0  0
  9 26  1  0  0  0  0
  7  8  1  0  0  0  0
  7  9  1  0  0  0  0
 30 31  1  0  0  0  0
 30 32  1  0  0  0  0
 30 33  1  0  0  0  0
 28 29  1  0  0  0  0
 28 30  1  0  0  0  0
M  END
$$$$
default_name
  -OEChem-02102213163D

 33 32  0     1  0  0  0  0  0999 V2000
   -3.8420   -3.6918    1.5562 H   0  0  0  0  0  0  0  0  0  0  0  0
   -3.8430   -2.7008    1.1032 C   0  0  0  0  0  0  0  0  0  0  0  0
   -4.5510   -2.0608    1.6242 H   0  0  0  0  0  0  0  0  0  0  0  0
   -4.1140   -2.7798    0.0522 H   0  0  0  0  0  0  0  0  0  0  0  0
   -2.4570   -2.1098    1.2172 C   0  0  0  0  0  0  0  0  0  0  0  0
   -1.5600   -2.7438    1.7572 O   0  0  0  0  0  0  0  0  0  0  0  0
   -2.2870   -0.8898    0.7102 N   0  0  0  0  0  0  0  0  0  0  0  0
   -3.0820   -0.4218    0.2992 H   0  0  0  0  0  0  0  0  0  0  0  0
   -1.0240   -0.1468    0.7262 C   0  0  1  0  0  0  0  0  0  0  0  0
   -0.3583   -0.6100    1.4558 H   0  0  0  0  0  0  0  0  0  0  0  0
   -0.3739   -0.2459   -0.6675 C   0  0  0  0  0  0  0  0  0  0  0  0
    0.6700    0.0639   -0.5864 H   0  0  0  0  0  0  0  0  0  0  0  0
   -0.3960   -1.2841   -1.0016 H   0  0  0  0  0  0  0  0  0  0  0  0
   -1.0565    0.6400   -1.7213 C   0  0  0  0  0  0  0  0  0  0  0  0
   -0.7389    0.3336   -2.7184 H   0  0  0  0  0  0  0  0  0  0  0  0
   -2.1390    0.5253   -1.6400 H   0  0  0  0  0  0  0  0  0  0  0  0
   -0.6892    2.1143   -1.5181 C   0  0  0  0  0  0  0  0  0  0  0  0
   -0.9939    2.4338   -0.5210 H   0  0  0  0  0  0  0  0  0  0  0  0
    0.3892    2.2379   -1.6221 H   0  0  0  0  0  0  0  0  0  0  0  0
   -1.3995    2.9741   -2.5617 C   0  0  0  0  0  0  0  0  0  0  0  0
   -1.0826    2.6692   -3.5578 H   0  0  0  0  0  0  0  0  0  0  0  0
   -2.4759    2.8382   -2.4710 H   0  0  0  0  0  0  0  0  0  0  0  0
   -1.0878    4.3966   -2.3808 N   0  0  0  0  0  0  0  0  0  0  0  0
   -1.5613    4.9321   -3.0937 H   0  0  0  0  0  0  0  0  0  0  0  0
   -1.4088    4.6929   -1.4701 H   0  0  0  0  0  0  0  0  0  0  0  0
   -1.2712    1.3099    1.1517 C   0  0  0  0  0  0  0  0  0  0  0  0
   -2.2039    1.9448    0.6639 O   0  0  0  0  0  0  0  0  0  0  0  0
   -0.4306    1.8354    2.0503 N   0  0  0  0  0  0  0  0  0  0  0  0
    0.3001    1.2459    2.4139 H   0  0  0  0  0  0  0  0  0  0  0  0
   -0.5192    3.2082    2.5456 C   0  0  0  0  0  0  0  0  0  0  0  0
   -1.5166    3.3903    2.9518 H   0  0  0  0  0  0  0  0  0  0  0  0
    0.2240    3.3791    3.3257 H   0  0  0  0  0  0  0  0  0  0  0  0
   -0.3477    3.9067    1.7239 H   0  0  0  0  0  0  0  0  0  0  0  0
  5  6  2  0  0  0  0
  5  7  1  0  0  0  0
  2  3  1  0  0  0  0
  2  4  1  0  0  0  0
  2  5  1  0  0  0  0
  1  2  1  0  0  0  0
 26 27  2  0  0  0  0
 26 28  1  0  0  0  0
 23 24  1  0  0  0  0
 23 25  1  0  0  0  0
 20 21  1  0  0  0  0
 20 22  1  0  0  0  0
 20 23  1  0  0  0  0
 17 18  1  0  0  0  0
 17 19  1  0  0  0  0
 17 20  1  0  0  0  0
 14 15  1  0  0  0  0
 14 16  1  0  0  0  0
 14 17  1  0  0  0  0
 11 12  1  0  0  0  0
 11 13  1  0  0  0  0
 11 14  1  0  0  0  0
  9 10  1  0  0  0  0
  9 11  1  0  0  0  0
  9 26  1  0  0  0  0
  7  8  1  0  0  0  0
  7  9  1  0  0  0  0
 30 31  1  0  0  0  0
 30 32  1  0  0  0  0
 30 33  1  0  0  0  0
 28 29  1  0  0  0  0
 28 30  1  0  0  0  0
M  END
$$$$
default_name
  -OEChem-02102213163D

 33 32  0     1  0  0  0  0  0999 V2000
   -3.8420   -3.6918    1.5562 H   0  0  0  0  0  0  0  0  0  0  0  0
   -3.8430   -2.7008    1.1032 C   0  0  0  0  0  0  0  0  0  0  0  0
   -4.5510   -2.0608    1.6242 H   0  0  0  0  0  0  0  0  0  0  0  0
   -4.1140   -2.7798    0.0522 H   0  0  0  0  0  0  0  0  0  0  0  0
   -2.4570   -2.1098    1.2172 C   0  0  0  0  0  0  0  0  0  0  0  0
   -1.5600   -2.7438    1.7572 O   0  0  0  0  0  0  0  0  0  0  0  0
   -2.2870   -0.8898    0.7102 N   0  0  0  0  0  0  0  0  0  0  0  0
   -3.0820   -0.4218    0.2992 H   0  0  0  0  0  0  0  0  0  0  0  0
   -1.0240   -0.1468    0.7262 C   0  0  1  0  0  0  0  0  0  0  0  0
   -0.3583   -0.6100    1.4558 H   0  0  0  0  0  0  0  0  0  0  0  0
   -0.3739   -0.2459   -0.6675 C   0  0  0  0  0  0  0  0  0  0  0  0
    0.6700    0.0639   -0.5864 H   0  0  0  0  0  0  0  0  0  0  0  0
   -0.3960   -1.2841   -1.0016 H   0  0  0  0  0  0  0  0  0  0  0  0
   -1.0565    0.6400   -1.7213 C   0  0  0  0  0  0  0  0  0  0  0  0
   -0.9584    0.1802   -2.7051 H   0  0  0  0  0  0  0  0  0  0  0  0
   -2.1157    0.7378   -1.4765 H   0  0  0  0  0  0  0  0  0  0  0  0
   -0.4180    2.0329   -1.7621 C   0  0  0  0  0  0  0  0  0  0  0  0
   -0.5013    2.5031   -0.7818 H   0  0  0  0  0  0  0  0  0  0  0  0
    0.6352    1.9424   -2.0298 H   0  0  0  0  0  0  0  0  0  0  0  0
   -1.1303    2.8996   -2.7987 C   0  0  0  0  0  0  0  0  0  0  0  0
   -1.0325    2.4415   -3.7816 H   0  0  0  0  0  0  0  0  0  0  0  0
   -2.1857    2.9765   -2.5427 H   0  0  0  0  0  0  0  0  0  0  0  0
   -0.5582    4.2501   -2.8471 N   0  0  0  0  0  0  0  0  0  0  0  0
   -1.0421    4.7891   -3.5501 H   0  0  0  0  0  0  0  0  0  0  0  0
   -0.6750    4.6918   -1.9463 H   0  0  0  0  0  0  0  0  0  0  0  0
   -1.2712    1.3099    1.1517 C   0  0  0  0  0  0  0  0  0  0  0  0
   -2.2039    1.9448    0.6639 O   0  0  0  0  0  0  0  0  0  0  0  0
   -0.4306    1.8354    2.0503 N   0  0  0  0  0  0  0  0  0  0  0  0
    0.3001    1.2459    2.4139 H   0  0  0  0  0  0  0  0  0  0  0  0
   -0.5192    3.2082    2.5456 C   0  0  0  0  0  0  0  0  0  0  0  0
   -1.5166    3.3903    2.9518 H   0  0  0  0  0  0  0  0  0  0  0  0
    0.2240    3.3791    3.3257 H   0  0  0  0  0  0  0  0  0  0  0  0
   -0.3477    3.9067    1.7239 H   0  0  0  0  0  0  0  0  0  0  0  0
  5  6  2  0  0  0  0
  5  7  1  0  0  0  0
  2  3  1  0  0  0  0
  2  4  1  0  0  0  0
  2  5  1  0  0  0  0
  1  2  1  0  0  0  0
 26 27  2  0  0  0  0
 26 28  1  0  0  0  0
 23 24  1  0  0  0  0
 23 25  1  0  0  0  0
 20 21  1  0  0  0  0
 20 22  1  0  0  0  0
 20 23  1  0  0  0  0
 17 18  1  0  0  0  0
 17 19  1  0  0  0  0
 17 20  1  0  0  0  0
 14 15  1  0  0  0  0
 14 16  1  0  0  0  0
 14 17  1  0  0  0  0
 11 12  1  0  0  0  0
 11 13  1  0  0  0  0
 11 14  1  0  0  0  0
  9 10  1  0  0  0  0
  9 11  1  0  0  0  0
  9 26  1  0  0  0  0
  7  8  1  0  0  0  0
  7  9  1  0  0  0  0
 30 31  1  0  0  0  0
 30 32  1  0  0  0  0
 30 33  1  0  0  0  0
 28 29  1  0  0  0  0
 28 30  1  0  0  0  0
M  END
$$$$
default_name
  -OEChem-02102213163D

 33 32  0     1  0  0  0  0  0999 V2000
   -3.8420   -3.6918    1.5562 H   0  0  0  0  0  0  0  0  0  0  0  0
   -3.8430   -2.7008    1.1032 C   0  0  0  0  0  0  0  0  0  0  0  0
   -4.5510   -2.0608    1.6242 H   0  0  0  0  0  0  0  0  0  0  0  0
   -4.1140   -2.7798    0.0522 H   0  0  0  0  0  0  0  0  0  0  0  0
   -2.4570   -2.1098    1.2172 C   0  0  0  0  0  0  0  0  0  0  0  0
   -1.5600   -2.7438    1.7572 O   0  0  0  0  0  0  0  0  0  0  0  0
   -2.2870   -0.8898    0.7102 N   0  0  0  0  0  0  0  0  0  0  0  0
   -3.0820   -0.4218    0.2992 H   0  0  0  0  0  0  0  0  0  0  0  0
   -1.0240   -0.1468    0.7262 C   0  0  1  0  0  0  0  0  0  0  0  0
   -0.3583   -0.6100    1.4558 H   0  0  0  0  0  0  0  0  0  0  0  0
   -0.3739   -0.2459   -0.6675 C   0  0  0  0  0  0  0  0  0  0  0  0
    0.6700    0.0639   -0.5864 H   0  0  0  0  0  0  0  0  0  0  0  0
   -0.3960   -1.2841   -1.0016 H   0  0  0  0  0  0  0  0  0  0  0  0
   -1.0565    0.6400   -1.7213 C   0  0  0  0  0  0  0  0  0  0  0  0
   -1.1957    0.0725   -2.6419 H   0  0  0  0  0  0  0  0  0  0  0  0
   -2.0312    0.9576   -1.3464 H   0  0  0  0  0  0  0  0  0  0  0  0
   -0.2068    1.8782   -2.0289 C   0  0  0  0  0  0  0  0  0  0  0  0
   -0.0521    2.4527   -1.1151 H   0  0  0  0  0  0  0  0  0  0  0  0
    0.7595    1.5664   -2.4264 H   0  0  0  0  0  0  0  0  0  0  0  0
   -0.9188    2.7526   -3.0593 C   0  0  0  0  0  0  0  0  0  0  0  0
   -1.0579    2.1869   -3.9792 H   0  0  0  0  0  0  0  0  0  0  0  0
   -1.8916    3.0502   -2.6712 H   0  0  0  0  0  0  0  0  0  0  0  0
   -0.1422    3.9609   -3.3596 N   0  0  0  0  0  0  0  0  0  0  0  0
   -0.6341    4.5065   -4.0520 H   0  0  0  0  0  0  0  0  0  0  0  0
   -0.0375    4.5058   -2.5156 H   0  0  0  0  0  0  0  0  0  0  0  0
   -1.2712    1.3099    1.1517 C   0  0  0  0  0  0  0  0  0  0  0  0
   -2.2039    1.9448    0.6639 O   0  0  0  0  0  0  0  0  0  0  0  0
   -0.4306    1.8354    2.0503 N   0  0  0  0  0  0  0  0  0  0  0  0
    0.3001    1.2459    2.4139 H   0  0  0  0  0  0  0  0  0  0  0  0
   -0.5192    3.2082    2.5456 C   0  0  0  0  0  0  0  0  0  0  0  0
   -1.5166    3.3903    2.9518 H   0  0  0  0  0  0  0  0  0  0  0  0
    0.2240    3.3791    3.3257 H   0  0  0  0  0  0  0  0  0  0  0  0
   -0.3477    3.9067    1.7239 H   0  0  0  0  0  0  0  0  0  0  0  0
  5  6  2  0  0  0  0
  5  7  1  0  0  0  0
  2  3  1  0  0  0  0
  2  4  1  0  0  0  0
  2  5  1  0  0  0  0
  1  2  1  0  0  0  0
 26 27  2  0  0  0  0
 26 28  1  0  0  0  0
 23 24  1  0  0  0  0
 23 25  1  0  0  0  0
 20 21  1  0  0  0  0
 20 22  1  0  0  0  0
 20 23  1  0  0  0  0
 17 18  1  0  0  0  0
 17 19  1  0  0  0  0
 17 20  1  0  0  0  0
 14 15  1  0  0  0  0
 14 16  1  0  0  0  0
 14 17  1  0  0  0  0
 11 12  1  0  0  0  0
 11 13  1  0  0  0  0
 11 14  1  0  0  0  0
  9 10  1  0  0  0  0
  9 11  1  0  0  0  0
  9 26  1  0  0  0  0
  7  8  1  0  0  0  0
  7  9  1  0  0  0  0
 30 31  1  0  0  0  0
 30 32  1  0  0  0  0
 30 33  1  0  0  0  0
 28 29  1  0  0  0  0
 28 30  1  0  0  0  0
M  END
$$$$
default_name
  -OEChem-02102213163D

 33 32  0     1  0  0  0  0  0999 V2000
   -3.8420   -3.6918    1.5562 H   0  0  0  0  0  0  0  0  0  0  0  0
   -3.8430   -2.7008    1.1032 C   0  0  0  0  0  0  0  0  0  0  0  0
   -4.5510   -2.0608    1.6242 H   0  0  0  0  0  0  0  0  0  0  0  0
   -4.1140   -2.7798    0.0522 H   0  0  0  0  0  0  0  0  0  0  0  0
   -2.4570   -2.1098    1.2172 C   0  0  0  0  0  0  0  0  0  0  0  0
   -1.5600   -2.7438    1.7572 O   0  0  0  0  0  0  0  0  0  0  0  0
   -2.2870   -0.8898    0.7102 N   0  0  0  0  0  0  0  0  0  0  0  0
   -3.0820   -0.4218    0.2992 H   0  0  0  0  0  0  0  0  0  0  0  0
   -1.0240   -0.1468    0.7262 C   0  0  1  0  0  0  0  0  0  0  0  0
   -0.3583   -0.6100    1.4558 H   0  0  0  0  0  0  0  0  0  0  0  0
   -0.3739   -0.2459   -0.6675 C   0  0  0  0  0  0  0  0  0  0  0  0
    0.6700    0.0639   -0.5864 H   0  0  0  0  0  0  0  0  0  0  0  0
   -0.3960   -1.2841   -1.0016 H   0  0  0  0  0  0  0  0  0  0  0  0
   -1.0565    0.6400   -1.7213 C   0  0  0  0  0  0  0  0  0  0  0  0
   -1.4346    0.0179   -2.5331 H   0  0  0  0  0  0  0  0  0  0  0  0
   -1.8911    1.1700   -1.2587 H   0  0  0  0  0  0  0  0  0  0  0  0
   -0.0702    1.6606   -2.3004 C   0  0  0  0  0  0  0  0  0  0  0  0
    0.3231    2.2860   -1.4984 H   0  0  0  0  0  0  0  0  0  0  0  0
    0.7537    1.1356   -2.7848 H   0  0  0  0  0  0  0  0  0  0  0  0
   -0.7796    2.5431   -3.3256 C   0  0  0  0  0  0  0  0  0  0  0  0
   -1.1571    1.9228   -4.1369 H   0  0  0  0  0  0  0  0  0  0  0  0
   -1.6136    3.0545   -2.8477 H   0  0  0  0  0  0  0  0  0  0  0  0
    0.1318    3.5488   -3.8835 N   0  0  0  0  0  0  0  0  0  0  0  0
   -0.3650    4.1033   -4.5652 H   0  0  0  0  0  0  0  0  0  0  0  0
    0.4603    4.1474   -3.1392 H   0  0  0  0  0  0  0  0  0  0  0  0
   -1.2712    1.3099    1.1517 C   0  0  0  0  0  0  0  0  0  0  0  0
   -2.2039    1.9448    0.6639 O   0  0  0  0  0  0  0  0  0  0  0  0
   -0.4306    1.8354    2.0503 N   0  0  0  0  0  0  0  0  0  0  0  0
    0.3001    1.2459    2.4139 H   0  0  0  0  0  0  0  0  0  0  0  0
   -0.5192    3.2082    2.5456 C   0  0  0  0  0  0  0  0  0  0  0  0
   -1.5166    3.3903    2.9518 H   0  0  0  0  0  0  0  0  0  0  0  0
    0.2240    3.3791    3.3257 H   0  0  0  0  0  0  0  0  0  0  0  0
   -0.3477    3.9067    1.7239 H   0  0  0  0  0  0  0  0  0  0  0  0
  5  6  2  0  0  0  0
  5  7  1  0  0  0  0
  2  3  1  0  0  0  0
  2  4  1  0  0  0  0
  2  5  1  0  0  0  0
  1  2  1  0  0  0  0
 26 27  2  0  0  0  0
 26 28  1  0  0  0  0
 23 24  1  0  0  0  0
 23 25  1  0  0  0  0
 20 21  1  0  0  0  0
 20 22  1  0  0  0  0
 20 23  1  0  0  0  0
 17 18  1  0  0  0  0
 17 19  1  0  0  0  0
 17 20  1  0  0  0  0
 14 15  1  0  0  0  0
 14 16  1  0  0  0  0
 14 17  1  0  0  0  0
 11 12  1  0  0  0  0
 11 13  1  0  0  0  0
 11 14  1  0  0  0  0
  9 10  1  0  0  0  0
  9 11  1  0  0  0  0
  9 26  1  0  0  0  0
  7  8  1  0  0  0  0
  7  9  1  0  0  0  0
 30 31  1  0  0  0  0
 30 32  1  0  0  0  0
 30 33  1  0  0  0  0
 28 29  1  0  0  0  0
 28 30  1  0  0  0  0
M  END
$$$$
default_name
  -OEChem-02102213163D

 33 32  0     1  0  0  0  0  0999 V2000
   -3.8420   -3.6918    1.5562 H   0  0  0  0  0  0  0  0  0  0  0  0
   -3.8430   -2.7008    1.1032 C   0  0  0  0  0  0  0  0  0  0  0  0
   -4.5510   -2.0608    1.6242 H   0  0  0  0  0  0  0  0  0  0  0  0
   -4.1140   -2.7798    0.0522 H   0  0  0  0  0  0  0  0  0  0  0  0
   -2.4570   -2.1098    1.2172 C   0  0  0  0  0  0  0  0  0  0  0  0
   -1.5600   -2.7438    1.7572 O   0  0  0  0  0  0  0  0  0  0  0  0
   -2.2870   -0.8898    0.7102 N   0  0  0  0  0  0  0  0  0  0  0  0
   -3.0820   -0.4218    0.2992 H   0  0  0  0  0  0  0  0  0  0  0  0
   -1.0240   -0.1468    0.7262 C   0  0  1  0  0  0  0  0  0  0  0  0
   -0.3583   -0.6100    1.4558 H   0  0  0  0  0  0  0  0  0  0  0  0
   -0.3739   -0.2459   -0.6675 C   0  0  0  0  0  0  0  0  0  0  0  0
    0.6700    0.0639   -0.5864 H   0  0  0  0  0  0  0  0  0  0  0  0
   -0.3960   -1.2841   -1.0016 H   0  0  0  0  0  0  0  0  0  0  0  0
   -1.0565    0.6400   -1.7213 C   0  0  0  0  0  0  0  0  0  0  0  0
   -1.6588    0.0201   -2.3861 H   0  0  0  0  0  0  0  0  0  0  0  0
   -1.7050    1.3603   -1.2192 H   0  0  0  0  0  0  0  0  0  0  0  0
   -0.0173    1.3949   -2.5579 C   0  0  0  0  0  0  0  0  0  0  0  0
    0.5988    2.0142   -1.9053 H   0  0  0  0  0  0  0  0  0  0  0  0
    0.6181    0.6793   -3.0805 H   0  0  0  0  0  0  0  0  0  0  0  0
   -0.7220    2.2854   -3.5795 C   0  0  0  0  0  0  0  0  0  0  0  0
   -1.3233    1.6672   -4.2441 H   0  0  0  0  0  0  0  0  0  0  0  0
   -1.3706    2.9890   -3.0602 H   0  0  0  0  0  0  0  0  0  0  0  0
    0.2452    3.0419   -4.3831 N   0  0  0  0  0  0  0  0  0  0  0  0
   -0.2533    3.6071   -5.0547 H   0  0  0  0  0  0  0  0  0  0  0  0
    0.7845    3.6413   -3.7747 H   0  0  0  0  0  0  0  0  0  0  0  0
   -1.2712    1.3099    1.1517 C   0  0  0  0  0  0  0  0  0  0  0  0
   -2.2039    1.9448    0.6639 O   0  0  0  0  0  0  0  0  0  0  0  0
   -0.4306    1.8354    2.0503 N   0  0  0  0  0  0  0  0  0  0  0  0
    0.3001    1.2459    2.4139 H   0  0  0  0  0  0  0  0  0  0  0  0
   -0.5192    3.2082    2.5456 C   0  0  0  0  0  0  0  0  0  0  0  0
   -1.5166    3.3903    2.9518 H   0  0  0  0  0  0  0  0  0  0  0  0
    0.2240    3.3791    3.3257 H   0  0  0  0  0  0  0  0  0  0  0  0
   -0.3477    3.9067    1.7239 H   0  0  0  0  0  0  0  0  0  0  0  0
  5  6  2  0  0  0  0
  5  7  1  0  0  0  0
  2  3  1  0  0  0  0
  2  4  1  0  0  0  0
  2  5  1  0  0  0  0
  1  2  1  0  0  0  0
 26 27  2  0  0  0  0
 26 28  1  0  0  0  0
 23 24  1  0  0  0  0
 23 25  1  0  0  0  0
 20 21  1  0  0  0  0
 20 22  1  0  0  0  0
 20 23  1  0  0  0  0
 17 18  1  0  0  0  0
 17 19  1  0  0  0  0
 17 20  1  0  0  0  0
 14 15  1  0  0  0  0
 14 16  1  0  0  0  0
 14 17  1  0  0  0  0
 11 12  1  0  0  0  0
 11 13  1  0  0  0  0
 11 14  1  0  0  0  0
  9 10  1  0  0  0  0
  9 11  1  0  0  0  0
  9 26  1  0  0  0  0
  7  8  1  0  0  0  0
  7  9  1  0  0  0  0
 30 31  1  0  0  0  0
 30 32  1  0  0  0  0
 30 33  1  0  0  0  0
 28 29  1  0  0  0  0
 28 30  1  0  0  0  0
M  END
$$$$
default_name
  -OEChem-02102213163D

 33 32  0     1  0  0  0  0  0999 V2000
   -3.8420   -3.6918    1.5562 H   0  0  0  0  0  0  0  0  0  0  0  0
   -3.8430   -2.7008    1.1032 C   0  0  0  0  0  0  0  0  0  0  0  0
   -4.5510   -2.0608    1.6242 H   0  0  0  0  0  0  0  0  0  0  0  0
   -4.1140   -2.7798    0.0522 H   0  0  0  0  0  0  0  0  0  0  0  0
   -2.4570   -2.1098    1.2172 C   0  0  0  0  0  0  0  0  0  0  0  0
   -1.5600   -2.7438    1.7572 O   0  0  0  0  0  0  0  0  0  0  0  0
   -2.2870   -0.8898    0.7102 N   0  0  0  0  0  0  0  0  0  0  0  0
   -3.0820   -0.4218    0.2992 H   0  0  0  0  0  0  0  0  0  0  0  0
   -1.0240   -0.1468    0.7262 C   0  0  1  0  0  0  0  0  0  0  0  0
   -0.3583   -0.6100    1.4558 H   0  0  0  0  0  0  0  0  0  0  0  0
   -0.3739   -0.2459   -0.6675 C   0  0  0  0  0  0  0  0  0  0  0  0
    0.6700    0.0639   -0.5864 H   0  0  0  0  0  0  0  0  0  0  0  0
   -0.3960   -1.2841   -1.0016 H   0  0  0  0  0  0  0  0  0  0  0  0
   -1.0565    0.6400   -1.7213 C   0  0  0  0  0  0  0  0  0  0  0  0
   -1.8530    0.0789   -2.2108 H   0  0  0  0  0  0  0  0  0  0  0  0
   -1.4855    1.5156   -1.2308 H   0  0  0  0  0  0  0  0  0  0  0  0
   -0.0518    1.0993   -2.7841 C   0  0  0  0  0  0  0  0  0  0  0  0
    0.7561    1.6560   -2.3083 H   0  0  0  0  0  0  0  0  0  0  0  0
    0.3620    0.2286   -3.2935 H   0  0  0  0  0  0  0  0  0  0  0  0
   -0.7500    1.9971   -3.8038 C   0  0  0  0  0  0  0  0  0  0  0  0
   -1.5453    1.4374   -4.2935 H   0  0  0  0  0  0  0  0  0  0  0  0
   -1.1792    2.8581   -3.2941 H   0  0  0  0  0  0  0  0  0  0  0  0
    0.1901    2.4746   -4.8243 N   0  0  0  0  0  0  0  0  0  0  0  0
   -0.3065    3.0516   -5.4872 H   0  0  0  0  0  0  0  0  0  0  0  0
    0.9130    3.0217   -4.3787 H   0  0  0  0  0  0  0  0  0  0  0  0
   -1.2712    1.3099    1.1517 C   0  0  0  0  0  0  0  0  0  0  0  0
   -2.2039    1.9448    0.6639 O   0  0  0  0  0  0  0  0  0  0  0  0
   -0.4306    1.8354    2.0503 N   0  0  0  0  0  0  0  0  0  0  0  0
    0.3001    1.2459    2.4139 H   0  0  0  0  0  0  0  0  0  0  0  0
   -0.5192    3.2082    2.5456 C   0  0  0  0  0  0  0  0  0  0  0  0
   -1.5166    3.3903    2.9518 H   0  0  0  0  0  0  0  0  0  0  0  0
    0.2240    3.3791    3.3257 H   0  0  0  0  0  0  0  0  0  0  0  0
   -0.3477    3.9067    1.7239 H   0  0  0  0  0  0  0  0  0  0  0  0
  5  6  2  0  0  0  0
  5  7  1  0  0  0  0
  2  3  1  0  0  0  0
  2  4  1  0  0  0  0
  2  5  1  0  0  0  0
  1  2  1  0  0  0  0
 26 27  2  0  0  0  0
 26 28  1  0  0  0  0
 23 24  1  0  0  0  0
 23 25  1  0  0  0  0
 20 21  1  0  0  0  0
 20 22  1  0  0  0  0
 20 23  1  0  0  0  0
 17 18  1  0  0  0  0
 17 19  1  0  0  0  0
 17 20  1  0  0  0  0
 14 15  1  0  0  0  0
 14 16  1  0  0  0  0
 14 17  1  0  0  0  0
 11 12  1  0  0  0  0
 11 13  1  0  0  0  0
 11 14  1  0  0  0  0
  9 10  1  0  0  0  0
  9 11  1  0  0  0  0
  9 26  1  0  0  0  0
  7  8  1  0  0  0  0
  7  9  1  0  0  0  0
 30 31  1  0  0  0  0
 30 32  1  0  0  0  0
 30 33  1  0  0  0  0
 28 29  1  0  0  0  0
 28 30  1  0  0  0  0
M  END
$$$$
default_name
  -OEChem-02102213163D

 33 32  0     1  0  0  0  0  0999 V2000
   -3.8420   -3.6918    1.5562 H   0  0  0  0  0  0  0  0  0  0  0  0
   -3.8430   -2.7008    1.1032 C   0  0  0  0  0  0  0  0  0  0  0  0
   -4.5510   -2.0608    1.6242 H   0  0  0  0  0  0  0  0  0  0  0  0
   -4.1140   -2.7798    0.0522 H   0  0  0  0  0  0  0  0  0  0  0  0
   -2.4570   -2.1098    1.2172 C   0  0  0  0  0  0  0  0  0  0  0  0
   -1.5600   -2.7438    1.7572 O   0  0  0  0  0  0  0  0  0  0  0  0
   -2.2870   -0.8898    0.7102 N   0  0  0  0  0  0  0  0  0  0  0  0
   -3.0820   -0.4218    0.2992 H   0  0  0  0  0  0  0  0  0  0  0  0
   -1.0240   -0.1468    0.7262 C   0  0  1  0  0  0  0  0  0  0  0  0
   -0.3583   -0.6100    1.4558 H   0  0  0  0  0  0  0  0  0  0  0  0
   -0.3739   -0.2459   -0.6675 C   0  0  0  0  0  0  0  0  0  0  0  0
    0.6700    0.0639   -0.5864 H   0  0  0  0  0  0  0  0  0  0  0  0
   -0.3960   -1.2841   -1.0016 H   0  0  0  0  0  0  0  0  0  0  0  0
   -1.0565    0.6400   -1.7213 C   0  0  0  0  0  0  0  0  0  0  0  0
   -2.0040    0.1903   -2.0194 H   0  0  0  0  0  0  0  0  0  0  0  0
   -1.2477    1.6254   -1.2925 H   0  0  0  0  0  0  0  0  0  0  0  0
   -0.1714    0.7939   -2.9634 C   0  0  0  0  0  0  0  0  0  0  0  0
    0.7843    1.2358   -2.6799 H   0  0  0  0  0  0  0  0  0  0  0  0
    0.0029   -0.1858   -3.4093 H   0  0  0  0  0  0  0  0  0  0  0  0
   -0.8617    1.6977   -3.9830 C   0  0  0  0  0  0  0  0  0  0  0  0
   -1.8078    1.2492   -4.2816 H   0  0  0  0  0  0  0  0  0  0  0  0
   -1.0525    2.6709   -3.5336 H   0  0  0  0  0  0  0  0  0  0  0  0
   -0.0295    1.8858   -5.1770 N   0  0  0  0  0  0  0  0  0  0  0  0
   -0.5209    2.4749   -5.8331 H   0  0  0  0  0  0  0  0  0  0  0  0
    0.8370    2.3311   -4.9101 H   0  0  0  0  0  0  0  0  0  0  0  0
   -1.2712    1.3099    1.1517 C   0  0  0  0  0  0  0  0  0  0  0  0
   -2.2039    1.9448    0.6639 O   0  0  0  0  0  0  0  0  0  0  0  0
   -0.4306    1.8354    2.0503 N   0  0  0  0  0  0  0  0  0  0  0  0
    0.3001    1.2459    2.4139 H   0  0  0  0  0  0  0  0  0  0  0  0
   -0.5192    3.2082    2.5456 C   0  0  0  0  0  0  0  0  0  0  0  0
   -1.5166    3.3903    2.9518 H   0  0  0  0  0  0  0  0  0  0  0  0
    0.2240    3.3791    3.3257 H   0  0  0  0  0  0  0  0  0  0  0  0
   -0.3477    3.9067    1.7239 H   0  0  0  0  0  0  0  0  0  0  0  0
  5  6  2  0  0  0  0
  5  7  1  0  0  0  0
  2  3  1  0  0  0  0
  2  4  1  0  0  0  0
  2  5  1  0  0  0  0
  1  2  1  0  0  0  0
 26 27  2  0  0  0  0
 26 28  1  0  0  0  0
 23 24  1  0  0  0  0
 23 25  1  0  0  0  0
 20 21  1  0  0  0  0
 20 22  1  0  0  0  0
 20 23  1  0  0  0  0
 17 18  1  0  0  0  0
 17 19  1  0  0  0  0
 17 20  1  0  0  0  0
 14 15  1  0  0  0  0
 14 16  1  0  0  0  0
 14 17  1  0  0  0  0
 11 12  1  0  0  0  0
 11 13  1  0  0  0  0
 11 14  1  0  0  0  0
  9 10  1  0  0  0  0
  9 11  1  0  0  0  0
  9 26  1  0  0  0  0
  7  8  1  0  0  0  0
  7  9  1  0  0  0  0
 30 31  1  0  0  0  0
 30 32  1  0  0  0  0
 30 33  1  0  0  0  0
 28 29  1  0  0  0  0
 28 30  1  0  0  0  0
M  END
$$$$
default_name
  -OEChem-02102213163D

 33 32  0     1  0  0  0  0  0999 V2000
   -3.8420   -3.6918    1.5562 H   0  0  0  0  0  0  0  0  0  0  0  0
   -3.8430   -2.7008    1.1032 C   0  0  0  0  0  0  0  0  0  0  0  0
   -4.5510   -2.0608    1.6242 H   0  0  0  0  0  0  0  0  0  0  0  0
   -4.1140   -2.7798    0.0522 H   0  0  0  0  0  0  0  0  0  0  0  0
   -2.4570   -2.1098    1.2172 C   0  0  0  0  0  0  0  0  0  0  0  0
   -1.5600   -2.7438    1.7572 O   0  0  0  0  0  0  0  0  0  0  0  0
   -2.2870   -0.8898    0.7102 N   0  0  0  0  0  0  0  0  0  0  0  0
   -3.0820   -0.4218    0.2992 H   0  0  0  0  0  0  0  0  0  0  0  0
   -1.0240   -0.1468    0.7262 C   0  0  1  0  0  0  0  0  0  0  0  0
   -0.3583   -0.6100    1.4558 H   0  0  0  0  0  0  0  0  0  0  0  0
   -0.3739   -0.2459   -0.6675 C   0  0  0  0  0  0  0  0  0  0  0  0
    0.7106   -0.2006   -0.5486 H   0  0  0  0  0  0  0  0  0  0  0  0
   -0.6275   -1.2079   -1.1150 H   0  0  0  0  0  0  0  0  0  0  0  0
   -0.7996    0.8833   -1.6188 C   0  0  0  0  0  0  0  0  0  0  0  0
   -1.8807    0.8567   -1.7579 H   0  0  0  0  0  0  0  0  0  0  0  0
   -0.5188    1.8442   -1.1837 H   0  0  0  0  0  0  0  0  0  0  0  0
   -0.1226    0.7318   -2.9857 C   0  0  0  0  0  0  0  0  0  0  0  0
    0.9607    0.7487   -2.8621 H   0  0  0  0  0  0  0  0  0  0  0  0
   -0.4191   -0.2164   -3.4352 H   0  0  0  0  0  0  0  0  0  0  0  0
   -0.5430    1.8790   -3.9024 C   0  0  0  0  0  0  0  0  0  0  0  0
   -1.6225    1.8529   -4.0423 H   0  0  0  0  0  0  0  0  0  0  0  0
   -0.2636    2.8275   -3.4468 H   0  0  0  0  0  0  0  0  0  0  0  0
    0.1067    1.7775   -5.2143 N   0  0  0  0  0  0  0  0  0  0  0  0
   -0.2037    2.5412   -5.7969 H   0  0  0  0  0  0  0  0  0  0  0  0
    1.1080    1.8334   -5.0933 H   0  0  0  0  0  0  0  0  0  0  0  0
   -1.2712    1.3099    1.1517 C   0  0  0  0  0  0  0  0  0  0  0  0
   -2.2039    1.9448    0.6639 O   0  0  0  0  0  0  0  0  0  0  0  0
   -0.4306    1.8354    2.0503 N   0  0  0  0  0  0  0  0  0  0  0  0
    0.3001    1.2459    2.4139 H   0  0  0  0  0  0  0  0  0  0  0  0
   -0.5192    3.2082    2.5456 C   0  0  0  0  0  0  0  0  0  0  0  0
   -1.5166    3.3903    2.9518 H   0  0  0  0  0  0  0  0  0  0  0  0
    0.2240    3.3791    3.3257 H   0  0  0  0  0  0  0  0  0  0  0  0
   -0.3477    3.9067    1.7239 H   0  0  0  0  0  0  0  0  0  0  0  0
  5  6  2  0  0  0  0
  5  7  1  0  0  0  0
  2  3  1  0  0  0  0
  2  4  1  0  0  0  0
  2  5  1  0  0  0  0
  1  2  1  0  0  0  0
 26 27  2  0  0  0  0
 26 28  1  0  0  0  0
 23 24  1  0  0  0  0
 23 25  1  0  0  0  0
 20 21  1  0  0  0  0
 20 22  1  0  0  0  0
 20 23  1  0  0  0  0
 17 18  1  0  0  0  0
 17 19  1  0  0  0  0
 17 20  1  0  0  0  0
 14 15  1  0  0  0  0
 14 16  1  0  0  0  0
 14 17  1  0  0  0  0
 11 12  1  0  0  0  0
 11 13  1  0  0  0  0
 11 14  1  0  0  0  0
  9 10  1  0  0  0  0
  9 11  1  0  0  0  0
  9 26  1  0  0  0  0
  7  8  1  0  0  0  0
  7  9  1  0  0  0  0
 30 31  1  0  0  0  0
 30 32  1  0  0  0  0
 30 33  1  0  0  0  0
 28 29  1  0  0  0  0
 28 30  1  0  0  0  0
M  END
$$$$
default_name
  -OEChem-02102213163D

 33 32  0     1  0  0  0  0  0999 V2000
   -3.8420   -3.6918    1.5562 H   0  0  0  0  0  0  0  0  0  0  0  0
   -3.8430   -2.7008    1.1032 C   0  0  0  0  0  0  0  0  0  0  0  0
   -4.5510   -2.0608    1.6242 H   0  0  0  0  0  0  0  0  0  0  0  0
   -4.1140   -2.7798    0.0522 H   0  0  0  0  0  0  0  0  0  0  0  0
   -2.4570   -2.1098    1.2172 C   0  0  0  0  0  0  0  0  0  0  0  0
   -1.5600   -2.7438    1.7572 O   0  0  0  0  0  0  0  0  0  0  0  0
   -2.2870   -0.8898    0.7102 N   0  0  0  0  0  0  0  0  0  0  0  0
   -3.0820   -0.4218    0.2992 H   0  0  0  0  0  0  0  0  0  0  0  0
   -1.0240   -0.1468    0.7262 C   0  0  1  0  0  0  0  0  0  0  0  0
   -0.3583   -0.6100    1.4558 H   0  0  0  0  0  0  0  0  0  0  0  0
   -0.3739   -0.2459   -0.6675 C   0  0  0  0  0  0  0  0  0  0  0  0
    0.7106   -0.2006   -0.5486 H   0  0  0  0  0  0  0  0  0  0  0  0
   -0.6275   -1.2079   -1.1150 H   0  0  0  0  0  0  0  0  0  0  0  0
   -0.7996    0.8833   -1.6188 C   0  0  0  0  0  0  0  0  0  0  0  0
   -1.8781    1.0300   -1.5534 H   0  0  0  0  0  0  0  0  0  0  0  0
   -0.2950    1.8066   -1.3284 H   0  0  0  0  0  0  0  0  0  0  0  0
   -0.4351    0.5442   -3.0686 C   0  0  0  0  0  0  0  0  0  0  0  0
    0.6409    0.3867   -3.1487 H   0  0  0  0  0  0  0  0  0  0  0  0
   -0.9557   -0.3648   -3.3713 H   0  0  0  0  0  0  0  0  0  0  0  0
   -0.8461    1.6921   -3.9886 C   0  0  0  0  0  0  0  0  0  0  0  0
   -1.9230    1.8391   -3.9243 H   0  0  0  0  0  0  0  0  0  0  0  0
   -0.3408    2.6047   -3.6768 H   0  0  0  0  0  0  0  0  0  0  0  0
   -0.4895    1.4099   -5.3838 N   0  0  0  0  0  0  0  0  0  0  0  0
   -0.7873    2.1808   -5.9635 H   0  0  0  0  0  0  0  0  0  0  0  0
    0.5125    1.3043   -5.4548 H   0  0  0  0  0  0  0  0  0  0  0  0
   -1.2712    1.3099    1.1517 C   0  0  0  0  0  0  0  0  0  0  0  0
   -2.2039    1.9448    0.6639 O   0  0  0  0  0  0  0  0  0  0  0  0
   -0.4306    1.8354    2.0503 N   0  0  0  0  0  0  0  0  0  0  0  0
    0.3001    1.2459    2.4139 H   0  0  0  0  0  0  0  0  0  0  0  0
   -0.5192    3.2082    2.5456 C   0  0  0  0  0  0  0  0  0  0  0  0
   -1.5166    3.3903    2.9518 H   0  0  0  0  0  0  0  0  0  0  0  0
    0.2240    3.3791    3.3257 H   0  0  0  0  0  0  0  0  0  0  0  0
   -0.3477    3.9067    1.7239 H   0  0  0  0  0  0  0  0  0  0  0  0
  5  6  2  0  0  0  0
  5  7  1  0  0  0  0
  2  3  1  0  0  0  0
  2  4  1  0  0  0  0
  2  5  1  0  0  0  0
  1  2  1  0  0  0  0
 26 27  2  0  0  0  0
 26 28  1  0  0  0  0
 23 24  1  0  0  0  0
 23 25  1  0  0  0  0
 20 21  1  0  0  0  0
 20 22  1  0  0  0  0
 20 23  1  0  0  0  0
 17 18  1  0  0  0  0
 17 19  1  0  0  0  0
 17 20  1  0  0  0  0
 14 15  1  0  0  0  0
 14 16  1  0  0  0  0
 14 17  1  0  0  0  0
 11 12  1  0  0  0  0
 11 13  1  0  0  0  0
 11 14  1  0  0  0  0
  9 10  1  0  0  0  0
  9 11  1  0  0  0  0
  9 26  1  0  0  0  0
  7  8  1  0  0  0  0
  7  9  1  0  0  0  0
 30 31  1  0  0  0  0
 30 32  1  0  0  0  0
 30 33  1  0  0  0  0
 28 29  1  0  0  0  0
 28 30  1  0  0  0  0
M  END
$$$$
default_name
  -OEChem-02102213163D

 33 32  0     1  0  0  0  0  0999 V2000
   -3.8420   -3.6918    1.5562 H   0  0  0  0  0  0  0  0  0  0  0  0
   -3.8430   -2.7008    1.1032 C   0  0  0  0  0  0  0  0  0  0  0  0
   -4.5510   -2.0608    1.6242 H   0  0  0  0  0  0  0  0  0  0  0  0
   -4.1140   -2.7798    0.0522 H   0  0  0  0  0  0  0  0  0  0  0  0
   -2.4570   -2.1098    1.2172 C   0  0  0  0  0  0  0  0  0  0  0  0
   -1.5600   -2.7438    1.7572 O   0  0  0  0  0  0  0  0  0  0  0  0
   -2.2870   -0.8898    0.7102 N   0  0  0  0  0  0  0  0  0  0  0  0
   -3.0820   -0.4218    0.2992 H   0  0  0  0  0  0  0  0  0  0  0  0
   -1.0240   -0.1468    0.7262 C   0  0  1  0  0  0  0  0  0  0  0  0
   -0.3583   -0.6100    1.4558 H   0  0  0  0  0  0  0  0  0  0  0  0
   -0.3739   -0.2459   -0.6675 C   0  0  0  0  0  0  0  0  0  0  0  0
    0.7106   -0.2006   -0.5486 H   0  0  0  0  0  0  0  0  0  0  0  0
   -0.6275   -1.2079   -1.1150 H   0  0  0  0  0  0  0  0  0  0  0  0
   -0.7996    0.8833   -1.6188 C   0  0  0  0  0  0  0  0  0  0  0  0
   -1.8088    1.2117   -1.3687 H   0  0  0  0  0  0  0  0  0  0  0  0
   -0.1124    1.7241   -1.5081 H   0  0  0  0  0  0  0  0  0  0  0  0
   -0.7827    0.4071   -3.0758 C   0  0  0  0  0  0  0  0  0  0  0  0
    0.2196    0.0677   -3.3388 H   0  0  0  0  0  0  0  0  0  0  0  0
   -1.4856   -0.4177   -3.1968 H   0  0  0  0  0  0  0  0  0  0  0  0
   -1.1852    1.5541   -4.0007 C   0  0  0  0  0  0  0  0  0  0  0  0
   -2.1931    1.8823   -3.7520 H   0  0  0  0  0  0  0  0  0  0  0  0
   -0.4947    2.3854   -3.8682 H   0  0  0  0  0  0  0  0  0  0  0  0
   -1.1566    1.1383   -5.4077 N   0  0  0  0  0  0  0  0  0  0  0  0
   -1.4405    1.9142   -5.9876 H   0  0  0  0  0  0  0  0  0  0  0  0
   -0.2162    0.8628   -5.6528 H   0  0  0  0  0  0  0  0  0  0  0  0
   -1.2712    1.3099    1.1517 C   0  0  0  0  0  0  0  0  0  0  0  0
   -2.2039    1.9448    0.6639 O   0  0  0  0  0  0  0  0  0  0  0  0
   -0.4306    1.8354    2.0503 N   0  0  0  0  0  0  0  0  0  0  0  0
    0.3001    1.2459    2.4139 H   0  0  0  0  0  0  0  0  0  0  0  0
   -0.5192    3.2082    2.5456 C   0  0  0  0  0  0  0  0  0  0  0  0
   -1.5166    3.3903    2.9518 H   0  0  0  0  0  0  0  0  0  0  0  0
    0.2240    3.3791    3.3257 H   0  0  0  0  0  0  0  0  0  0  0  0
   -0.3477    3.9067    1.7239 H   0  0  0  0  0  0  0  0  0  0  0  0
  5  6  2  0  0  0  0
  5  7  1  0  0  0  0
  2  3  1  0  0  0  0
  2  4  1  0  0  0  0
  2  5  1  0  0  0  0
  1  2  1  0  0  0  0
 26 27  2  0  0  0  0
 26 28  1  0  0  0  0
 23 24  1  0  0  0  0
 23 25  1  0  0  0  0
 20 21  1  0  0  0  0
 20 22  1  0  0  0  0
 20 23  1  0  0  0  0
 17 18  1  0  0  0  0
 17 19  1  0  0  0  0
 17 20  1  0  0  0  0
 14 15  1  0  0  0  0
 14 16  1  0  0  0  0
 14 17  1  0  0  0  0
 11 12  1  0  0  0  0
 11 13  1  0  0  0  0
 11 14  1  0  0  0  0
  9 10  1  0  0  0  0
  9 11  1  0  0  0  0
  9 26  1  0  0  0  0
  7  8  1  0  0  0  0
  7  9  1  0  0  0  0
 30 31  1  0  0  0  0
 30 32  1  0  0  0  0
 30 33  1  0  0  0  0
 28 29  1  0  0  0  0
 28 30  1  0  0  0  0
M  END
$$$$
default_name
  -OEChem-02102213163D

 33 32  0     1  0  0  0  0  0999 V2000
   -3.8420   -3.6918    1.5562 H   0  0  0  0  0  0  0  0  0  0  0  0
   -3.8430   -2.7008    1.1032 C   0  0  0  0  0  0  0  0  0  0  0  0
   -4.5510   -2.0608    1.6242 H   0  0  0  0  0  0  0  0  0  0  0  0
   -4.1140   -2.7798    0.0522 H   0  0  0  0  0  0  0  0  0  0  0  0
   -2.4570   -2.1098    1.2172 C   0  0  0  0  0  0  0  0  0  0  0  0
   -1.5600   -2.7438    1.7572 O   0  0  0  0  0  0  0  0  0  0  0  0
   -2.2870   -0.8898    0.7102 N   0  0  0  0  0  0  0  0  0  0  0  0
   -3.0820   -0.4218    0.2992 H   0  0  0  0  0  0  0  0  0  0  0  0
   -1.0240   -0.1468    0.7262 C   0  0  1  0  0  0  0  0  0  0  0  0
   -0.3583   -0.6100    1.4558 H   0  0  0  0  0  0  0  0  0  0  0  0
   -0.3739   -0.2459   -0.6675 C   0  0  0  0  0  0  0  0  0  0  0  0
    0.7106   -0.2006   -0.5486 H   0  0  0  0  0  0  0  0  0  0  0  0
   -0.6275   -1.2079   -1.1150 H   0  0  0  0  0  0  0  0  0  0  0  0
   -0.7996    0.8833   -1.6188 C   0  0  0  0  0  0  0  0  0  0  0  0
   -1.6777    1.3893   -1.2166 H   0  0  0  0  0  0  0  0  0  0  0  0
    0.0166    1.6023   -1.7104 H   0  0  0  0  0  0  0  0  0  0  0  0
   -1.1419    0.3299   -3.0067 C   0  0  0  0  0  0  0  0  0  0  0  0
   -0.2747   -0.1865   -3.4194 H   0  0  0  0  0  0  0  0  0  0  0  0
   -1.9728   -0.3713   -2.9237 H   0  0  0  0  0  0  0  0  0  0  0  0
   -1.5372    1.4741   -3.9381 C   0  0  0  0  0  0  0  0  0  0  0  0
   -2.4143    1.9797   -3.5374 H   0  0  0  0  0  0  0  0  0  0  0  0
   -0.7150    2.1845   -4.0081 H   0  0  0  0  0  0  0  0  0  0  0  0
   -1.8490    0.9810   -5.2845 N   0  0  0  0  0  0  0  0  0  0  0  0
   -2.1188    1.7597   -5.8676 H   0  0  0  0  0  0  0  0  0  0  0  0
   -1.0285    0.5389   -5.6738 H   0  0  0  0  0  0  0  0  0  0  0  0
   -1.2712    1.3099    1.1517 C   0  0  0  0  0  0  0  0  0  0  0  0
   -2.2039    1.9448    0.6639 O   0  0  0  0  0  0  0  0  0  0  0  0
   -0.4306    1.8354    2.0503 N   0  0  0  0  0  0  0  0  0  0  0  0
    0.3001    1.2459    2.4139 H   0  0  0  0  0  0  0  0  0  0  0  0
   -0.5192    3.2082    2.5456 C   0  0  0  0  0  0  0  0  0  0  0  0
   -1.5166    3.3903    2.9518 H   0  0  0  0  0  0  0  0  0  0  0  0
    0.2240    3.3791    3.3257 H   0  0  0  0  0  0  0  0  0  0  0  0
   -0.3477    3.9067    1.7239 H   0  0  0  0  0  0  0  0  0  0  0  0
  5  6  2  0  0  0  0
  5  7  1  0  0  0  0
  2  3  1  0  0  0  0
  2  4  1  0  0  0  0
  2  5  1  0  0  0  0
  1  2  1  0  0  0  0
 26 27  2  0  0  0  0
 26 28  1  0  0  0  0
 23 24  1  0  0  0  0
 23 25  1  0  0  0  0
 20 21  1  0  0  0  0
 20 22  1  0  0  0  0
 20 23  1  0  0  0  0
 17 18  1  0  0  0  0
 17 19  1  0  0  0  0
 17 20  1  0  0  0  0
 14 15  1  0  0  0  0
 14 16  1  0  0  0  0
 14 17  1  0  0  0  0
 11 12  1  0  0  0  0
 11 13  1  0  0  0  0
 11 14  1  0  0  0  0
  9 10  1  0  0  0  0
  9 11  1  0  0  0  0
  9 26  1  0  0  0  0
  7  8  1  0  0  0  0
  7  9  1  0  0  0  0
 30 31  1  0  0  0  0
 30 32  1  0  0  0  0
 30 33  1  0  0  0  0
 28 29  1  0  0  0  0
 28 30  1  0  0  0  0
M  END
$$$$
default_name
  -OEChem-02102213163D

 33 32  0     1  0  0  0  0  0999 V2000
   -3.8420   -3.6918    1.5562 H   0  0  0  0  0  0  0  0  0  0  0  0
   -3.8430   -2.7008    1.1032 C   0  0  0  0  0  0  0  0  0  0  0  0
   -4.5510   -2.0608    1.6242 H   0  0  0  0  0  0  0  0  0  0  0  0
   -4.1140   -2.7798    0.0522 H   0  0  0  0  0  0  0  0  0  0  0  0
   -2.4570   -2.1098    1.2172 C   0  0  0  0  0  0  0  0  0  0  0  0
   -1.5600   -2.7438    1.7572 O   0  0  0  0  0  0  0  0  0  0  0  0
   -2.2870   -0.8898    0.7102 N   0  0  0  0  0  0  0  0  0  0  0  0
   -3.0820   -0.4218    0.2992 H   0  0  0  0  0  0  0  0  0  0  0  0
   -1.0240   -0.1468    0.7262 C   0  0  1  0  0  0  0  0  0  0  0  0
   -0.3583   -0.6100    1.4558 H   0  0  0  0  0  0  0  0  0  0  0  0
   -0.3739   -0.2459   -0.6675 C   0  0  0  0  0  0  0  0  0  0  0  0
    0.7106   -0.2006   -0.5486 H   0  0  0  0  0  0  0  0  0  0  0  0
   -0.6275   -1.2079   -1.1150 H   0  0  0  0  0  0  0  0  0  0  0  0
   -0.7996    0.8833   -1.6188 C   0  0  0  0  0  0  0  0  0  0  0  0
   -1.4937    1.5507   -1.1073 H   0  0  0  0  0  0  0  0  0  0  0  0
    0.0831    1.4494   -1.9216 H   0  0  0  0  0  0  0  0  0  0  0  0
   -1.4880    0.3177   -2.8662 C   0  0  0  0  0  0  0  0  0  0  0  0
   -0.8082   -0.3587   -3.3851 H   0  0  0  0  0  0  0  0  0  0  0  0
   -2.3841   -0.2288   -2.5706 H   0  0  0  0  0  0  0  0  0  0  0  0
   -1.8781    1.4579   -3.8049 C   0  0  0  0  0  0  0  0  0  0  0  0
   -2.5716    2.1247   -3.2951 H   0  0  0  0  0  0  0  0  0  0  0  0
   -0.9866    2.0157   -4.0870 H   0  0  0  0  0  0  0  0  0  0  0  0
   -2.5197    0.9489   -5.0225 N   0  0  0  0  0  0  0  0  0  0  0  0
   -2.7758    1.7277   -5.6115 H   0  0  0  0  0  0  0  0  0  0  0  0
   -1.8690    0.3547   -5.5163 H   0  0  0  0  0  0  0  0  0  0  0  0
   -1.2712    1.3099    1.1517 C   0  0  0  0  0  0  0  0  0  0  0  0
   -2.2039    1.9448    0.6639 O   0  0  0  0  0  0  0  0  0  0  0  0
   -0.4306    1.8354    2.0503 N   0  0  0  0  0  0  0  0  0  0  0  0
    0.3001    1.2459    2.4139 H   0  0  0  0  0  0  0  0  0  0  0  0
   -0.5192    3.2082    2.5456 C   0  0  0  0  0  0  0  0  0  0  0  0
   -1.5166    3.3903    2.9518 H   0  0  0  0  0  0  0  0  0  0  0  0
    0.2240    3.3791    3.3257 H   0  0  0  0  0  0  0  0  0  0  0  0
   -0.3477    3.9067    1.7239 H   0  0  0  0  0  0  0  0  0  0  0  0
  5  6  2  0  0  0  0
  5  7  1  0  0  0  0
  2  3  1  0  0  0  0
  2  4  1  0  0  0  0
  2  5  1  0  0  0  0
  1  2  1  0  0  0  0
 26 27  2  0  0  0  0
 26 28  1  0  0  0  0
 23 24  1  0  0  0  0
 23 25  1  0  0  0  0
 20 21  1  0  0  0  0
 20 22  1  0  0  0  0
 20 23  1  0  0  0  0
 17 18  1  0  0  0  0
 17 19  1  0  0  0  0
 17 20  1  0  0  0  0
 14 15  1  0  0  0  0
 14 16  1  0  0  0  0
 14 17  1  0  0  0  0
 11 12  1  0  0  0  0
 11 13  1  0  0  0  0
 11 14  1  0  0  0  0
  9 10  1  0  0  0  0
  9 11  1  0  0  0  0
  9 26  1  0  0  0  0
  7  8  1  0  0  0  0
  7  9  1  0  0  0  0
 30 31  1  0  0  0  0
 30 32  1  0  0  0  0
 30 33  1  0  0  0  0
 28 29  1  0  0  0  0
 28 30  1  0  0  0  0
M  END
$$$$
default_name
  -OEChem-02102213163D

 33 32  0     1  0  0  0  0  0999 V2000
   -3.8420   -3.6918    1.5562 H   0  0  0  0  0  0  0  0  0  0  0  0
   -3.8430   -2.7008    1.1032 C   0  0  0  0  0  0  0  0  0  0  0  0
   -4.5510   -2.0608    1.6242 H   0  0  0  0  0  0  0  0  0  0  0  0
   -4.1140   -2.7798    0.0522 H   0  0  0  0  0  0  0  0  0  0  0  0
   -2.4570   -2.1098    1.2172 C   0  0  0  0  0  0  0  0  0  0  0  0
   -1.5600   -2.7438    1.7572 O   0  0  0  0  0  0  0  0  0  0  0  0
   -2.2870   -0.8898    0.7102 N   0  0  0  0  0  0  0  0  0  0  0  0
   -3.0820   -0.4218    0.2992 H   0  0  0  0  0  0  0  0  0  0  0  0
   -1.0240   -0.1468    0.7262 C   0  0  1  0  0  0  0  0  0  0  0  0
   -0.3583   -0.6100    1.4558 H   0  0  0  0  0  0  0  0  0  0  0  0
   -0.3739   -0.2459   -0.6675 C   0  0  0  0  0  0  0  0  0  0  0  0
    0.7106   -0.2006   -0.5486 H   0  0  0  0  0  0  0  0  0  0  0  0
   -0.6275   -1.2079   -1.1150 H   0  0  0  0  0  0  0  0  0  0  0  0
   -0.7996    0.8833   -1.6188 C   0  0  0  0  0  0  0  0  0  0  0  0
   -1.2692    1.6850   -1.0483 H   0  0  0  0  0  0  0  0  0  0  0  0
    0.0828    1.2760   -2.1274 H   0  0  0  0  0  0  0  0  0  0  0  0
   -1.7976    0.3716   -2.6638 C   0  0  0  0  0  0  0  0  0  0  0  0
   -1.3446   -0.4371   -3.2381 H   0  0  0  0  0  0  0  0  0  0  0  0
   -2.6913    0.0000   -2.1616 H   0  0  0  0  0  0  0  0  0  0  0  0
   -2.1846    1.5063   -3.6102 C   0  0  0  0  0  0  0  0  0  0  0  0
   -2.6541    2.3072   -3.0414 H   0  0  0  0  0  0  0  0  0  0  0  0
   -1.2910    1.8905   -4.0994 H   0  0  0  0  0  0  0  0  0  0  0  0
   -3.1227    1.0442   -4.6396 N   0  0  0  0  0  0  0  0  0  0  0  0
   -3.3669    1.8205   -5.2369 H   0  0  0  0  0  0  0  0  0  0  0  0
   -2.6804    0.3227   -5.1912 H   0  0  0  0  0  0  0  0  0  0  0  0
   -1.2712    1.3099    1.1517 C   0  0  0  0  0  0  0  0  0  0  0  0
   -2.2039    1.9448    0.6639 O   0  0  0  0  0  0  0  0  0  0  0  0
   -0.4306    1.8354    2.0503 N   0  0  0  0  0  0  0  0  0  0  0  0
    0.3001    1.2459    2.4139 H   0  0  0  0  0  0  0  0  0  0  0  0
   -0.5192    3.2082    2.5456 C   0  0  0  0  0  0  0  0  0  0  0  0
   -1.5166    3.3903    2.9518 H   0  0  0  0  0  0  0  0  0  0  0  0
    0.2240    3.3791    3.3257 H   0  0  0  0  0  0  0  0  0  0  0  0
   -0.3477    3.9067    1.7239 H   0  0  0  0  0  0  0  0  0  0  0  0
  5  6  2  0  0  0  0
  5  7  1  0  0  0  0
  2  3  1  0  0  0  0
  2  4  1  0  0  0  0
  2  5  1  0  0  0  0
  1  2  1  0  0  0  0
 26 27  2  0  0  0  0
 26 28  1  0  0  0  0
 23 24  1  0  0  0  0
 23 25  1  0  0  0  0
 20 21  1  0  0  0  0
 20 22  1  0  0  0  0
 20 23  1  0  0  0  0
 17 18  1  0  0  0  0
 17 19  1  0  0  0  0
 17 20  1  0  0  0  0
 14 15  1  0  0  0  0
 14 16  1  0  0  0  0
 14 17  1  0  0  0  0
 11 12  1  0  0  0  0
 11 13  1  0  0  0  0
 11 14  1  0  0  0  0
  9 10  1  0  0  0  0
  9 11  1  0  0  0  0
  9 26  1  0  0  0  0
  7  8  1  0  0  0  0
  7  9  1  0  0  0  0
 30 31  1  0  0  0  0
 30 32  1  0  0  0  0
 30 33  1  0  0  0  0
 28 29  1  0  0  0  0
 28 30  1  0  0  0  0
M  END
$$$$
default_name
  -OEChem-02102213163D

 33 32  0     1  0  0  0  0  0999 V2000
   -3.8420   -3.6918    1.5562 H   0  0  0  0  0  0  0  0  0  0  0  0
   -3.8430   -2.7008    1.1032 C   0  0  0  0  0  0  0  0  0  0  0  0
   -4.5510   -2.0608    1.6242 H   0  0  0  0  0  0  0  0  0  0  0  0
   -4.1140   -2.7798    0.0522 H   0  0  0  0  0  0  0  0  0  0  0  0
   -2.4570   -2.1098    1.2172 C   0  0  0  0  0  0  0  0  0  0  0  0
   -1.5600   -2.7438    1.7572 O   0  0  0  0  0  0  0  0  0  0  0  0
   -2.2870   -0.8898    0.7102 N   0  0  0  0  0  0  0  0  0  0  0  0
   -3.0820   -0.4218    0.2992 H   0  0  0  0  0  0  0  0  0  0  0  0
   -1.0240   -0.1468    0.7262 C   0  0  1  0  0  0  0  0  0  0  0  0
   -0.3583   -0.6100    1.4558 H   0  0  0  0  0  0  0  0  0  0  0  0
   -0.3739   -0.2459   -0.6675 C   0  0  0  0  0  0  0  0  0  0  0  0
    0.7106   -0.2006   -0.5486 H   0  0  0  0  0  0  0  0  0  0  0  0
   -0.6275   -1.2079   -1.1150 H   0  0  0  0  0  0  0  0  0  0  0  0
   -0.7996    0.8833   -1.6188 C   0  0  0  0  0  0  0  0  0  0  0  0
   -1.0197    1.7830   -1.0436 H   0  0  0  0  0  0  0  0  0  0  0  0
    0.0155    1.0937   -2.3136 H   0  0  0  0  0  0  0  0  0  0  0  0
   -2.0495    0.4877   -2.4132 C   0  0  0  0  0  0  0  0  0  0  0  0
   -1.8472   -0.4163   -2.9884 H   0  0  0  0  0  0  0  0  0  0  0  0
   -2.8736    0.2996   -1.7244 H   0  0  0  0  0  0  0  0  0  0  0  0
   -2.4359    1.6161   -3.3674 C   0  0  0  0  0  0  0  0  0  0  0  0
   -2.6564    2.5150   -2.7938 H   0  0  0  0  0  0  0  0  0  0  0  0
   -1.6074    1.8174   -4.0445 H   0  0  0  0  0  0  0  0  0  0  0  0
   -3.6172    1.2602   -4.1619 N   0  0  0  0  0  0  0  0  0  0  0  0
   -3.8518    2.0316   -4.7693 H   0  0  0  0  0  0  0  0  0  0  0  0
   -3.4075    0.4452   -4.7205 H   0  0  0  0  0  0  0  0  0  0  0  0
   -1.2712    1.3099    1.1517 C   0  0  0  0  0  0  0  0  0  0  0  0
   -2.2039    1.9448    0.6639 O   0  0  0  0  0  0  0  0  0  0  0  0
   -0.4306    1.8354    2.0503 N   0  0  0  0  0  0  0  0  0  0  0  0
    0.3001    1.2459    2.4139 H   0  0  0  0  0  0  0  0  0  0  0  0
   -0.5192    3.2082    2.5456 C   0  0  0  0  0  0  0  0  0  0  0  0
   -1.5166    3.3903    2.9518 H   0  0  0  0  0  0  0  0  0  0  0  0
    0.2240    3.3791    3.3257 H   0  0  0  0  0  0  0  0  0  0  0  0
   -0.3477    3.9067    1.7239 H   0  0  0  0  0  0  0  0  0  0  0  0
  5  6  2  0  0  0  0
  5  7  1  0  0  0  0
  2  3  1  0  0  0  0
  2  4  1  0  0  0  0
  2  5  1  0  0  0  0
  1  2  1  0  0  0  0
 26 27  2  0  0  0  0
 26 28  1  0  0  0  0
 23 24  1  0  0  0  0
 23 25  1  0  0  0  0
 20 21  1  0  0  0  0
 20 22  1  0  0  0  0
 20 23  1  0  0  0  0
 17 18  1  0  0  0  0
 17 19  1  0  0  0  0
 17 20  1  0  0  0  0
 14 15  1  0  0  0  0
 14 16  1  0  0  0  0
 14 17  1  0  0  0  0
 11 12  1  0  0  0  0
 11 13  1  0  0  0  0
 11 14  1  0  0  0  0
  9 10  1  0  0  0  0
  9 11  1  0  0  0  0
  9 26  1  0  0  0  0
  7  8  1  0  0  0  0
  7  9  1  0  0  0  0
 30 31  1  0  0  0  0
 30 32  1  0  0  0  0
 30 33  1  0  0  0  0
 28 29  1  0  0  0  0
 28 30  1  0  0  0  0
M  END
$$$$
default_name
  -OEChem-02102213163D

 33 32  0     1  0  0  0  0  0999 V2000
   -3.8420   -3.6918    1.5562 H   0  0  0  0  0  0  0  0  0  0  0  0
   -3.8430   -2.7008    1.1032 C   0  0  0  0  0  0  0  0  0  0  0  0
   -4.5510   -2.0608    1.6242 H   0  0  0  0  0  0  0  0  0  0  0  0
   -4.1140   -2.7798    0.0522 H   0  0  0  0  0  0  0  0  0  0  0  0
   -2.4570   -2.1098    1.2172 C   0  0  0  0  0  0  0  0  0  0  0  0
   -1.5600   -2.7438    1.7572 O   0  0  0  0  0  0  0  0  0  0  0  0
   -2.2870   -0.8898    0.7102 N   0  0  0  0  0  0  0  0  0  0  0  0
   -3.0820   -0.4218    0.2992 H   0  0  0  0  0  0  0  0  0  0  0  0
   -1.0240   -0.1468    0.7262 C   0  0  1  0  0  0  0  0  0  0  0  0
   -0.3583   -0.6100    1.4558 H   0  0  0  0  0  0  0  0  0  0  0  0
   -0.3739   -0.2459   -0.6675 C   0  0  0  0  0  0  0  0  0  0  0  0
    0.7106   -0.2006   -0.5486 H   0  0  0  0  0  0  0  0  0  0  0  0
   -0.6275   -1.2079   -1.1150 H   0  0  0  0  0  0  0  0  0  0  0  0
   -0.7996    0.8833   -1.6188 C   0  0  0  0  0  0  0  0  0  0  0  0
   -0.7621    1.8381   -1.0936 H   0  0  0  0  0  0  0  0  0  0  0  0
   -0.1140    0.9151   -2.4676 H   0  0  0  0  0  0  0  0  0  0  0  0
   -2.2265    0.6582   -2.1316 C   0  0  0  0  0  0  0  0  0  0  0  0
   -2.2820   -0.2977   -2.6532 H   0  0  0  0  0  0  0  0  0  0  0  0
   -2.9185    0.6495   -1.2890 H   0  0  0  0  0  0  0  0  0  0  0  0
   -2.6149    1.7799   -3.0929 C   0  0  0  0  0  0  0  0  0  0  0  0
   -2.5782    2.7338   -2.5691 H   0  0  0  0  0  0  0  0  0  0  0  0
   -1.9143    1.8015   -3.9260 H   0  0  0  0  0  0  0  0  0  0  0  0
   -3.9693    1.5824   -3.6219 N   0  0  0  0  0  0  0  0  0  0  0  0
   -4.1974    2.3468   -4.2406 H   0  0  0  0  0  0  0  0  0  0  0  0
   -4.0007    0.7137   -4.1363 H   0  0  0  0  0  0  0  0  0  0  0  0
   -1.2712    1.3099    1.1517 C   0  0  0  0  0  0  0  0  0  0  0  0
   -2.2039    1.9448    0.6639 O   0  0  0  0  0  0  0  0  0  0  0  0
   -0.4306    1.8354    2.0503 N   0  0  0  0  0  0  0  0  0  0  0  0
    0.3001    1.2459    2.4139 H   0  0  0  0  0  0  0  0  0  0  0  0
   -0.5192    3.2082    2.5456 C   0  0  0  0  0  0  0  0  0  0  0  0
   -1.5166    3.3903    2.9518 H   0  0  0  0  0  0  0  0  0  0  0  0
    0.2240    3.3791    3.3257 H   0  0  0  0  0  0  0  0  0  0  0  0
   -0.3477    3.9067    1.7239 H   0  0  0  0  0  0  0  0  0  0  0  0
  5  6  2  0  0  0  0
  5  7  1  0  0  0  0
  2  3  1  0  0  0  0
  2  4  1  0  0  0  0
  2  5  1  0  0  0  0
  1  2  1  0  0  0  0
 26 27  2  0  0  0  0
 26 28  1  0  0  0  0
 23 24  1  0  0  0  0
 23 25  1  0  0  0  0
 20 21  1  0  0  0  0
 20 22  1  0  0  0  0
 20 23  1  0  0  0  0
 17 18  1  0  0  0  0
 17 19  1  0  0  0  0
 17 20  1  0  0  0  0
 14 15  1  0  0  0  0
 14 16  1  0  0  0  0
 14 17  1  0  0  0  0
 11 12  1  0  0  0  0
 11 13  1  0  0  0  0
 11 14  1  0  0  0  0
  9 10  1  0  0  0  0
  9 11  1  0  0  0  0
  9 26  1  0  0  0  0
  7  8  1  0  0  0  0
  7  9  1  0  0  0  0
 30 31  1  0  0  0  0
 30 32  1  0  0  0  0
 30 33  1  0  0  0  0
 28 29  1  0  0  0  0
 28 30  1  0  0  0  0
M  END
$$$$
default_name
  -OEChem-02102213163D

 33 32  0     1  0  0  0  0  0999 V2000
   -3.8420   -3.6918    1.5562 H   0  0  0  0  0  0  0  0  0  0  0  0
   -3.8430   -2.7008    1.1032 C   0  0  0  0  0  0  0  0  0  0  0  0
   -4.5510   -2.0608    1.6242 H   0  0  0  0  0  0  0  0  0  0  0  0
   -4.1140   -2.7798    0.0522 H   0  0  0  0  0  0  0  0  0  0  0  0
   -2.4570   -2.1098    1.2172 C   0  0  0  0  0  0  0  0  0  0  0  0
   -1.5600   -2.7438    1.7572 O   0  0  0  0  0  0  0  0  0  0  0  0
   -2.2870   -0.8898    0.7102 N   0  0  0  0  0  0  0  0  0  0  0  0
   -3.0820   -0.4218    0.2992 H   0  0  0  0  0  0  0  0  0  0  0  0
   -1.0240   -0.1468    0.7262 C   0  0  1  0  0  0  0  0  0  0  0  0
   -0.3583   -0.6100    1.4558 H   0  0  0  0  0  0  0  0  0  0  0  0
   -0.3739   -0.2459   -0.6675 C   0  0  0  0  0  0  0  0  0  0  0  0
    0.7106   -0.2006   -0.5486 H   0  0  0  0  0  0  0  0  0  0  0  0
   -0.6275   -1.2079   -1.1150 H   0  0  0  0  0  0  0  0  0  0  0  0
   -0.7996    0.8833   -1.6188 C   0  0  0  0  0  0  0  0  0  0  0  0
   -0.5140    1.8463   -1.1948 H   0  0  0  0  0  0  0  0  0  0  0  0
   -0.2971    0.7523   -2.5789 H   0  0  0  0  0  0  0  0  0  0  0  0
   -2.3167    0.8715   -1.8381 C   0  0  0  0  0  0  0  0  0  0  0  0
   -2.6192   -0.0895   -2.2552 H   0  0  0  0  0  0  0  0  0  0  0  0
   -2.8230    1.0259   -0.8849 H   0  0  0  0  0  0  0  0  0  0  0  0
   -2.7093    1.9865   -2.8054 C   0  0  0  0  0  0  0  0  0  0  0  0
   -2.4249    2.9487   -2.3826 H   0  0  0  0  0  0  0  0  0  0  0  0
   -2.1908    1.8438   -3.7521 H   0  0  0  0  0  0  0  0  0  0  0  0
   -4.1551    1.9888   -3.0565 N   0  0  0  0  0  0  0  0  0  0  0  0
   -4.3801    2.7445   -3.6867 H   0  0  0  0  0  0  0  0  0  0  0  0
   -4.4195    1.1100   -3.4785 H   0  0  0  0  0  0  0  0  0  0  0  0
   -1.2712    1.3099    1.1517 C   0  0  0  0  0  0  0  0  0  0  0  0
   -2.2039    1.9448    0.6639 O   0  0  0  0  0  0  0  0  0  0  0  0
   -0.4306    1.8354    2.0503 N   0  0  0  0  0  0  0  0  0  0  0  0
    0.3001    1.2459    2.4139 H   0  0  0  0  0  0  0  0  0  0  0  0
   -0.5192    3.2082    2.5456 C   0  0  0  0  0  0  0  0  0  0  0  0
   -1.5166    3.3903    2.9518 H   0  0  0  0  0  0  0  0  0  0  0  0
    0.2240    3.3791    3.3257 H   0  0  0  0  0  0  0  0  0  0  0  0
   -0.3477    3.9067    1.7239 H   0  0  0  0  0  0  0  0  0  0  0  0
  5  6  2  0  0  0  0
  5  7  1  0  0  0  0
  2  3  1  0  0  0  0
  2  4  1  0  0  0  0
  2  5  1  0  0  0  0
  1  2  1  0  0  0  0
 26 27  2  0  0  0  0
 26 28  1  0  0  0  0
 23 24  1  0  0  0  0
 23 25  1  0  0  0  0
 20 21  1  0  0  0  0
 20 22  1  0  0  0  0
 20 23  1  0  0  0  0
 17 18  1  0  0  0  0
 17 19  1  0  0  0  0
 17 20  1  0  0  0  0
 14 15  1  0  0  0  0
 14 16  1  0  0  0  0
 14 17  1  0  0  0  0
 11 12  1  0  0  0  0
 11 13  1  0  0  0  0
 11 14  1  0  0  0  0
  9 10  1  0  0  0  0
  9 11  1  0  0  0  0
  9 26  1  0  0  0  0
  7  8  1  0  0  0  0
  7  9  1  0  0  0  0
 30 31  1  0  0  0  0
 30 32  1  0  0  0  0
 30 33  1  0  0  0  0
 28 29  1  0  0  0  0
 28 30  1  0  0  0  0
M  END
$$$$
default_name
  -OEChem-02102213163D

 33 32  0     1  0  0  0  0  0999 V2000
   -3.8420   -3.6918    1.5562 H   0  0  0  0  0  0  0  0  0  0  0  0
   -3.8430   -2.7008    1.1032 C   0  0  0  0  0  0  0  0  0  0  0  0
   -4.5510   -2.0608    1.6242 H   0  0  0  0  0  0  0  0  0  0  0  0
   -4.1140   -2.7798    0.0522 H   0  0  0  0  0  0  0  0  0  0  0  0
   -2.4570   -2.1098    1.2172 C   0  0  0  0  0  0  0  0  0  0  0  0
   -1.5600   -2.7438    1.7572 O   0  0  0  0  0  0  0  0  0  0  0  0
   -2.2870   -0.8898    0.7102 N   0  0  0  0  0  0  0  0  0  0  0  0
   -3.0820   -0.4218    0.2992 H   0  0  0  0  0  0  0  0  0  0  0  0
   -1.0240   -0.1468    0.7262 C   0  0  1  0  0  0  0  0  0  0  0  0
   -0.3583   -0.6100    1.4558 H   0  0  0  0  0  0  0  0  0  0  0  0
   -0.3739   -0.2459   -0.6675 C   0  0  0  0  0  0  0  0  0  0  0  0
    0.7106   -0.2006   -0.5486 H   0  0  0  0  0  0  0  0  0  0  0  0
   -0.6275   -1.2079   -1.1150 H   0  0  0  0  0  0  0  0  0  0  0  0
   -0.7996    0.8833   -1.6188 C   0  0  0  0  0  0  0  0  0  0  0  0
   -0.2922    1.8073   -1.3403 H   0  0  0  0  0  0  0  0  0  0  0  0
   -0.5212    0.6164   -2.6400 H   0  0  0  0  0  0  0  0  0  0  0  0
   -2.3138    1.1129   -1.5528 C   0  0  0  0  0  0  0  0  0  0  0  0
   -2.8358    0.1941   -1.8216 H   0  0  0  0  0  0  0  0  0  0  0  0
   -2.5936    1.4032   -0.5397 H   0  0  0  0  0  0  0  0  0  0  0  0
   -2.7127    2.2218   -2.5247 C   0  0  0  0  0  0  0  0  0  0  0  0
   -2.2068    3.1451   -2.2470 H   0  0  0  0  0  0  0  0  0  0  0  0
   -2.4180    1.9414   -3.5346 H   0  0  0  0  0  0  0  0  0  0  0  0
   -4.1619    2.4516   -2.5041 N   0  0  0  0  0  0  0  0  0  0  0  0
   -4.3875    3.1977   -3.1455 H   0  0  0  0  0  0  0  0  0  0  0  0
   -4.6354    1.6070   -2.7919 H   0  0  0  0  0  0  0  0  0  0  0  0
   -1.2712    1.3099    1.1517 C   0  0  0  0  0  0  0  0  0  0  0  0
   -2.2039    1.9448    0.6639 O   0  0  0  0  0  0  0  0  0  0  0  0
   -0.4306    1.8354    2.0503 N   0  0  0  0  0  0  0  0  0  0  0  0
    0.3001    1.2459    2.4139 H   0  0  0  0  0  0  0  0  0  0  0  0
   -0.5192    3.2082    2.5456 C   0  0  0  0  0  0  0  0  0  0  0  0
   -1.5166    3.3903    2.9518 H   0  0  0  0  0  0  0  0  0  0  0  0
    0.2240    3.3791    3.3257 H   0  0  0  0  0  0  0  0  0  0  0  0
   -0.3477    3.9067    1.7239 H   0  0  0  0  0  0  0  0  0  0  0  0
  5  6  2  0  0  0  0
  5  7  1  0  0  0  0
  2  3  1  0  0  0  0
  2  4  1  0  0  0  0
  2  5  1  0  0  0  0
  1  2  1  0  0  0  0
 26 27  2  0  0  0  0
 26 28  1  0  0  0  0
 23 24  1  0  0  0  0
 23 25  1  0  0  0  0
 20 21  1  0  0  0  0
 20 22  1  0  0  0  0
 20 23  1  0  0  0  0
 17 18  1  0  0  0  0
 17 19  1  0  0  0  0
 17 20  1  0  0  0  0
 14 15  1  0  0  0  0
 14 16  1  0  0  0  0
 14 17  1  0  0  0  0
 11 12  1  0  0  0  0
 11 13  1  0  0  0  0
 11 14  1  0  0  0  0
  9 10  1  0  0  0  0
  9 11  1  0  0  0  0
  9 26  1  0  0  0  0
  7  8  1  0  0  0  0
  7  9  1  0  0  0  0
 30 31  1  0  0  0  0
 30 32  1  0  0  0  0
 30 33  1  0  0  0  0
 28 29  1  0  0  0  0
 28 30  1  0  0  0  0
M  END
$$$$
default_name
  -OEChem-02102213163D

 33 32  0     1  0  0  0  0  0999 V2000
   -3.8420   -3.6918    1.5562 H   0  0  0  0  0  0  0  0  0  0  0  0
   -3.8430   -2.7008    1.1032 C   0  0  0  0  0  0  0  0  0  0  0  0
   -4.5510   -2.0608    1.6242 H   0  0  0  0  0  0  0  0  0  0  0  0
   -4.1140   -2.7798    0.0522 H   0  0  0  0  0  0  0  0  0  0  0  0
   -2.4570   -2.1098    1.2172 C   0  0  0  0  0  0  0  0  0  0  0  0
   -1.5600   -2.7438    1.7572 O   0  0  0  0  0  0  0  0  0  0  0  0
   -2.2870   -0.8898    0.7102 N   0  0  0  0  0  0  0  0  0  0  0  0
   -3.0820   -0.4218    0.2992 H   0  0  0  0  0  0  0  0  0  0  0  0
   -1.0240   -0.1468    0.7262 C   0  0  1  0  0  0  0  0  0  0  0  0
   -0.3583   -0.6100    1.4558 H   0  0  0  0  0  0  0  0  0  0  0  0
   -0.3739   -0.2459   -0.6675 C   0  0  0  0  0  0  0  0  0  0  0  0
    0.7106   -0.2006   -0.5486 H   0  0  0  0  0  0  0  0  0  0  0  0
   -0.6275   -1.2079   -1.1150 H   0  0  0  0  0  0  0  0  0  0  0  0
   -0.7996    0.8833   -1.6188 C   0  0  0  0  0  0  0  0  0  0  0  0
   -0.1119    1.7237   -1.5203 H   0  0  0  0  0  0  0  0  0  0  0  0
   -0.7711    0.5167   -2.6466 H   0  0  0  0  0  0  0  0  0  0  0  0
   -2.2180    1.3662   -1.2951 C   0  0  0  0  0  0  0  0  0  0  0  0
   -2.9172    0.5339   -1.3818 H   0  0  0  0  0  0  0  0  0  0  0  0
   -2.2460    1.7556   -0.2770 H   0  0  0  0  0  0  0  0  0  0  0  0
   -2.6250    2.4697   -2.2696 C   0  0  0  0  0  0  0  0  0  0  0  0
   -1.9390    3.3096   -2.1716 H   0  0  0  0  0  0  0  0  0  0  0  0
   -2.5804    2.0877   -3.2882 H   0  0  0  0  0  0  0  0  0  0  0  0
   -3.9893    2.9393   -2.0024 N   0  0  0  0  0  0  0  0  0  0  0  0
   -4.2192    3.6754   -2.6538 H   0  0  0  0  0  0  0  0  0  0  0  0
   -4.6338    2.1710   -2.1232 H   0  0  0  0  0  0  0  0  0  0  0  0
   -1.2712    1.3099    1.1517 C   0  0  0  0  0  0  0  0  0  0  0  0
   -2.2039    1.9448    0.6639 O   0  0  0  0  0  0  0  0  0  0  0  0
   -0.4306    1.8354    2.0503 N   0  0  0  0  0  0  0  0  0  0  0  0
    0.3001    1.2459    2.4139 H   0  0  0  0  0  0  0  0  0  0  0  0
   -0.5192    3.2082    2.5456 C   0  0  0  0  0  0  0  0  0  0  0  0
   -1.5166    3.3903    2.9518 H   0  0  0  0  0  0  0  0  0  0  0  0
    0.2240    3.3791    3.3257 H   0  0  0  0  0  0  0  0  0  0  0  0
   -0.3477    3.9067    1.7239 H   0  0  0  0  0  0  0  0  0  0  0  0
  5  6  2  0  0  0  0
  5  7  1  0  0  0  0
  2  3  1  0  0  0  0
  2  4  1  0  0  0  0
  2  5  1  0  0  0  0
  1  2  1  0  0  0  0
 26 27  2  0  0  0  0
 26 28  1  0  0  0  0
 23 24  1  0  0  0  0
 23 25  1  0  0  0  0
 20 21  1  0  0  0  0
 20 22  1  0  0  0  0
 20 23  1  0  0  0  0
 17 18  1  0  0  0  0
 17 19  1  0  0  0  0
 17 20  1  0  0  0  0
 14 15  1  0  0  0  0
 14 16  1  0  0  0  0
 14 17  1  0  0  0  0
 11 12  1  0  0  0  0
 11 13  1  0  0  0  0
 11 14  1  0  0  0  0
  9 10  1  0  0  0  0
  9 11  1  0  0  0  0
  9 26  1  0  0  0  0
  7  8  1  0  0  0  0
  7  9  1  0  0  0  0
 30 31  1  0  0  0  0
 30 32  1  0  0  0  0
 30 33  1  0  0  0  0
 28 29  1  0  0  0  0
 28 30  1  0  0  0  0
M  END
$$$$
default_name
  -OEChem-02102213163D

 33 32  0     1  0  0  0  0  0999 V2000
   -3.8420   -3.6918    1.5562 H   0  0  0  0  0  0  0  0  0  0  0  0
   -3.8430   -2.7008    1.1032 C   0  0  0  0  0  0  0  0  0  0  0  0
   -4.5510   -2.0608    1.6242 H   0  0  0  0  0  0  0  0  0  0  0  0
   -4.1140   -2.7798    0.0522 H   0  0  0  0  0  0  0  0  0  0  0  0
   -2.4570   -2.1098    1.2172 C   0  0  0  0  0  0  0  0  0  0  0  0
   -1.5600   -2.7438    1.7572 O   0  0  0  0  0  0  0  0  0  0  0  0
   -2.2870   -0.8898    0.7102 N   0  0  0  0  0  0  0  0  0  0  0  0
   -3.0820   -0.4218    0.2992 H   0  0  0  0  0  0  0  0  0  0  0  0
   -1.0240   -0.1468    0.7262 C   0  0  1  0  0  0  0  0  0  0  0  0
   -0.3583   -0.6100    1.4558 H   0  0  0  0  0  0  0  0  0  0  0  0
   -0.3739   -0.2459   -0.6675 C   0  0  0  0  0  0  0  0  0  0  0  0
    0.7106   -0.2006   -0.5486 H   0  0  0  0  0  0  0  0  0  0  0  0
   -0.6275   -1.2079   -1.1150 H   0  0  0  0  0  0  0  0  0  0  0  0
   -0.7996    0.8833   -1.6188 C   0  0  0  0  0  0  0  0  0  0  0  0
    0.0146    1.6011   -1.7224 H   0  0  0  0  0  0  0  0  0  0  0  0
   -1.0296    0.4599   -2.5982 H   0  0  0  0  0  0  0  0  0  0  0  0
   -2.0359    1.6139   -1.0825 C   0  0  0  0  0  0  0  0  0  0  0  0
   -2.8577    0.9067   -0.9660 H   0  0  0  0  0  0  0  0  0  0  0  0
   -1.8037    2.0591   -0.1146 H   0  0  0  0  0  0  0  0  0  0  0  0
   -2.4519    2.7134   -2.0578 C   0  0  0  0  0  0  0  0  0  0  0  0
   -1.6396    3.4309   -2.1616 H   0  0  0  0  0  0  0  0  0  0  0  0
   -2.6670    2.2727   -3.0299 H   0  0  0  0  0  0  0  0  0  0  0  0
   -3.6489    3.4187   -1.5856 N   0  0  0  0  0  0  0  0  0  0  0  0
   -3.8865    4.1451   -2.2452 H   0  0  0  0  0  0  0  0  0  0  0  0
   -4.4146    2.7634   -1.5181 H   0  0  0  0  0  0  0  0  0  0  0  0
   -1.2712    1.3099    1.1517 C   0  0  0  0  0  0  0  0  0  0  0  0
   -2.2039    1.9448    0.6639 O   0  0  0  0  0  0  0  0  0  0  0  0
   -0.4306    1.8354    2.0503 N   0  0  0  0  0  0  0  0  0  0  0  0
    0.3001    1.2459    2.4139 H   0  0  0  0  0  0  0  0  0  0  0  0
   -0.5192    3.2082    2.5456 C   0  0  0  0  0  0  0  0  0  0  0  0
   -1.5166    3.3903    2.9518 H   0  0  0  0  0  0  0  0  0  0  0  0
    0.2240    3.3791    3.3257 H   0  0  0  0  0  0  0  0  0  0  0  0
   -0.3477    3.9067    1.7239 H   0  0  0  0  0  0  0  0  0  0  0  0
  5  6  2  0  0  0  0
  5  7  1  0  0  0  0
  2  3  1  0  0  0  0
  2  4  1  0  0  0  0
  2  5  1  0  0  0  0
  1  2  1  0  0  0  0
 26 27  2  0  0  0  0
 26 28  1  0  0  0  0
 23 24  1  0  0  0  0
 23 25  1  0  0  0  0
 20 21  1  0  0  0  0
 20 22  1  0  0  0  0
 20 23  1  0  0  0  0
 17 18  1  0  0  0  0
 17 19  1  0  0  0  0
 17 20  1  0  0  0  0
 14 15  1  0  0  0  0
 14 16  1  0  0  0  0
 14 17  1  0  0  0  0
 11 12  1  0  0  0  0
 11 13  1  0  0  0  0
 11 14  1  0  0  0  0
  9 10  1  0  0  0  0
  9 11  1  0  0  0  0
  9 26  1  0  0  0  0
  7  8  1  0  0  0  0
  7  9  1  0  0  0  0
 30 31  1  0  0  0  0
 30 32  1  0  0  0  0
 30 33  1  0  0  0  0
 28 29  1  0  0  0  0
 28 30  1  0  0  0  0
M  END
$$$$
default_name
  -OEChem-02102213163D

 33 32  0     1  0  0  0  0  0999 V2000
   -3.8420   -3.6918    1.5562 H   0  0  0  0  0  0  0  0  0  0  0  0
   -3.8430   -2.7008    1.1032 C   0  0  0  0  0  0  0  0  0  0  0  0
   -4.5510   -2.0608    1.6242 H   0  0  0  0  0  0  0  0  0  0  0  0
   -4.1140   -2.7798    0.0522 H   0  0  0  0  0  0  0  0  0  0  0  0
   -2.4570   -2.1098    1.2172 C   0  0  0  0  0  0  0  0  0  0  0  0
   -1.5600   -2.7438    1.7572 O   0  0  0  0  0  0  0  0  0  0  0  0
   -2.2870   -0.8898    0.7102 N   0  0  0  0  0  0  0  0  0  0  0  0
   -3.0820   -0.4218    0.2992 H   0  0  0  0  0  0  0  0  0  0  0  0
   -1.0240   -0.1468    0.7262 C   0  0  1  0  0  0  0  0  0  0  0  0
   -0.3583   -0.6100    1.4558 H   0  0  0  0  0  0  0  0  0  0  0  0
   -0.3739   -0.2459   -0.6675 C   0  0  0  0  0  0  0  0  0  0  0  0
    0.7106   -0.2006   -0.5486 H   0  0  0  0  0  0  0  0  0  0  0  0
   -0.6275   -1.2079   -1.1150 H   0  0  0  0  0  0  0  0  0  0  0  0
   -0.7996    0.8833   -1.6188 C   0  0  0  0  0  0  0  0  0  0  0  0
    0.0787    1.4479   -1.9329 H   0  0  0  0  0  0  0  0  0  0  0  0
   -1.2793    0.4500   -2.4983 H   0  0  0  0  0  0  0  0  0  0  0  0
   -1.7799    1.8392   -0.9296 C   0  0  0  0  0  0  0  0  0  0  0  0
   -2.6613    1.2871   -0.6023 H   0  0  0  0  0  0  0  0  0  0  0  0
   -1.2970    2.2930   -0.0637 H   0  0  0  0  0  0  0  0  0  0  0  0
   -2.2055    2.9362   -1.9036 C   0  0  0  0  0  0  0  0  0  0  0  0
   -1.3290    3.5009   -2.2174 H   0  0  0  0  0  0  0  0  0  0  0  0
   -2.6719    2.4838   -2.7771 H   0  0  0  0  0  0  0  0  0  0  0  0
   -3.1641    3.8572   -1.2821 N   0  0  0  0  0  0  0  0  0  0  0  0
   -3.4121    4.5748   -1.9474 H   0  0  0  0  0  0  0  0  0  0  0  0
   -3.9930    3.3439   -1.0177 H   0  0  0  0  0  0  0  0  0  0  0  0
   -1.2712    1.3099    1.1517 C   0  0  0  0  0  0  0  0  0  0  0  0
   -2.2039    1.9448    0.6639 O   0  0  0  0  0  0  0  0  0  0  0  0
   -0.4306    1.8354    2.0503 N   0  0  0  0  0  0  0  0  0  0  0  0
    0.3001    1.2459    2.4139 H   0  0  0  0  0  0  0  0  0  0  0  0
   -0.5192    3.2082    2.5456 C   0  0  0  0  0  0  0  0  0  0  0  0
   -1.5166    3.3903    2.9518 H   0  0  0  0  0  0  0  0  0  0  0  0
    0.2240    3.3791    3.3257 H   0  0  0  0  0  0  0  0  0  0  0  0
   -0.3477    3.9067    1.7239 H   0  0  0  0  0  0  0  0  0  0  0  0
  5  6  2  0  0  0  0
  5  7  1  0  0  0  0
  2  3  1  0  0  0  0
  2  4  1  0  0  0  0
  2  5  1  0  0  0  0
  1  2  1  0  0  0  0
 26 27  2  0  0  0  0
 26 28  1  0  0  0  0
 23 24  1  0  0  0  0
 23 25  1  0  0  0  0
 20 21  1  0  0  0  0
 20 22  1  0  0  0  0
 20 23  1  0  0  0  0
 17 18  1  0  0  0  0
 17 19  1  0  0  0  0
 17 20  1  0  0  0  0
 14 15  1  0  0  0  0
 14 16  1  0  0  0  0
 14 17  1  0  0  0  0
 11 12  1  0  0  0  0
 11 13  1  0  0  0  0
 11 14  1  0  0  0  0
  9 10  1  0  0  0  0
  9 11  1  0  0  0  0
  9 26  1  0  0  0  0
  7  8  1  0  0  0  0
  7  9  1  0  0  0  0
 30 31  1  0  0  0  0
 30 32  1  0  0  0  0
 30 33  1  0  0  0  0
 28 29  1  0  0  0  0
 28 30  1  0  0  0  0
M  END
$$$$
default_name
  -OEChem-02102213163D

 33 32  0     1  0  0  0  0  0999 V2000
   -3.8420   -3.6918    1.5562 H   0  0  0  0  0  0  0  0  0  0  0  0
   -3.8430   -2.7008    1.1032 C   0  0  0  0  0  0  0  0  0  0  0  0
   -4.5510   -2.0608    1.6242 H   0  0  0  0  0  0  0  0  0  0  0  0
   -4.1140   -2.7798    0.0522 H   0  0  0  0  0  0  0  0  0  0  0  0
   -2.4570   -2.1098    1.2172 C   0  0  0  0  0  0  0  0  0  0  0  0
   -1.5600   -2.7438    1.7572 O   0  0  0  0  0  0  0  0  0  0  0  0
   -2.2870   -0.8898    0.7102 N   0  0  0  0  0  0  0  0  0  0  0  0
   -3.0820   -0.4218    0.2992 H   0  0  0  0  0  0  0  0  0  0  0  0
   -1.0240   -0.1468    0.7262 C   0  0  1  0  0  0  0  0  0  0  0  0
   -0.3583   -0.6100    1.4558 H   0  0  0  0  0  0  0  0  0  0  0  0
   -0.3739   -0.2459   -0.6675 C   0  0  0  0  0  0  0  0  0  0  0  0
    0.7106   -0.2006   -0.5486 H   0  0  0  0  0  0  0  0  0  0  0  0
   -0.6275   -1.2079   -1.1150 H   0  0  0  0  0  0  0  0  0  0  0  0
   -0.7996    0.8833   -1.6188 C   0  0  0  0  0  0  0  0  0  0  0  0
    0.0761    1.2746   -2.1375 H   0  0  0  0  0  0  0  0  0  0  0  0
   -1.5031    0.4875   -2.3536 H   0  0  0  0  0  0  0  0  0  0  0  0
   -1.4674    2.0269   -0.8467 C   0  0  0  0  0  0  0  0  0  0  0  0
   -2.3416    1.6491   -0.3157 H   0  0  0  0  0  0  0  0  0  0  0  0
   -0.7604    2.4415   -0.1276 H   0  0  0  0  0  0  0  0  0  0  0  0
   -1.9024    3.1231   -1.8174 C   0  0  0  0  0  0  0  0  0  0  0  0
   -1.0285    3.5148   -2.3355 H   0  0  0  0  0  0  0  0  0  0  0  0
   -2.5947    2.7066   -2.5472 H   0  0  0  0  0  0  0  0  0  0  0  0
   -2.5679    4.2248   -1.1126 N   0  0  0  0  0  0  0  0  0  0  0  0
   -2.8285    4.9352   -1.7807 H   0  0  0  0  0  0  0  0  0  0  0  0
   -3.3975    3.8730   -0.6562 H   0  0  0  0  0  0  0  0  0  0  0  0
   -1.2712    1.3099    1.1517 C   0  0  0  0  0  0  0  0  0  0  0  0
   -2.2039    1.9448    0.6639 O   0  0  0  0  0  0  0  0  0  0  0  0
   -0.4306    1.8354    2.0503 N   0  0  0  0  0  0  0  0  0  0  0  0
    0.3001    1.2459    2.4139 H   0  0  0  0  0  0  0  0  0  0  0  0
   -0.5192    3.2082    2.5456 C   0  0  0  0  0  0  0  0  0  0  0  0
   -1.5166    3.3903    2.9518 H   0  0  0  0  0  0  0  0  0  0  0  0
    0.2240    3.3791    3.3257 H   0  0  0  0  0  0  0  0  0  0  0  0
   -0.3477    3.9067    1.7239 H   0  0  0  0  0  0  0  0  0  0  0  0
  5  6  2  0  0  0  0
  5  7  1  0  0  0  0
  2  3  1  0  0  0  0
  2  4  1  0  0  0  0
  2  5  1  0  0  0  0
  1  2  1  0  0  0  0
 26 27  2  0  0  0  0
 26 28  1  0  0  0  0
 23 24  1  0  0  0  0
 23 25  1  0  0  0  0
 20 21  1  0  0  0  0
 20 22  1  0  0  0  0
 20 23  1  0  0  0  0
 17 18  1  0  0  0  0
 17 19  1  0  0  0  0
 17 20  1  0  0  0  0
 14 15  1  0  0  0  0
 14 16  1  0  0  0  0
 14 17  1  0  0  0  0
 11 12  1  0  0  0  0
 11 13  1  0  0  0  0
 11 14  1  0  0  0  0
  9 10  1  0  0  0  0
  9 11  1  0  0  0  0
  9 26  1  0  0  0  0
  7  8  1  0  0  0  0
  7  9  1  0  0  0  0
 30 31  1  0  0  0  0
 30 32  1  0  0  0  0
 30 33  1  0  0  0  0
 28 29  1  0  0  0  0
 28 30  1  0  0  0  0
M  END
$$$$
default_name
  -OEChem-02102213163D

 33 32  0     1  0  0  0  0  0999 V2000
   -3.8420   -3.6918    1.5562 H   0  0  0  0  0  0  0  0  0  0  0  0
   -3.8430   -2.7008    1.1032 C   0  0  0  0  0  0  0  0  0  0  0  0
   -4.5510   -2.0608    1.6242 H   0  0  0  0  0  0  0  0  0  0  0  0
   -4.1140   -2.7798    0.0522 H   0  0  0  0  0  0  0  0  0  0  0  0
   -2.4570   -2.1098    1.2172 C   0  0  0  0  0  0  0  0  0  0  0  0
   -1.5600   -2.7438    1.7572 O   0  0  0  0  0  0  0  0  0  0  0  0
   -2.2870   -0.8898    0.7102 N   0  0  0  0  0  0  0  0  0  0  0  0
   -3.0820   -0.4218    0.2992 H   0  0  0  0  0  0  0  0  0  0  0  0
   -1.0240   -0.1468    0.7262 C   0  0  1  0  0  0  0  0  0  0  0  0
   -0.3583   -0.6100    1.4558 H   0  0  0  0  0  0  0  0  0  0  0  0
   -0.3739   -0.2459   -0.6675 C   0  0  0  0  0  0  0  0  0  0  0  0
    0.7106   -0.2006   -0.5486 H   0  0  0  0  0  0  0  0  0  0  0  0
   -0.6275   -1.2079   -1.1150 H   0  0  0  0  0  0  0  0  0  0  0  0
   -0.7996    0.8833   -1.6188 C   0  0  0  0  0  0  0  0  0  0  0  0
    0.0068    1.0929   -2.3221 H   0  0  0  0  0  0  0  0  0  0  0  0
   -1.6857    0.5700   -2.1740 H   0  0  0  0  0  0  0  0  0  0  0  0
   -1.1197    2.1640   -0.8396 C   0  0  0  0  0  0  0  0  0  0  0  0
   -1.9203    1.9681   -0.1256 H   0  0  0  0  0  0  0  0  0  0  0  0
   -0.2304    2.4943   -0.3020 H   0  0  0  0  0  0  0  0  0  0  0  0
   -1.5632    3.2612   -1.8053 C   0  0  0  0  0  0  0  0  0  0  0  0
   -0.7584    3.4715   -2.5077 H   0  0  0  0  0  0  0  0  0  0  0  0
   -2.4407    2.9260   -2.3558 H   0  0  0  0  0  0  0  0  0  0  0  0
   -1.9008    4.4964   -1.0887 N   0  0  0  0  0  0  0  0  0  0  0  0
   -2.1753    5.2017   -1.7566 H   0  0  0  0  0  0  0  0  0  0  0  0
   -2.6688    4.3145   -0.4583 H   0  0  0  0  0  0  0  0  0  0  0  0
   -1.2712    1.3099    1.1517 C   0  0  0  0  0  0  0  0  0  0  0  0
   -2.2039    1.9448    0.6639 O   0  0  0  0  0  0  0  0  0  0  0  0
   -0.4306    1.8354    2.0503 N   0  0  0  0  0  0  0  0  0  0  0  0
    0.3001    1.2459    2.4139 H   0  0  0  0  0  0  0  0  0  0  0  0
   -0.5192    3.2082    2.5456 C   0  0  0  0  0  0  0  0  0  0  0  0
   -1.5166    3.3903    2.9518 H   0  0  0  0  0  0  0  0  0  0  0  0
    0.2240    3.3791    3.3257 H   0  0  0  0  0  0  0  0  0  0  0  0
   -0.3477    3.9067    1.7239 H   0  0  0  0  0  0  0  0  0  0  0  0
  5  6  2  0  0  0  0
  5  7  1  0  0  0  0
  2  3  1  0  0  0  0
  2  4  1  0  0  0  0
  2  5  1  0  0  0  0
  1  2  1  0  0  0  0
 26 27  2  0  0  0  0
 26 28  1  0  0  0  0
 23 24  1  0  0  0  0
 23 25  1  0  0  0  0
 20 21  1  0  0  0  0
 20 22  1  0  0  0  0
 20 23  1  0  0  0  0
 17 18  1  0  0  0  0
 17 19  1  0  0  0  0
 17 20  1  0  0  0  0
 14 15  1  0  0  0  0
 14 16  1  0  0  0  0
 14 17  1  0  0  0  0
 11 12  1  0  0  0  0
 11 13  1  0  0  0  0
 11 14  1  0  0  0  0
  9 10  1  0  0  0  0
  9 11  1  0  0  0  0
  9 26  1  0  0  0  0
  7  8  1  0  0  0  0
  7  9  1  0  0  0  0
 30 31  1  0  0  0  0
 30 32  1  0  0  0  0
 30 33  1  0  0  0  0
 28 29  1  0  0  0  0
 28 30  1  0  0  0  0
M  END
$$$$
default_name
  -OEChem-02102213163D

 33 32  0     1  0  0  0  0  0999 V2000
   -3.8420   -3.6918    1.5562 H   0  0  0  0  0  0  0  0  0  0  0  0
   -3.8430   -2.7008    1.1032 C   0  0  0  0  0  0  0  0  0  0  0  0
   -4.5510   -2.0608    1.6242 H   0  0  0  0  0  0  0  0  0  0  0  0
   -4.1140   -2.7798    0.0522 H   0  0  0  0  0  0  0  0  0  0  0  0
   -2.4570   -2.1098    1.2172 C   0  0  0  0  0  0  0  0  0  0  0  0
   -1.5600   -2.7438    1.7572 O   0  0  0  0  0  0  0  0  0  0  0  0
   -2.2870   -0.8898    0.7102 N   0  0  0  0  0  0  0  0  0  0  0  0
   -3.0820   -0.4218    0.2992 H   0  0  0  0  0  0  0  0  0  0  0  0
   -1.0240   -0.1468    0.7262 C   0  0  1  0  0  0  0  0  0  0  0  0
   -0.3583   -0.6100    1.4558 H   0  0  0  0  0  0  0  0  0  0  0  0
   -0.3739   -0.2459   -0.6675 C   0  0  0  0  0  0  0  0  0  0  0  0
    0.7106   -0.2006   -0.5486 H   0  0  0  0  0  0  0  0  0  0  0  0
   -0.6275   -1.2079   -1.1150 H   0  0  0  0  0  0  0  0  0  0  0  0
   -0.7996    0.8833   -1.6188 C   0  0  0  0  0  0  0  0  0  0  0  0
   -0.1243    0.9153   -2.4743 H   0  0  0  0  0  0  0  0  0  0  0  0
   -1.8146    0.6919   -1.9717 H   0  0  0  0  0  0  0  0  0  0  0  0
   -0.7606    2.2412   -0.9086 C   0  0  0  0  0  0  0  0  0  0  0  0
   -1.4260    2.2223   -0.0450 H   0  0  0  0  0  0  0  0  0  0  0  0
    0.2568    2.4479   -0.5751 H   0  0  0  0  0  0  0  0  0  0  0  0
   -1.2113    3.3411   -1.8679 C   0  0  0  0  0  0  0  0  0  0  0  0
   -0.5372    3.3741   -2.7223 H   0  0  0  0  0  0  0  0  0  0  0  0
   -2.2205    3.1269   -2.2159 H   0  0  0  0  0  0  0  0  0  0  0  0
   -1.2083    4.6537   -1.2119 N   0  0  0  0  0  0  0  0  0  0  0  0
   -1.4970    5.3563   -1.8767 H   0  0  0  0  0  0  0  0  0  0  0  0
   -1.8565    4.6384   -0.4373 H   0  0  0  0  0  0  0  0  0  0  0  0
   -1.2712    1.3099    1.1517 C   0  0  0  0  0  0  0  0  0  0  0  0
   -2.2039    1.9448    0.6639 O   0  0  0  0  0  0  0  0  0  0  0  0
   -0.4306    1.8354    2.0503 N   0  0  0  0  0  0  0  0  0  0  0  0
    0.3001    1.2459    2.4139 H   0  0  0  0  0  0  0  0  0  0  0  0
   -0.5192    3.2082    2.5456 C   0  0  0  0  0  0  0  0  0  0  0  0
   -1.5166    3.3903    2.9518 H   0  0  0  0  0  0  0  0  0  0  0  0
    0.2240    3.3791    3.3257 H   0  0  0  0  0  0  0  0  0  0  0  0
   -0.3477    3.9067    1.7239 H   0  0  0  0  0  0  0  0  0  0  0  0
  5  6  2  0  0  0  0
  5  7  1  0  0  0  0
  2  3  1  0  0  0  0
  2  4  1  0  0  0  0
  2  5  1  0  0  0  0
  1  2  1  0  0  0  0
 26 27  2  0  0  0  0
 26 28  1  0  0  0  0
 23 24  1  0  0  0  0
 23 25  1  0  0  0  0
 20 21  1  0  0  0  0
 20 22  1  0  0  0  0
 20 23  1  0  0  0  0
 17 18  1  0  0  0  0
 17 19  1  0  0  0  0
 17 20  1  0  0  0  0
 14 15  1  0  0  0  0
 14 16  1  0  0  0  0
 14 17  1  0  0  0  0
 11 12  1  0  0  0  0
 11 13  1  0  0  0  0
 11 14  1  0  0  0  0
  9 10  1  0  0  0  0
  9 11  1  0  0  0  0
  9 26  1  0  0  0  0
  7  8  1  0  0  0  0
  7  9  1  0  0  0  0
 30 31  1  0  0  0  0
 30 32  1  0  0  0  0
 30 33  1  0  0  0  0
 28 29  1  0  0  0  0
 28 30  1  0  0  0  0
M  END
$$$$
default_name
  -OEChem-02102213163D

 33 32  0     1  0  0  0  0  0999 V2000
   -3.8420   -3.6918    1.5562 H   0  0  0  0  0  0  0  0  0  0  0  0
   -3.8430   -2.7008    1.1032 C   0  0  0  0  0  0  0  0  0  0  0  0
   -4.5510   -2.0608    1.6242 H   0  0  0  0  0  0  0  0  0  0  0  0
   -4.1140   -2.7798    0.0522 H   0  0  0  0  0  0  0  0  0  0  0  0
   -2.4570   -2.1098    1.2172 C   0  0  0  0  0  0  0  0  0  0  0  0
   -1.5600   -2.7438    1.7572 O   0  0  0  0  0  0  0  0  0  0  0  0
   -2.2870   -0.8898    0.7102 N   0  0  0  0  0  0  0  0  0  0  0  0
   -3.0820   -0.4218    0.2992 H   0  0  0  0  0  0  0  0  0  0  0  0
   -1.0240   -0.1468    0.7262 C   0  0  1  0  0  0  0  0  0  0  0  0
   -0.3583   -0.6100    1.4558 H   0  0  0  0  0  0  0  0  0  0  0  0
   -0.3739   -0.2459   -0.6675 C   0  0  0  0  0  0  0  0  0  0  0  0
    0.7106   -0.2006   -0.5486 H   0  0  0  0  0  0  0  0  0  0  0  0
   -0.6275   -1.2079   -1.1150 H   0  0  0  0  0  0  0  0  0  0  0  0
   -0.7996    0.8833   -1.6188 C   0  0  0  0  0  0  0  0  0  0  0  0
   -0.3083    0.7538   -2.5836 H   0  0  0  0  0  0  0  0  0  0  0  0
   -1.8812    0.8447   -1.7604 H   0  0  0  0  0  0  0  0  0  0  0  0
   -0.4144    2.2533   -1.0491 C   0  0  0  0  0  0  0  0  0  0  0  0
   -0.8925    2.3945   -0.0793 H   0  0  0  0  0  0  0  0  0  0  0  0
    0.6680    2.3055   -0.9282 H   0  0  0  0  0  0  0  0  0  0  0  0
   -0.8704    3.3574   -2.0011 C   0  0  0  0  0  0  0  0  0  0  0  0
   -0.3799    3.2292   -2.9647 H   0  0  0  0  0  0  0  0  0  0  0  0
   -1.9489    3.2957   -2.1370 H   0  0  0  0  0  0  0  0  0  0  0  0
   -0.5377    4.6858   -1.4738 N   0  0  0  0  0  0  0  0  0  0  0  0
   -0.8399    5.3882   -2.1328 H   0  0  0  0  0  0  0  0  0  0  0  0
   -1.0160    4.8226   -0.5947 H   0  0  0  0  0  0  0  0  0  0  0  0
   -1.2712    1.3099    1.1517 C   0  0  0  0  0  0  0  0  0  0  0  0
   -2.2039    1.9448    0.6639 O   0  0  0  0  0  0  0  0  0  0  0  0
   -0.4306    1.8354    2.0503 N   0  0  0  0  0  0  0  0  0  0  0  0
    0.3001    1.2459    2.4139 H   0  0  0  0  0  0  0  0  0  0  0  0
   -0.5192    3.2082    2.5456 C   0  0  0  0  0  0  0  0  0  0  0  0
   -1.5166    3.3903    2.9518 H   0  0  0  0  0  0  0  0  0  0  0  0
    0.2240    3.3791    3.3257 H   0  0  0  0  0  0  0  0  0  0  0  0
   -0.3477    3.9067    1.7239 H   0  0  0  0  0  0  0  0  0  0  0  0
  5  6  2  0  0  0  0
  5  7  1  0  0  0  0
  2  3  1  0  0  0  0
  2  4  1  0  0  0  0
  2  5  1  0  0  0  0
  1  2  1  0  0  0  0
 26 27  2  0  0  0  0
 26 28  1  0  0  0  0
 23 24  1  0  0  0  0
 23 25  1  0  0  0  0
 20 21  1  0  0  0  0
 20 22  1  0  0  0  0
 20 23  1  0  0  0  0
 17 18  1  0  0  0  0
 17 19  1  0  0  0  0
 17 20  1  0  0  0  0
 14 15  1  0  0  0  0
 14 16  1  0  0  0  0
 14 17  1  0  0  0  0
 11 12  1  0  0  0  0
 11 13  1  0  0  0  0
 11 14  1  0  0  0  0
  9 10  1  0  0  0  0
  9 11  1  0  0  0  0
  9 26  1  0  0  0  0
  7  8  1  0  0  0  0
  7  9  1  0  0  0  0
 30 31  1  0  0  0  0
 30 32  1  0  0  0  0
 30 33  1  0  0  0  0
 28 29  1  0  0  0  0
 28 30  1  0  0  0  0
M  END
$$$$
default_name
  -OEChem-02102213163D

 33 32  0     1  0  0  0  0  0999 V2000
   -3.8420   -3.6918    1.5562 H   0  0  0  0  0  0  0  0  0  0  0  0
   -3.8430   -2.7008    1.1032 C   0  0  0  0  0  0  0  0  0  0  0  0
   -4.5510   -2.0608    1.6242 H   0  0  0  0  0  0  0  0  0  0  0  0
   -4.1140   -2.7798    0.0522 H   0  0  0  0  0  0  0  0  0  0  0  0
   -2.4570   -2.1098    1.2172 C   0  0  0  0  0  0  0  0  0  0  0  0
   -1.5600   -2.7438    1.7572 O   0  0  0  0  0  0  0  0  0  0  0  0
   -2.2870   -0.8898    0.7102 N   0  0  0  0  0  0  0  0  0  0  0  0
   -3.0820   -0.4218    0.2992 H   0  0  0  0  0  0  0  0  0  0  0  0
   -1.0240   -0.1468    0.7262 C   0  0  1  0  0  0  0  0  0  0  0  0
   -0.3583   -0.6100    1.4558 H   0  0  0  0  0  0  0  0  0  0  0  0
   -0.3739   -0.2459   -0.6675 C   0  0  0  0  0  0  0  0  0  0  0  0
    0.7106   -0.2006   -0.5486 H   0  0  0  0  0  0  0  0  0  0  0  0
   -0.6275   -1.2079   -1.1150 H   0  0  0  0  0  0  0  0  0  0  0  0
   -0.7996    0.8833   -1.6188 C   0  0  0  0  0  0  0  0  0  0  0  0
   -0.5328    0.6195   -2.6426 H   0  0  0  0  0  0  0  0  0  0  0  0
   -1.8809    1.0182   -1.5547 H   0  0  0  0  0  0  0  0  0  0  0  0
   -0.1049    2.1994   -1.2516 C   0  0  0  0  0  0  0  0  0  0  0  0
   -0.3561    2.4728   -0.2263 H   0  0  0  0  0  0  0  0  0  0  0  0
    0.9752    2.0766   -1.3373 H   0  0  0  0  0  0  0  0  0  0  0  0
   -0.5638    3.3089   -2.1958 C   0  0  0  0  0  0  0  0  0  0  0  0
   -0.2974    3.0466   -3.2184 H   0  0  0  0  0  0  0  0  0  0  0  0
   -1.6445    3.4209   -2.1246 H   0  0  0  0  0  0  0  0  0  0  0  0
    0.0654    4.5905   -1.8567 N   0  0  0  0  0  0  0  0  0  0  0  0
   -0.2488    5.2955   -2.5074 H   0  0  0  0  0  0  0  0  0  0  0  0
   -0.2045    4.8546   -0.9198 H   0  0  0  0  0  0  0  0  0  0  0  0
   -1.2712    1.3099    1.1517 C   0  0  0  0  0  0  0  0  0  0  0  0
   -2.2039    1.9448    0.6639 O   0  0  0  0  0  0  0  0  0  0  0  0
   -0.4306    1.8354    2.0503 N   0  0  0  0  0  0  0  0  0  0  0  0
    0.3001    1.2459    2.4139 H   0  0  0  0  0  0  0  0  0  0  0  0
   -0.5192    3.2082    2.5456 C   0  0  0  0  0  0  0  0  0  0  0  0
   -1.5166    3.3903    2.9518 H   0  0  0  0  0  0  0  0  0  0  0  0
    0.2240    3.3791    3.3257 H   0  0  0  0  0  0  0  0  0  0  0  0
   -0.3477    3.9067    1.7239 H   0  0  0  0  0  0  0  0  0  0  0  0
  5  6  2  0  0  0  0
  5  7  1  0  0  0  0
  2  3  1  0  0  0  0
  2  4  1  0  0  0  0
  2  5  1  0  0  0  0
  1  2  1  0  0  0  0
 26 27  2  0  0  0  0
 26 28  1  0  0  0  0
 23 24  1  0  0  0  0
 23 25  1  0  0  0  0
 20 21  1  0  0  0  0
 20 22  1  0  0  0  0
 20 23  1  0  0  0  0
 17 18  1  0  0  0  0
 17 19  1  0  0  0  0
 17 20  1  0  0  0  0
 14 15  1  0  0  0  0
 14 16  1  0  0  0  0
 14 17  1  0  0  0  0
 11 12  1  0  0  0  0
 11 13  1  0  0  0  0
 11 14  1  0  0  0  0
  9 10  1  0  0  0  0
  9 11  1  0  0  0  0
  9 26  1  0  0  0  0
  7  8  1  0  0  0  0
  7  9  1  0  0  0  0
 30 31  1  0  0  0  0
 30 32  1  0  0  0  0
 30 33  1  0  0  0  0
 28 29  1  0  0  0  0
 28 30  1  0  0  0  0
M  END
$$$$
default_name
  -OEChem-02102213163D

 33 32  0     1  0  0  0  0  0999 V2000
   -3.8420   -3.6918    1.5562 H   0  0  0  0  0  0  0  0  0  0  0  0
   -3.8430   -2.7008    1.1032 C   0  0  0  0  0  0  0  0  0  0  0  0
   -4.5510   -2.0608    1.6242 H   0  0  0  0  0  0  0  0  0  0  0  0
   -4.1140   -2.7798    0.0522 H   0  0  0  0  0  0  0  0  0  0  0  0
   -2.4570   -2.1098    1.2172 C   0  0  0  0  0  0  0  0  0  0  0  0
   -1.5600   -2.7438    1.7572 O   0  0  0  0  0  0  0  0  0  0  0  0
   -2.2870   -0.8898    0.7102 N   0  0  0  0  0  0  0  0  0  0  0  0
   -3.0820   -0.4218    0.2992 H   0  0  0  0  0  0  0  0  0  0  0  0
   -1.0240   -0.1468    0.7262 C   0  0  1  0  0  0  0  0  0  0  0  0
   -0.3583   -0.6100    1.4558 H   0  0  0  0  0  0  0  0  0  0  0  0
   -0.3739   -0.2459   -0.6675 C   0  0  0  0  0  0  0  0  0  0  0  0
    0.7106   -0.2006   -0.5486 H   0  0  0  0  0  0  0  0  0  0  0  0
   -0.6275   -1.2079   -1.1150 H   0  0  0  0  0  0  0  0  0  0  0  0
   -0.7996    0.8833   -1.6188 C   0  0  0  0  0  0  0  0  0  0  0  0
   -0.7823    0.5215   -2.6472 H   0  0  0  0  0  0  0  0  0  0  0  0
   -1.8136    1.2004   -1.3685 H   0  0  0  0  0  0  0  0  0  0  0  0
    0.1470    2.0833   -1.5021 C   0  0  0  0  0  0  0  0  0  0  0  0
    0.1466    2.4520   -0.4760 H   0  0  0  0  0  0  0  0  0  0  0  0
    1.1575    1.7771   -1.7744 H   0  0  0  0  0  0  0  0  0  0  0  0
   -0.3125    3.1991   -2.4386 C   0  0  0  0  0  0  0  0  0  0  0  0
   -0.2951    2.8389   -3.4660 H   0  0  0  0  0  0  0  0  0  0  0  0
   -1.3281    3.4939   -2.1795 H   0  0  0  0  0  0  0  0  0  0  0  0
    0.5598    4.3745   -2.3345 N   0  0  0  0  0  0  0  0  0  0  0  0
    0.2360    5.0843   -2.9750 H   0  0  0  0  0  0  0  0  0  0  0  0
    0.5226    4.7321   -1.3905 H   0  0  0  0  0  0  0  0  0  0  0  0
   -1.2712    1.3099    1.1517 C   0  0  0  0  0  0  0  0  0  0  0  0
   -2.2039    1.9448    0.6639 O   0  0  0  0  0  0  0  0  0  0  0  0
   -0.4306    1.8354    2.0503 N   0  0  0  0  0  0  0  0  0  0  0  0
    0.3001    1.2459    2.4139 H   0  0  0  0  0  0  0  0  0  0  0  0
   -0.5192    3.2082    2.5456 C   0  0  0  0  0  0  0  0  0  0  0  0
   -1.5166    3.3903    2.9518 H   0  0  0  0  0  0  0  0  0  0  0  0
    0.2240    3.3791    3.3257 H   0  0  0  0  0  0  0  0  0  0  0  0
   -0.3477    3.9067    1.7239 H   0  0  0  0  0  0  0  0  0  0  0  0
  5  6  2  0  0  0  0
  5  7  1  0  0  0  0
  2  3  1  0  0  0  0
  2  4  1  0  0  0  0
  2  5  1  0  0  0  0
  1  2  1  0  0  0  0
 26 27  2  0  0  0  0
 26 28  1  0  0  0  0
 23 24  1  0  0  0  0
 23 25  1  0  0  0  0
 20 21  1  0  0  0  0
 20 22  1  0  0  0  0
 20 23  1  0  0  0  0
 17 18  1  0  0  0  0
 17 19  1  0  0  0  0
 17 20  1  0  0  0  0
 14 15  1  0  0  0  0
 14 16  1  0  0  0  0
 14 17  1  0  0  0  0
 11 12  1  0  0  0  0
 11 13  1  0  0  0  0
 11 14  1  0  0  0  0
  9 10  1  0  0  0  0
  9 11  1  0  0  0  0
  9 26  1  0  0  0  0
  7  8  1  0  0  0  0
  7  9  1  0  0  0  0
 30 31  1  0  0  0  0
 30 32  1  0  0  0  0
 30 33  1  0  0  0  0
 28 29  1  0  0  0  0
 28 30  1  0  0  0  0
M  END
$$$$
default_name
  -OEChem-02102213163D

 33 32  0     1  0  0  0  0  0999 V2000
   -3.8420   -3.6918    1.5562 H   0  0  0  0  0  0  0  0  0  0  0  0
   -3.8430   -2.7008    1.1032 C   0  0  0  0  0  0  0  0  0  0  0  0
   -4.5510   -2.0608    1.6242 H   0  0  0  0  0  0  0  0  0  0  0  0
   -4.1140   -2.7798    0.0522 H   0  0  0  0  0  0  0  0  0  0  0  0
   -2.4570   -2.1098    1.2172 C   0  0  0  0  0  0  0  0  0  0  0  0
   -1.5600   -2.7438    1.7572 O   0  0  0  0  0  0  0  0  0  0  0  0
   -2.2870   -0.8898    0.7102 N   0  0  0  0  0  0  0  0  0  0  0  0
   -3.0820   -0.4218    0.2992 H   0  0  0  0  0  0  0  0  0  0  0  0
   -1.0240   -0.1468    0.7262 C   0  0  1  0  0  0  0  0  0  0  0  0
   -0.3583   -0.6100    1.4558 H   0  0  0  0  0  0  0  0  0  0  0  0
   -0.3739   -0.2459   -0.6675 C   0  0  0  0  0  0  0  0  0  0  0  0
    0.7106   -0.2006   -0.5486 H   0  0  0  0  0  0  0  0  0  0  0  0
   -0.6275   -1.2079   -1.1150 H   0  0  0  0  0  0  0  0  0  0  0  0
   -0.7996    0.8833   -1.6188 C   0  0  0  0  0  0  0  0  0  0  0  0
   -1.0399    0.4665   -2.5973 H   0  0  0  0  0  0  0  0  0  0  0  0
   -1.6840    1.3790   -1.2145 H   0  0  0  0  0  0  0  0  0  0  0  0
    0.3241    1.9128   -1.7837 C   0  0  0  0  0  0  0  0  0  0  0  0
    0.5813    2.3335   -0.8112 H   0  0  0  0  0  0  0  0  0  0  0  0
    1.2024    1.4272   -2.2099 H   0  0  0  0  0  0  0  0  0  0  0  0
   -0.1336    3.0353   -2.7131 C   0  0  0  0  0  0  0  0  0  0  0  0
   -0.3733    2.6201   -3.6907 H   0  0  0  0  0  0  0  0  0  0  0  0
   -1.0212    3.5098   -2.2979 H   0  0  0  0  0  0  0  0  0  0  0  0
    0.9119    4.0523   -2.8744 N   0  0  0  0  0  0  0  0  0  0  0  0
    0.5816    4.7692   -3.5037 H   0  0  0  0  0  0  0  0  0  0  0  0
    1.1157    4.4636   -1.9747 H   0  0  0  0  0  0  0  0  0  0  0  0
   -1.2712    1.3099    1.1517 C   0  0  0  0  0  0  0  0  0  0  0  0
   -2.2039    1.9448    0.6639 O   0  0  0  0  0  0  0  0  0  0  0  0
   -0.4306    1.8354    2.0503 N   0  0  0  0  0  0  0  0  0  0  0  0
    0.3001    1.2459    2.4139 H   0  0  0  0  0  0  0  0  0  0  0  0
   -0.5192    3.2082    2.5456 C   0  0  0  0  0  0  0  0  0  0  0  0
   -1.5166    3.3903    2.9518 H   0  0  0  0  0  0  0  0  0  0  0  0
    0.2240    3.3791    3.3257 H   0  0  0  0  0  0  0  0  0  0  0  0
   -0.3477    3.9067    1.7239 H   0  0  0  0  0  0  0  0  0  0  0  0
  5  6  2  0  0  0  0
  5  7  1  0  0  0  0
  2  3  1  0  0  0  0
  2  4  1  0  0  0  0
  2  5  1  0  0  0  0
  1  2  1  0  0  0  0
 26 27  2  0  0  0  0
 26 28  1  0  0  0  0
 23 24  1  0  0  0  0
 23 25  1  0  0  0  0
 20 21  1  0  0  0  0
 20 22  1  0  0  0  0
 20 23  1  0  0  0  0
 17 18  1  0  0  0  0
 17 19  1  0  0  0  0
 17 20  1  0  0  0  0
 14 15  1  0  0  0  0
 14 16  1  0  0  0  0
 14 17  1  0  0  0  0
 11 12  1  0  0  0  0
 11 13  1  0  0  0  0
 11 14  1  0  0  0  0
  9 10  1  0  0  0  0
  9 11  1  0  0  0  0
  9 26  1  0  0  0  0
  7  8  1  0  0  0  0
  7  9  1  0  0  0  0
 30 31  1  0  0  0  0
 30 32  1  0  0  0  0
 30 33  1  0  0  0  0
 28 29  1  0  0  0  0
 28 30  1  0  0  0  0
M  END
$$$$
default_name
  -OEChem-02102213163D

 33 32  0     1  0  0  0  0  0999 V2000
   -3.8420   -3.6918    1.5562 H   0  0  0  0  0  0  0  0  0  0  0  0
   -3.8430   -2.7008    1.1032 C   0  0  0  0  0  0  0  0  0  0  0  0
   -4.5510   -2.0608    1.6242 H   0  0  0  0  0  0  0  0  0  0  0  0
   -4.1140   -2.7798    0.0522 H   0  0  0  0  0  0  0  0  0  0  0  0
   -2.4570   -2.1098    1.2172 C   0  0  0  0  0  0  0  0  0  0  0  0
   -1.5600   -2.7438    1.7572 O   0  0  0  0  0  0  0  0  0  0  0  0
   -2.2870   -0.8898    0.7102 N   0  0  0  0  0  0  0  0  0  0  0  0
   -3.0820   -0.4218    0.2992 H   0  0  0  0  0  0  0  0  0  0  0  0
   -1.0240   -0.1468    0.7262 C   0  0  1  0  0  0  0  0  0  0  0  0
   -0.3583   -0.6100    1.4558 H   0  0  0  0  0  0  0  0  0  0  0  0
   -0.3739   -0.2459   -0.6675 C   0  0  0  0  0  0  0  0  0  0  0  0
    0.7106   -0.2006   -0.5486 H   0  0  0  0  0  0  0  0  0  0  0  0
   -0.6275   -1.2079   -1.1150 H   0  0  0  0  0  0  0  0  0  0  0  0
   -0.7996    0.8833   -1.6188 C   0  0  0  0  0  0  0  0  0  0  0  0
   -1.2880    0.4582   -2.4961 H   0  0  0  0  0  0  0  0  0  0  0  0
   -1.5010    1.5418   -1.1032 H   0  0  0  0  0  0  0  0  0  0  0  0
    0.4142    1.6996   -2.0772 C   0  0  0  0  0  0  0  0  0  0  0  0
    0.9185    2.1253   -1.2092 H   0  0  0  0  0  0  0  0  0  0  0  0
    1.1070    1.0507   -2.6139 H   0  0  0  0  0  0  0  0  0  0  0  0
   -0.0391    2.8287   -3.0005 C   0  0  0  0  0  0  0  0  0  0  0  0
   -0.5266    2.4052   -3.8772 H   0  0  0  0  0  0  0  0  0  0  0  0
   -0.7447    3.4675   -2.4719 H   0  0  0  0  0  0  0  0  0  0  0  0
    1.0977    3.6459   -3.4399 N   0  0  0  0  0  0  0  0  0  0  0  0
    0.7643    4.3714   -4.0575 H   0  0  0  0  0  0  0  0  0  0  0  0
    1.5345    4.0673   -2.6325 H   0  0  0  0  0  0  0  0  0  0  0  0
   -1.2712    1.3099    1.1517 C   0  0  0  0  0  0  0  0  0  0  0  0
   -2.2039    1.9448    0.6639 O   0  0  0  0  0  0  0  0  0  0  0  0
   -0.4306    1.8354    2.0503 N   0  0  0  0  0  0  0  0  0  0  0  0
    0.3001    1.2459    2.4139 H   0  0  0  0  0  0  0  0  0  0  0  0
   -0.5192    3.2082    2.5456 C   0  0  0  0  0  0  0  0  0  0  0  0
   -1.5166    3.3903    2.9518 H   0  0  0  0  0  0  0  0  0  0  0  0
    0.2240    3.3791    3.3257 H   0  0  0  0  0  0  0  0  0  0  0  0
   -0.3477    3.9067    1.7239 H   0  0  0  0  0  0  0  0  0  0  0  0
  5  6  2  0  0  0  0
  5  7  1  0  0  0  0
  2  3  1  0  0  0  0
  2  4  1  0  0  0  0
  2  5  1  0  0  0  0
  1  2  1  0  0  0  0
 26 27  2  0  0  0  0
 26 28  1  0  0  0  0
 23 24  1  0  0  0  0
 23 25  1  0  0  0  0
 20 21  1  0  0  0  0
 20 22  1  0  0  0  0
 20 23  1  0  0  0  0
 17 18  1  0  0  0  0
 17 19  1  0  0  0  0
 17 20  1  0  0  0  0
 14 15  1  0  0  0  0
 14 16  1  0  0  0  0
 14 17  1  0  0  0  0
 11 12  1  0  0  0  0
 11 13  1  0  0  0  0
 11 14  1  0  0  0  0
  9 10  1  0  0  0  0
  9 11  1  0  0  0  0
  9 26  1  0  0  0  0
  7  8  1  0  0  0  0
  7  9  1  0  0  0  0
 30 31  1  0  0  0  0
 30 32  1  0  0  0  0
 30 33  1  0  0  0  0
 28 29  1  0  0  0  0
 28 30  1  0  0  0  0
M  END
$$$$
default_name
  -OEChem-02102213163D

 33 32  0     1  0  0  0  0  0999 V2000
   -3.8420   -3.6918    1.5562 H   0  0  0  0  0  0  0  0  0  0  0  0
   -3.8430   -2.7008    1.1032 C   0  0  0  0  0  0  0  0  0  0  0  0
   -4.5510   -2.0608    1.6242 H   0  0  0  0  0  0  0  0  0  0  0  0
   -4.1140   -2.7798    0.0522 H   0  0  0  0  0  0  0  0  0  0  0  0
   -2.4570   -2.1098    1.2172 C   0  0  0  0  0  0  0  0  0  0  0  0
   -1.5600   -2.7438    1.7572 O   0  0  0  0  0  0  0  0  0  0  0  0
   -2.2870   -0.8898    0.7102 N   0  0  0  0  0  0  0  0  0  0  0  0
   -3.0820   -0.4218    0.2992 H   0  0  0  0  0  0  0  0  0  0  0  0
   -1.0240   -0.1468    0.7262 C   0  0  1  0  0  0  0  0  0  0  0  0
   -0.3583   -0.6100    1.4558 H   0  0  0  0  0  0  0  0  0  0  0  0
   -0.3739   -0.2459   -0.6675 C   0  0  0  0  0  0  0  0  0  0  0  0
    0.7106   -0.2006   -0.5486 H   0  0  0  0  0  0  0  0  0  0  0  0
   -0.6275   -1.2079   -1.1150 H   0  0  0  0  0  0  0  0  0  0  0  0
   -0.7996    0.8833   -1.6188 C   0  0  0  0  0  0  0  0  0  0  0  0
   -1.5098    0.4972   -2.3505 H   0  0  0  0  0  0  0  0  0  0  0  0
   -1.2769    1.6777   -1.0421 H   0  0  0  0  0  0  0  0  0  0  0  0
    0.4113    1.4581   -2.3625 C   0  0  0  0  0  0  0  0  0  0  0  0
    1.1352    1.8417   -1.6428 H   0  0  0  0  0  0  0  0  0  0  0  0
    0.8776    0.6735   -2.9591 H   0  0  0  0  0  0  0  0  0  0  0  0
   -0.0357    2.5935   -3.2813 C   0  0  0  0  0  0  0  0  0  0  0  0
   -0.7447    2.2088   -4.0127 H   0  0  0  0  0  0  0  0  0  0  0  0
   -0.5175    3.3699   -2.6894 H   0  0  0  0  0  0  0  0  0  0  0  0
    1.1045    3.1831   -3.9923 N   0  0  0  0  0  0  0  0  0  0  0  0
    0.7717    3.9183   -4.5988 H   0  0  0  0  0  0  0  0  0  0  0  0
    1.7505    3.5702   -3.3191 H   0  0  0  0  0  0  0  0  0  0  0  0
   -1.2712    1.3099    1.1517 C   0  0  0  0  0  0  0  0  0  0  0  0
   -2.2039    1.9448    0.6639 O   0  0  0  0  0  0  0  0  0  0  0  0
   -0.4306    1.8354    2.0503 N   0  0  0  0  0  0  0  0  0  0  0  0
    0.3001    1.2459    2.4139 H   0  0  0  0  0  0  0  0  0  0  0  0
   -0.5192    3.2082    2.5456 C   0  0  0  0  0  0  0  0  0  0  0  0
   -1.5166    3.3903    2.9518 H   0  0  0  0  0  0  0  0  0  0  0  0
    0.2240    3.3791    3.3257 H   0  0  0  0  0  0  0  0  0  0  0  0
   -0.3477    3.9067    1.7239 H   0  0  0  0  0  0  0  0  0  0  0  0
  5  6  2  0  0  0  0
  5  7  1  0  0  0  0
  2  3  1  0  0  0  0
  2  4  1  0  0  0  0
  2  5  1  0  0  0  0
  1  2  1  0  0  0  0
 26 27  2  0  0  0  0
 26 28  1  0  0  0  0
 23 24  1  0  0  0  0
 23 25  1  0  0  0  0
 20 21  1  0  0  0  0
 20 22  1  0  0  0  0
 20 23  1  0  0  0  0
 17 18  1  0  0  0  0
 17 19  1  0  0  0  0
 17 20  1  0  0  0  0
 14 15  1  0  0  0  0
 14 16  1  0  0  0  0
 14 17  1  0  0  0  0
 11 12  1  0  0  0  0
 11 13  1  0  0  0  0
 11 14  1  0  0  0  0
  9 10  1  0  0  0  0
  9 11  1  0  0  0  0
  9 26  1  0  0  0  0
  7  8  1  0  0  0  0
  7  9  1  0  0  0  0
 30 31  1  0  0  0  0
 30 32  1  0  0  0  0
 30 33  1  0  0  0  0
 28 29  1  0  0  0  0
 28 30  1  0  0  0  0
M  END
$$$$
default_name
  -OEChem-02102213163D

 33 32  0     1  0  0  0  0  0999 V2000
   -3.8420   -3.6918    1.5562 H   0  0  0  0  0  0  0  0  0  0  0  0
   -3.8430   -2.7008    1.1032 C   0  0  0  0  0  0  0  0  0  0  0  0
   -4.5510   -2.0608    1.6242 H   0  0  0  0  0  0  0  0  0  0  0  0
   -4.1140   -2.7798    0.0522 H   0  0  0  0  0  0  0  0  0  0  0  0
   -2.4570   -2.1098    1.2172 C   0  0  0  0  0  0  0  0  0  0  0  0
   -1.5600   -2.7438    1.7572 O   0  0  0  0  0  0  0  0  0  0  0  0
   -2.2870   -0.8898    0.7102 N   0  0  0  0  0  0  0  0  0  0  0  0
   -3.0820   -0.4218    0.2992 H   0  0  0  0  0  0  0  0  0  0  0  0
   -1.0240   -0.1468    0.7262 C   0  0  1  0  0  0  0  0  0  0  0  0
   -0.3583   -0.6100    1.4558 H   0  0  0  0  0  0  0  0  0  0  0  0
   -0.3739   -0.2459   -0.6675 C   0  0  0  0  0  0  0  0  0  0  0  0
    0.7106   -0.2006   -0.5486 H   0  0  0  0  0  0  0  0  0  0  0  0
   -0.6275   -1.2079   -1.1150 H   0  0  0  0  0  0  0  0  0  0  0  0
   -0.7996    0.8833   -1.6188 C   0  0  0  0  0  0  0  0  0  0  0  0
   -1.6901    0.5809   -2.1706 H   0  0  0  0  0  0  0  0  0  0  0  0
   -1.0270    1.7775   -1.0355 H   0  0  0  0  0  0  0  0  0  0  0  0
    0.3155    1.2049   -2.6202 C   0  0  0  0  0  0  0  0  0  0  0  0
    1.2165    1.5019   -2.0826 H   0  0  0  0  0  0  0  0  0  0  0  0
    0.5299    0.3211   -3.2218 H   0  0  0  0  0  0  0  0  0  0  0  0
   -0.1235    2.3455   -3.5363 C   0  0  0  0  0  0  0  0  0  0  0  0
   -1.0125    2.0443   -4.0881 H   0  0  0  0  0  0  0  0  0  0  0  0
   -0.3551    3.2236   -2.9357 H   0  0  0  0  0  0  0  0  0  0  0  0
    0.9319    2.6954   -4.4940 N   0  0  0  0  0  0  0  0  0  0  0  0
    0.6034    3.4406   -5.0905 H   0  0  0  0  0  0  0  0  0  0  0  0
    1.7488    3.0063   -3.9878 H   0  0  0  0  0  0  0  0  0  0  0  0
   -1.2712    1.3099    1.1517 C   0  0  0  0  0  0  0  0  0  0  0  0
   -2.2039    1.9448    0.6639 O   0  0  0  0  0  0  0  0  0  0  0  0
   -0.4306    1.8354    2.0503 N   0  0  0  0  0  0  0  0  0  0  0  0
    0.3001    1.2459    2.4139 H   0  0  0  0  0  0  0  0  0  0  0  0
   -0.5192    3.2082    2.5456 C   0  0  0  0  0  0  0  0  0  0  0  0
   -1.5166    3.3903    2.9518 H   0  0  0  0  0  0  0  0  0  0  0  0
    0.2240    3.3791    3.3257 H   0  0  0  0  0  0  0  0  0  0  0  0
   -0.3477    3.9067    1.7239 H   0  0  0  0  0  0  0  0  0  0  0  0
  5  6  2  0  0  0  0
  5  7  1  0  0  0  0
  2  3  1  0  0  0  0
  2  4  1  0  0  0  0
  2  5  1  0  0  0  0
  1  2  1  0  0  0  0
 26 27  2  0  0  0  0
 26 28  1  0  0  0  0
 23 24  1  0  0  0  0
 23 25  1  0  0  0  0
 20 21  1  0  0  0  0
 20 22  1  0  0  0  0
 20 23  1  0  0  0  0
 17 18  1  0  0  0  0
 17 19  1  0  0  0  0
 17 20  1  0  0  0  0
 14 15  1  0  0  0  0
 14 16  1  0  0  0  0
 14 17  1  0  0  0  0
 11 12  1  0  0  0  0
 11 13  1  0  0  0  0
 11 14  1  0  0  0  0
  9 10  1  0  0  0  0
  9 11  1  0  0  0  0
  9 26  1  0  0  0  0
  7  8  1  0  0  0  0
  7  9  1  0  0  0  0
 30 31  1  0  0  0  0
 30 32  1  0  0  0  0
 30 33  1  0  0  0  0
 28 29  1  0  0  0  0
 28 30  1  0  0  0  0
M  END
$$$$
default_name
  -OEChem-02102213163D

 33 32  0     1  0  0  0  0  0999 V2000
   -3.8420   -3.6918    1.5562 H   0  0  0  0  0  0  0  0  0  0  0  0
   -3.8430   -2.7008    1.1032 C   0  0  0  0  0  0  0  0  0  0  0  0
   -4.5510   -2.0608    1.6242 H   0  0  0  0  0  0  0  0  0  0  0  0
   -4.1140   -2.7798    0.0522 H   0  0  0  0  0  0  0  0  0  0  0  0
   -2.4570   -2.1098    1.2172 C   0  0  0  0  0  0  0  0  0  0  0  0
   -1.5600   -2.7438    1.7572 O   0  0  0  0  0  0  0  0  0  0  0  0
   -2.2870   -0.8898    0.7102 N   0  0  0  0  0  0  0  0  0  0  0  0
   -3.0820   -0.4218    0.2992 H   0  0  0  0  0  0  0  0  0  0  0  0
   -1.0240   -0.1468    0.7262 C   0  0  1  0  0  0  0  0  0  0  0  0
   -0.3583   -0.6100    1.4558 H   0  0  0  0  0  0  0  0  0  0  0  0
   -0.3739   -0.2459   -0.6675 C   0  0  0  0  0  0  0  0  0  0  0  0
    0.7106   -0.2006   -0.5486 H   0  0  0  0  0  0  0  0  0  0  0  0
   -0.6275   -1.2079   -1.1150 H   0  0  0  0  0  0  0  0  0  0  0  0
   -0.7996    0.8833   -1.6188 C   0  0  0  0  0  0  0  0  0  0  0  0
   -1.8166    0.7035   -1.9684 H   0  0  0  0  0  0  0  0  0  0  0  0
   -0.7684    1.8342   -1.0838 H   0  0  0  0  0  0  0  0  0  0  0  0
    0.1334    0.9571   -2.8328 C   0  0  0  0  0  0  0  0  0  0  0  0
    1.1570    1.1291   -2.4984 H   0  0  0  0  0  0  0  0  0  0  0  0
    0.0876    0.0176   -3.3842 H   0  0  0  0  0  0  0  0  0  0  0  0
   -0.2965    2.1018   -3.7482 C   0  0  0  0  0  0  0  0  0  0  0  0
   -1.3119    1.9229   -4.0982 H   0  0  0  0  0  0  0  0  0  0  0  0
   -0.2685    3.0386   -3.1941 H   0  0  0  0  0  0  0  0  0  0  0  0
    0.5916    2.2160   -4.9108 N   0  0  0  0  0  0  0  0  0  0  0  0
    0.2707    2.9709   -5.4991 H   0  0  0  0  0  0  0  0  0  0  0  0
    1.5297    2.4139   -4.5929 H   0  0  0  0  0  0  0  0  0  0  0  0
   -1.2712    1.3099    1.1517 C   0  0  0  0  0  0  0  0  0  0  0  0
   -2.2039    1.9448    0.6639 O   0  0  0  0  0  0  0  0  0  0  0  0
   -0.4306    1.8354    2.0503 N   0  0  0  0  0  0  0  0  0  0  0  0
    0.3001    1.2459    2.4139 H   0  0  0  0  0  0  0  0  0  0  0  0
   -0.5192    3.2082    2.5456 C   0  0  0  0  0  0  0  0  0  0  0  0
   -1.5166    3.3903    2.9518 H   0  0  0  0  0  0  0  0  0  0  0  0
    0.2240    3.3791    3.3257 H   0  0  0  0  0  0  0  0  0  0  0  0
   -0.3477    3.9067    1.7239 H   0  0  0  0  0  0  0  0  0  0  0  0
  5  6  2  0  0  0  0
  5  7  1  0  0  0  0
  2  3  1  0  0  0  0
  2  4  1  0  0  0  0
  2  5  1  0  0  0  0
  1  2  1  0  0  0  0
 26 27  2  0  0  0  0
 26 28  1  0  0  0  0
 23 24  1  0  0  0  0
 23 25  1  0  0  0  0
 20 21  1  0  0  0  0
 20 22  1  0  0  0  0
 20 23  1  0  0  0  0
 17 18  1  0  0  0  0
 17 19  1  0  0  0  0
 17 20  1  0  0  0  0
 14 15  1  0  0  0  0
 14 16  1  0  0  0  0
 14 17  1  0  0  0  0
 11 12  1  0  0  0  0
 11 13  1  0  0  0  0
 11 14  1  0  0  0  0
  9 10  1  0  0  0  0
  9 11  1  0  0  0  0
  9 26  1  0  0  0  0
  7  8  1  0  0  0  0
  7  9  1  0  0  0  0
 30 31  1  0  0  0  0
 30 32  1  0  0  0  0
 30 33  1  0  0  0  0
 28 29  1  0  0  0  0
 28 30  1  0  0  0  0
M  END
$$$$
default_name
  -OEChem-02102213163D

 33 32  0     1  0  0  0  0  0999 V2000
   -3.8420   -3.6918    1.5562 H   0  0  0  0  0  0  0  0  0  0  0  0
   -3.8430   -2.7008    1.1032 C   0  0  0  0  0  0  0  0  0  0  0  0
   -4.5510   -2.0608    1.6242 H   0  0  0  0  0  0  0  0  0  0  0  0
   -4.1140   -2.7798    0.0522 H   0  0  0  0  0  0  0  0  0  0  0  0
   -2.4570   -2.1098    1.2172 C   0  0  0  0  0  0  0  0  0  0  0  0
   -1.5600   -2.7438    1.7572 O   0  0  0  0  0  0  0  0  0  0  0  0
   -2.2870   -0.8898    0.7102 N   0  0  0  0  0  0  0  0  0  0  0  0
   -3.0820   -0.4218    0.2992 H   0  0  0  0  0  0  0  0  0  0  0  0
   -1.0240   -0.1468    0.7262 C   0  0  1  0  0  0  0  0  0  0  0  0
   -0.3583   -0.6100    1.4558 H   0  0  0  0  0  0  0  0  0  0  0  0
   -0.3739   -0.2459   -0.6675 C   0  0  0  0  0  0  0  0  0  0  0  0
    0.6872   -0.4697   -0.5403 H   0  0  0  0  0  0  0  0  0  0  0  0
   -0.8314   -1.0677   -1.2201 H   0  0  0  0  0  0  0  0  0  0  0  0
   -0.4962    1.0470   -1.4889 C   0  0  0  0  0  0  0  0  0  0  0  0
   -1.5491    1.2902   -1.6341 H   0  0  0  0  0  0  0  0  0  0  0  0
   -0.0121    1.8627   -0.9487 H   0  0  0  0  0  0  0  0  0  0  0  0
    0.1671    0.8881   -2.8617 C   0  0  0  0  0  0  0  0  0  0  0  0
    1.2203    0.6366   -2.7330 H   0  0  0  0  0  0  0  0  0  0  0  0
   -0.3289    0.0899   -3.4149 H   0  0  0  0  0  0  0  0  0  0  0  0
    0.0531    2.1934   -3.6468 C   0  0  0  0  0  0  0  0  0  0  0  0
   -0.9981    2.4369   -3.7926 H   0  0  0  0  0  0  0  0  0  0  0  0
    0.5323    2.9952   -3.0875 H   0  0  0  0  0  0  0  0  0  0  0  0
    0.6999    2.0833   -4.9594 N   0  0  0  0  0  0  0  0  0  0  0  0
    0.5935    2.9564   -5.4546 H   0  0  0  0  0  0  0  0  0  0  0  0
    1.6825    1.8890   -4.8293 H   0  0  0  0  0  0  0  0  0  0  0  0
   -1.2712    1.3099    1.1517 C   0  0  0  0  0  0  0  0  0  0  0  0
   -2.2039    1.9448    0.6639 O   0  0  0  0  0  0  0  0  0  0  0  0
   -0.4306    1.8354    2.0503 N   0  0  0  0  0  0  0  0  0  0  0  0
    0.3001    1.2459    2.4139 H   0  0  0  0  0  0  0  0  0  0  0  0
   -0.5192    3.2082    2.5456 C   0  0  0  0  0  0  0  0  0  0  0  0
   -1.5166    3.3903    2.9518 H   0  0  0  0  0  0  0  0  0  0  0  0
    0.2240    3.3791    3.3257 H   0  0  0  0  0  0  0  0  0  0  0  0
   -0.3477    3.9067    1.7239 H   0  0  0  0  0  0  0  0  0  0  0  0
  5  6  2  0  0  0  0
  5  7  1  0  0  0  0
  2  3  1  0  0  0  0
  2  4  1  0  0  0  0
  2  5  1  0  0  0  0
  1  2  1  0  0  0  0
 26 27  2  0  0  0  0
 26 28  1  0  0  0  0
 23 24  1  0  0  0  0
 23 25  1  0  0  0  0
 20 21  1  0  0  0  0
 20 22  1  0  0  0  0
 20 23  1  0  0  0  0
 17 18  1  0  0  0  0
 17 19  1  0  0  0  0
 17 20  1  0  0  0  0
 14 15  1  0  0  0  0
 14 16  1  0  0  0  0
 14 17  1  0  0  0  0
 11 12  1  0  0  0  0
 11 13  1  0  0  0  0
 11 14  1  0  0  0  0
  9 10  1  0  0  0  0
  9 11  1  0  0  0  0
  9 26  1  0  0  0  0
  7  8  1  0  0  0  0
  7  9  1  0  0  0  0
 30 31  1  0  0  0  0
 30 32  1  0  0  0  0
 30 33  1  0  0  0  0
 28 29  1  0  0  0  0
 28 30  1  0  0  0  0
M  END
$$$$
default_name
  -OEChem-02102213163D

 33 32  0     1  0  0  0  0  0999 V2000
   -3.8420   -3.6918    1.5562 H   0  0  0  0  0  0  0  0  0  0  0  0
   -3.8430   -2.7008    1.1032 C   0  0  0  0  0  0  0  0  0  0  0  0
   -4.5510   -2.0608    1.6242 H   0  0  0  0  0  0  0  0  0  0  0  0
   -4.1140   -2.7798    0.0522 H   0  0  0  0  0  0  0  0  0  0  0  0
   -2.4570   -2.1098    1.2172 C   0  0  0  0  0  0  0  0  0  0  0  0
   -1.5600   -2.7438    1.7572 O   0  0  0  0  0  0  0  0  0  0  0  0
   -2.2870   -0.8898    0.7102 N   0  0  0  0  0  0  0  0  0  0  0  0
   -3.0820   -0.4218    0.2992 H   0  0  0  0  0  0  0  0  0  0  0  0
   -1.0240   -0.1468    0.7262 C   0  0  1  0  0  0  0  0  0  0  0  0
   -0.3583   -0.6100    1.4558 H   0  0  0  0  0  0  0  0  0  0  0  0
   -0.3739   -0.2459   -0.6675 C   0  0  0  0  0  0  0  0  0  0  0  0
    0.6872   -0.4697   -0.5403 H   0  0  0  0  0  0  0  0  0  0  0  0
   -0.8314   -1.0677   -1.2201 H   0  0  0  0  0  0  0  0  0  0  0  0
   -0.4962    1.0470   -1.4889 C   0  0  0  0  0  0  0  0  0  0  0  0
   -1.5122    1.4351   -1.4115 H   0  0  0  0  0  0  0  0  0  0  0  0
    0.2009    1.7893   -1.0959 H   0  0  0  0  0  0  0  0  0  0  0  0
   -0.1780    0.7891   -2.9661 C   0  0  0  0  0  0  0  0  0  0  0  0
    0.8336    0.3927   -3.0593 H   0  0  0  0  0  0  0  0  0  0  0  0
   -0.8869    0.0657   -3.3698 H   0  0  0  0  0  0  0  0  0  0  0  0
   -0.2826    2.0933   -3.7542 C   0  0  0  0  0  0  0  0  0  0  0  0
   -1.2970    2.4815   -3.6779 H   0  0  0  0  0  0  0  0  0  0  0  0
    0.4122    2.8228   -3.3411 H   0  0  0  0  0  0  0  0  0  0  0  0
    0.0396    1.8865   -5.1708 N   0  0  0  0  0  0  0  0  0  0  0  0
   -0.0529    2.7633   -5.6624 H   0  0  0  0  0  0  0  0  0  0  0  0
    0.9911    1.5566   -5.2495 H   0  0  0  0  0  0  0  0  0  0  0  0
   -1.2712    1.3099    1.1517 C   0  0  0  0  0  0  0  0  0  0  0  0
   -2.2039    1.9448    0.6639 O   0  0  0  0  0  0  0  0  0  0  0  0
   -0.4306    1.8354    2.0503 N   0  0  0  0  0  0  0  0  0  0  0  0
    0.3001    1.2459    2.4139 H   0  0  0  0  0  0  0  0  0  0  0  0
   -0.5192    3.2082    2.5456 C   0  0  0  0  0  0  0  0  0  0  0  0
   -1.5166    3.3903    2.9518 H   0  0  0  0  0  0  0  0  0  0  0  0
    0.2240    3.3791    3.3257 H   0  0  0  0  0  0  0  0  0  0  0  0
   -0.3477    3.9067    1.7239 H   0  0  0  0  0  0  0  0  0  0  0  0
  5  6  2  0  0  0  0
  5  7  1  0  0  0  0
  2  3  1  0  0  0  0
  2  4  1  0  0  0  0
  2  5  1  0  0  0  0
  1  2  1  0  0  0  0
 26 27  2  0  0  0  0
 26 28  1  0  0  0  0
 23 24  1  0  0  0  0
 23 25  1  0  0  0  0
 20 21  1  0  0  0  0
 20 22  1  0  0  0  0
 20 23  1  0  0  0  0
 17 18  1  0  0  0  0
 17 19  1  0  0  0  0
 17 20  1  0  0  0  0
 14 15  1  0  0  0  0
 14 16  1  0  0  0  0
 14 17  1  0  0  0  0
 11 12  1  0  0  0  0
 11 13  1  0  0  0  0
 11 14  1  0  0  0  0
  9 10  1  0  0  0  0
  9 11  1  0  0  0  0
  9 26  1  0  0  0  0
  7  8  1  0  0  0  0
  7  9  1  0  0  0  0
 30 31  1  0  0  0  0
 30 32  1  0  0  0  0
 30 33  1  0  0  0  0
 28 29  1  0  0  0  0
 28 30  1  0  0  0  0
M  END
$$$$
default_name
  -OEChem-02102213163D

 33 32  0     1  0  0  0  0  0999 V2000
   -3.8420   -3.6918    1.5562 H   0  0  0  0  0  0  0  0  0  0  0  0
   -3.8430   -2.7008    1.1032 C   0  0  0  0  0  0  0  0  0  0  0  0
   -4.5510   -2.0608    1.6242 H   0  0  0  0  0  0  0  0  0  0  0  0
   -4.1140   -2.7798    0.0522 H   0  0  0  0  0  0  0  0  0  0  0  0
   -2.4570   -2.1098    1.2172 C   0  0  0  0  0  0  0  0  0  0  0  0
   -1.5600   -2.7438    1.7572 O   0  0  0  0  0  0  0  0  0  0  0  0
   -2.2870   -0.8898    0.7102 N   0  0  0  0  0  0  0  0  0  0  0  0
   -3.0820   -0.4218    0.2992 H   0  0  0  0  0  0  0  0  0  0  0  0
   -1.0240   -0.1468    0.7262 C   0  0  1  0  0  0  0  0  0  0  0  0
   -0.3583   -0.6100    1.4558 H   0  0  0  0  0  0  0  0  0  0  0  0
   -0.3739   -0.2459   -0.6675 C   0  0  0  0  0  0  0  0  0  0  0  0
    0.6872   -0.4697   -0.5403 H   0  0  0  0  0  0  0  0  0  0  0  0
   -0.8314   -1.0677   -1.2201 H   0  0  0  0  0  0  0  0  0  0  0  0
   -0.4962    1.0470   -1.4889 C   0  0  0  0  0  0  0  0  0  0  0  0
   -1.4080    1.5746   -1.2076 H   0  0  0  0  0  0  0  0  0  0  0  0
    0.3645    1.6859   -1.2829 H   0  0  0  0  0  0  0  0  0  0  0  0
   -0.5476    0.7392   -2.9897 C   0  0  0  0  0  0  0  0  0  0  0  0
    0.3553    0.2040   -3.2852 H   0  0  0  0  0  0  0  0  0  0  0  0
   -1.4196    0.1206   -3.2043 H   0  0  0  0  0  0  0  0  0  0  0  0
   -0.6440    2.0409   -3.7829 C   0  0  0  0  0  0  0  0  0  0  0  0
   -1.5545    2.5683   -3.5030 H   0  0  0  0  0  0  0  0  0  0  0  0
    0.2170    2.6676   -3.5563 H   0  0  0  0  0  0  0  0  0  0  0  0
   -0.6714    1.7834   -5.2273 N   0  0  0  0  0  0  0  0  0  0  0  0
   -0.7493    2.6619   -5.7184 H   0  0  0  0  0  0  0  0  0  0  0  0
    0.1857    1.3225   -5.4980 H   0  0  0  0  0  0  0  0  0  0  0  0
   -1.2712    1.3099    1.1517 C   0  0  0  0  0  0  0  0  0  0  0  0
   -2.2039    1.9448    0.6639 O   0  0  0  0  0  0  0  0  0  0  0  0
   -0.4306    1.8354    2.0503 N   0  0  0  0  0  0  0  0  0  0  0  0
    0.3001    1.2459    2.4139 H   0  0  0  0  0  0  0  0  0  0  0  0
   -0.5192    3.2082    2.5456 C   0  0  0  0  0  0  0  0  0  0  0  0
   -1.5166    3.3903    2.9518 H   0  0  0  0  0  0  0  0  0  0  0  0
    0.2240    3.3791    3.3257 H   0  0  0  0  0  0  0  0  0  0  0  0
   -0.3477    3.9067    1.7239 H   0  0  0  0  0  0  0  0  0  0  0  0
  5  6  2  0  0  0  0
  5  7  1  0  0  0  0
  2  3  1  0  0  0  0
  2  4  1  0  0  0  0
  2  5  1  0  0  0  0
  1  2  1  0  0  0  0
 26 27  2  0  0  0  0
 26 28  1  0  0  0  0
 23 24  1  0  0  0  0
 23 25  1  0  0  0  0
 20 21  1  0  0  0  0
 20 22  1  0  0  0  0
 20 23  1  0  0  0  0
 17 18  1  0  0  0  0
 17 19  1  0  0  0  0
 17 20  1  0  0  0  0
 14 15  1  0  0  0  0
 14 16  1  0  0  0  0
 14 17  1  0  0  0  0
 11 12  1  0  0  0  0
 11 13  1  0  0  0  0
 11 14  1  0  0  0  0
  9 10  1  0  0  0  0
  9 11  1  0  0  0  0
  9 26  1  0  0  0  0
  7  8  1  0  0  0  0
  7  9  1  0  0  0  0
 30 31  1  0  0  0  0
 30 32  1  0  0  0  0
 30 33  1  0  0  0  0
 28 29  1  0  0  0  0
 28 30  1  0  0  0  0
M  END
$$$$
default_name
  -OEChem-02102213163D

 33 32  0     1  0  0  0  0  0999 V2000
   -3.8420   -3.6918    1.5562 H   0  0  0  0  0  0  0  0  0  0  0  0
   -3.8430   -2.7008    1.1032 C   0  0  0  0  0  0  0  0  0  0  0  0
   -4.5510   -2.0608    1.6242 H   0  0  0  0  0  0  0  0  0  0  0  0
   -4.1140   -2.7798    0.0522 H   0  0  0  0  0  0  0  0  0  0  0  0
   -2.4570   -2.1098    1.2172 C   0  0  0  0  0  0  0  0  0  0  0  0
   -1.5600   -2.7438    1.7572 O   0  0  0  0  0  0  0  0  0  0  0  0
   -2.2870   -0.8898    0.7102 N   0  0  0  0  0  0  0  0  0  0  0  0
   -3.0820   -0.4218    0.2992 H   0  0  0  0  0  0  0  0  0  0  0  0
   -1.0240   -0.1468    0.7262 C   0  0  1  0  0  0  0  0  0  0  0  0
   -0.3583   -0.6100    1.4558 H   0  0  0  0  0  0  0  0  0  0  0  0
   -0.3739   -0.2459   -0.6675 C   0  0  0  0  0  0  0  0  0  0  0  0
    0.6872   -0.4697   -0.5403 H   0  0  0  0  0  0  0  0  0  0  0  0
   -0.8314   -1.0677   -1.2201 H   0  0  0  0  0  0  0  0  0  0  0  0
   -0.4962    1.0470   -1.4889 C   0  0  0  0  0  0  0  0  0  0  0  0
   -1.2437    1.6990   -1.0362 H   0  0  0  0  0  0  0  0  0  0  0  0
    0.4674    1.5596   -1.4971 H   0  0  0  0  0  0  0  0  0  0  0  0
   -0.9168    0.7415   -2.9310 C   0  0  0  0  0  0  0  0  0  0  0  0
   -0.1820    0.0831   -3.3954 H   0  0  0  0  0  0  0  0  0  0  0  0
   -1.8904    0.2506   -2.9295 H   0  0  0  0  0  0  0  0  0  0  0  0
   -1.0066    2.0398   -3.7308 C   0  0  0  0  0  0  0  0  0  0  0  0
   -1.7532    2.6914   -3.2797 H   0  0  0  0  0  0  0  0  0  0  0  0
   -0.0398    2.5403   -3.7185 H   0  0  0  0  0  0  0  0  0  0  0  0
   -1.3848    1.7810   -5.1249 N   0  0  0  0  0  0  0  0  0  0  0  0
   -1.4481    2.6591   -5.6187 H   0  0  0  0  0  0  0  0  0  0  0  0
   -0.6787    1.2028   -5.5578 H   0  0  0  0  0  0  0  0  0  0  0  0
   -1.2712    1.3099    1.1517 C   0  0  0  0  0  0  0  0  0  0  0  0
   -2.2039    1.9448    0.6639 O   0  0  0  0  0  0  0  0  0  0  0  0
   -0.4306    1.8354    2.0503 N   0  0  0  0  0  0  0  0  0  0  0  0
    0.3001    1.2459    2.4139 H   0  0  0  0  0  0  0  0  0  0  0  0
   -0.5192    3.2082    2.5456 C   0  0  0  0  0  0  0  0  0  0  0  0
   -1.5166    3.3903    2.9518 H   0  0  0  0  0  0  0  0  0  0  0  0
    0.2240    3.3791    3.3257 H   0  0  0  0  0  0  0  0  0  0  0  0
   -0.3477    3.9067    1.7239 H   0  0  0  0  0  0  0  0  0  0  0  0
  5  6  2  0  0  0  0
  5  7  1  0  0  0  0
  2  3  1  0  0  0  0
  2  4  1  0  0  0  0
  2  5  1  0  0  0  0
  1  2  1  0  0  0  0
 26 27  2  0  0  0  0
 26 28  1  0  0  0  0
 23 24  1  0  0  0  0
 23 25  1  0  0  0  0
 20 21  1  0  0  0  0
 20 22  1  0  0  0  0
 20 23  1  0  0  0  0
 17 18  1  0  0  0  0
 17 19  1  0  0  0  0
 17 20  1  0  0  0  0
 14 15  1  0  0  0  0
 14 16  1  0  0  0  0
 14 17  1  0  0  0  0
 11 12  1  0  0  0  0
 11 13  1  0  0  0  0
 11 14  1  0  0  0  0
  9 10  1  0  0  0  0
  9 11  1  0  0  0  0
  9 26  1  0  0  0  0
  7  8  1  0  0  0  0
  7  9  1  0  0  0  0
 30 31  1  0  0  0  0
 30 32  1  0  0  0  0
 30 33  1  0  0  0  0
 28 29  1  0  0  0  0
 28 30  1  0  0  0  0
M  END
$$$$
default_name
  -OEChem-02102213163D

 33 32  0     1  0  0  0  0  0999 V2000
   -3.8420   -3.6918    1.5562 H   0  0  0  0  0  0  0  0  0  0  0  0
   -3.8430   -2.7008    1.1032 C   0  0  0  0  0  0  0  0  0  0  0  0
   -4.5510   -2.0608    1.6242 H   0  0  0  0  0  0  0  0  0  0  0  0
   -4.1140   -2.7798    0.0522 H   0  0  0  0  0  0  0  0  0  0  0  0
   -2.4570   -2.1098    1.2172 C   0  0  0  0  0  0  0  0  0  0  0  0
   -1.5600   -2.7438    1.7572 O   0  0  0  0  0  0  0  0  0  0  0  0
   -2.2870   -0.8898    0.7102 N   0  0  0  0  0  0  0  0  0  0  0  0
   -3.0820   -0.4218    0.2992 H   0  0  0  0  0  0  0  0  0  0  0  0
   -1.0240   -0.1468    0.7262 C   0  0  1  0  0  0  0  0  0  0  0  0
   -0.3583   -0.6100    1.4558 H   0  0  0  0  0  0  0  0  0  0  0  0
   -0.3739   -0.2459   -0.6675 C   0  0  0  0  0  0  0  0  0  0  0  0
    0.6872   -0.4697   -0.5403 H   0  0  0  0  0  0  0  0  0  0  0  0
   -0.8314   -1.0677   -1.2201 H   0  0  0  0  0  0  0  0  0  0  0  0
   -0.4962    1.0470   -1.4889 C   0  0  0  0  0  0  0  0  0  0  0  0
   -1.0304    1.8000   -0.9089 H   0  0  0  0  0  0  0  0  0  0  0  0
    0.5028    1.4190   -1.7237 H   0  0  0  0  0  0  0  0  0  0  0  0
   -1.2602    0.7961   -2.7940 C   0  0  0  0  0  0  0  0  0  0  0  0
   -0.7417    0.0385   -3.3823 H   0  0  0  0  0  0  0  0  0  0  0  0
   -2.2673    0.4470   -2.5643 H   0  0  0  0  0  0  0  0  0  0  0  0
   -1.3457    2.0898   -3.6015 C   0  0  0  0  0  0  0  0  0  0  0  0
   -1.8794    2.8423   -3.0233 H   0  0  0  0  0  0  0  0  0  0  0  0
   -0.3408    2.4495   -3.8166 H   0  0  0  0  0  0  0  0  0  0  0  0
   -2.0518    1.8795   -4.8705 N   0  0  0  0  0  0  0  0  0  0  0  0
   -2.1018    2.7552   -5.3702 H   0  0  0  0  0  0  0  0  0  0  0  0
   -1.5433    1.2054   -5.4249 H   0  0  0  0  0  0  0  0  0  0  0  0
   -1.2712    1.3099    1.1517 C   0  0  0  0  0  0  0  0  0  0  0  0
   -2.2039    1.9448    0.6639 O   0  0  0  0  0  0  0  0  0  0  0  0
   -0.4306    1.8354    2.0503 N   0  0  0  0  0  0  0  0  0  0  0  0
    0.3001    1.2459    2.4139 H   0  0  0  0  0  0  0  0  0  0  0  0
   -0.5192    3.2082    2.5456 C   0  0  0  0  0  0  0  0  0  0  0  0
   -1.5166    3.3903    2.9518 H   0  0  0  0  0  0  0  0  0  0  0  0
    0.2240    3.3791    3.3257 H   0  0  0  0  0  0  0  0  0  0  0  0
   -0.3477    3.9067    1.7239 H   0  0  0  0  0  0  0  0  0  0  0  0
  5  6  2  0  0  0  0
  5  7  1  0  0  0  0
  2  3  1  0  0  0  0
  2  4  1  0  0  0  0
  2  5  1  0  0  0  0
  1  2  1  0  0  0  0
 26 27  2  0  0  0  0
 26 28  1  0  0  0  0
 23 24  1  0  0  0  0
 23 25  1  0  0  0  0
 20 21  1  0  0  0  0
 20 22  1  0  0  0  0
 20 23  1  0  0  0  0
 17 18  1  0  0  0  0
 17 19  1  0  0  0  0
 17 20  1  0  0  0  0
 14 15  1  0  0  0  0
 14 16  1  0  0  0  0
 14 17  1  0  0  0  0
 11 12  1  0  0  0  0
 11 13  1  0  0  0  0
 11 14  1  0  0  0  0
  9 10  1  0  0  0  0
  9 11  1  0  0  0  0
  9 26  1  0  0  0  0
  7  8  1  0  0  0  0
  7  9  1  0  0  0  0
 30 31  1  0  0  0  0
 30 32  1  0  0  0  0
 30 33  1  0  0  0  0
 28 29  1  0  0  0  0
 28 30  1  0  0  0  0
M  END
$$$$
default_name
  -OEChem-02102213163D

 33 32  0     1  0  0  0  0  0999 V2000
   -3.8420   -3.6918    1.5562 H   0  0  0  0  0  0  0  0  0  0  0  0
   -3.8430   -2.7008    1.1032 C   0  0  0  0  0  0  0  0  0  0  0  0
   -4.5510   -2.0608    1.6242 H   0  0  0  0  0  0  0  0  0  0  0  0
   -4.1140   -2.7798    0.0522 H   0  0  0  0  0  0  0  0  0  0  0  0
   -2.4570   -2.1098    1.2172 C   0  0  0  0  0  0  0  0  0  0  0  0
   -1.5600   -2.7438    1.7572 O   0  0  0  0  0  0  0  0  0  0  0  0
   -2.2870   -0.8898    0.7102 N   0  0  0  0  0  0  0  0  0  0  0  0
   -3.0820   -0.4218    0.2992 H   0  0  0  0  0  0  0  0  0  0  0  0
   -1.0240   -0.1468    0.7262 C   0  0  1  0  0  0  0  0  0  0  0  0
   -0.3583   -0.6100    1.4558 H   0  0  0  0  0  0  0  0  0  0  0  0
   -0.3739   -0.2459   -0.6675 C   0  0  0  0  0  0  0  0  0  0  0  0
    0.6872   -0.4697   -0.5403 H   0  0  0  0  0  0  0  0  0  0  0  0
   -0.8314   -1.0677   -1.2201 H   0  0  0  0  0  0  0  0  0  0  0  0
   -0.4962    1.0470   -1.4889 C   0  0  0  0  0  0  0  0  0  0  0  0
   -0.7827    1.8707   -0.8345 H   0  0  0  0  0  0  0  0  0  0  0  0
    0.4681    1.2735   -1.9475 H   0  0  0  0  0  0  0  0  0  0  0  0
   -1.5546    0.8992   -2.5879 C   0  0  0  0  0  0  0  0  0  0  0  0
   -1.2857    0.0731   -3.2469 H   0  0  0  0  0  0  0  0  0  0  0  0
   -2.5247    0.6964   -2.1334 H   0  0  0  0  0  0  0  0  0  0  0  0
   -1.6381    2.1878   -3.4038 C   0  0  0  0  0  0  0  0  0  0  0  0
   -1.9246    3.0109   -2.7512 H   0  0  0  0  0  0  0  0  0  0  0  0
   -0.6655    2.4014   -3.8439 H   0  0  0  0  0  0  0  0  0  0  0  0
   -2.6272    2.0722   -4.4816 N   0  0  0  0  0  0  0  0  0  0  0  0
   -2.6658    2.9435   -4.9898 H   0  0  0  0  0  0  0  0  0  0  0  0
   -2.3491    1.3304   -5.1083 H   0  0  0  0  0  0  0  0  0  0  0  0
   -1.2712    1.3099    1.1517 C   0  0  0  0  0  0  0  0  0  0  0  0
   -2.2039    1.9448    0.6639 O   0  0  0  0  0  0  0  0  0  0  0  0
   -0.4306    1.8354    2.0503 N   0  0  0  0  0  0  0  0  0  0  0  0
    0.3001    1.2459    2.4139 H   0  0  0  0  0  0  0  0  0  0  0  0
   -0.5192    3.2082    2.5456 C   0  0  0  0  0  0  0  0  0  0  0  0
   -1.5166    3.3903    2.9518 H   0  0  0  0  0  0  0  0  0  0  0  0
    0.2240    3.3791    3.3257 H   0  0  0  0  0  0  0  0  0  0  0  0
   -0.3477    3.9067    1.7239 H   0  0  0  0  0  0  0  0  0  0  0  0
  5  6  2  0  0  0  0
  5  7  1  0  0  0  0
  2  3  1  0  0  0  0
  2  4  1  0  0  0  0
  2  5  1  0  0  0  0
  1  2  1  0  0  0  0
 26 27  2  0  0  0  0
 26 28  1  0  0  0  0
 23 24  1  0  0  0  0
 23 25  1  0  0  0  0
 20 21  1  0  0  0  0
 20 22  1  0  0  0  0
 20 23  1  0  0  0  0
 17 18  1  0  0  0  0
 17 19  1  0  0  0  0
 17 20  1  0  0  0  0
 14 15  1  0  0  0  0
 14 16  1  0  0  0  0
 14 17  1  0  0  0  0
 11 12  1  0  0  0  0
 11 13  1  0  0  0  0
 11 14  1  0  0  0  0
  9 10  1  0  0  0  0
  9 11  1  0  0  0  0
  9 26  1  0  0  0  0
  7  8  1  0  0  0  0
  7  9  1  0  0  0  0
 30 31  1  0  0  0  0
 30 32  1  0  0  0  0
 30 33  1  0  0  0  0
 28 29  1  0  0  0  0
 28 30  1  0  0  0  0
M  END
$$$$
default_name
  -OEChem-02102213163D

 33 32  0     1  0  0  0  0  0999 V2000
   -3.8420   -3.6918    1.5562 H   0  0  0  0  0  0  0  0  0  0  0  0
   -3.8430   -2.7008    1.1032 C   0  0  0  0  0  0  0  0  0  0  0  0
   -4.5510   -2.0608    1.6242 H   0  0  0  0  0  0  0  0  0  0  0  0
   -4.1140   -2.7798    0.0522 H   0  0  0  0  0  0  0  0  0  0  0  0
   -2.4570   -2.1098    1.2172 C   0  0  0  0  0  0  0  0  0  0  0  0
   -1.5600   -2.7438    1.7572 O   0  0  0  0  0  0  0  0  0  0  0  0
   -2.2870   -0.8898    0.7102 N   0  0  0  0  0  0  0  0  0  0  0  0
   -3.0820   -0.4218    0.2992 H   0  0  0  0  0  0  0  0  0  0  0  0
   -1.0240   -0.1468    0.7262 C   0  0  1  0  0  0  0  0  0  0  0  0
   -0.3583   -0.6100    1.4558 H   0  0  0  0  0  0  0  0  0  0  0  0
   -0.3739   -0.2459   -0.6675 C   0  0  0  0  0  0  0  0  0  0  0  0
    0.6872   -0.4697   -0.5403 H   0  0  0  0  0  0  0  0  0  0  0  0
   -0.8314   -1.0677   -1.2201 H   0  0  0  0  0  0  0  0  0  0  0  0
   -0.4962    1.0470   -1.4889 C   0  0  0  0  0  0  0  0  0  0  0  0
   -0.5174    1.9063   -0.8181 H   0  0  0  0  0  0  0  0  0  0  0  0
    0.3658    1.1332   -2.1530 H   0  0  0  0  0  0  0  0  0  0  0  0
   -1.7797    1.0437   -2.3269 C   0  0  0  0  0  0  0  0  0  0  0  0
   -1.7769    0.1845   -2.9984 H   0  0  0  0  0  0  0  0  0  0  0  0
   -2.6450    0.9818   -1.6663 H   0  0  0  0  0  0  0  0  0  0  0  0
   -1.8640    2.3269   -3.1512 C   0  0  0  0  0  0  0  0  0  0  0  0
   -1.8857    3.1856   -2.4820 H   0  0  0  0  0  0  0  0  0  0  0  0
   -0.9917    2.3993   -3.7986 H   0  0  0  0  0  0  0  0  0  0  0  0
   -3.0716    2.3459   -3.9847 N   0  0  0  0  0  0  0  0  0  0  0  0
   -3.1017    3.2113   -4.5034 H   0  0  0  0  0  0  0  0  0  0  0  0
   -3.0412    1.5691   -4.6296 H   0  0  0  0  0  0  0  0  0  0  0  0
   -1.2712    1.3099    1.1517 C   0  0  0  0  0  0  0  0  0  0  0  0
   -2.2039    1.9448    0.6639 O   0  0  0  0  0  0  0  0  0  0  0  0
   -0.4306    1.8354    2.0503 N   0  0  0  0  0  0  0  0  0  0  0  0
    0.3001    1.2459    2.4139 H   0  0  0  0  0  0  0  0  0  0  0  0
   -0.5192    3.2082    2.5456 C   0  0  0  0  0  0  0  0  0  0  0  0
   -1.5166    3.3903    2.9518 H   0  0  0  0  0  0  0  0  0  0  0  0
    0.2240    3.3791    3.3257 H   0  0  0  0  0  0  0  0  0  0  0  0
   -0.3477    3.9067    1.7239 H   0  0  0  0  0  0  0  0  0  0  0  0
  5  6  2  0  0  0  0
  5  7  1  0  0  0  0
  2  3  1  0  0  0  0
  2  4  1  0  0  0  0
  2  5  1  0  0  0  0
  1  2  1  0  0  0  0
 26 27  2  0  0  0  0
 26 28  1  0  0  0  0
 23 24  1  0  0  0  0
 23 25  1  0  0  0  0
 20 21  1  0  0  0  0
 20 22  1  0  0  0  0
 20 23  1  0  0  0  0
 17 18  1  0  0  0  0
 17 19  1  0  0  0  0
 17 20  1  0  0  0  0
 14 15  1  0  0  0  0
 14 16  1  0  0  0  0
 14 17  1  0  0  0  0
 11 12  1  0  0  0  0
 11 13  1  0  0  0  0
 11 14  1  0  0  0  0
  9 10  1  0  0  0  0
  9 11  1  0  0  0  0
  9 26  1  0  0  0  0
  7  8  1  0  0  0  0
  7  9  1  0  0  0  0
 30 31  1  0  0  0  0
 30 32  1  0  0  0  0
 30 33  1  0  0  0  0
 28 29  1  0  0  0  0
 28 30  1  0  0  0  0
M  END
$$$$
default_name
  -OEChem-02102213163D

 33 32  0     1  0  0  0  0  0999 V2000
   -3.8420   -3.6918    1.5562 H   0  0  0  0  0  0  0  0  0  0  0  0
   -3.8430   -2.7008    1.1032 C   0  0  0  0  0  0  0  0  0  0  0  0
   -4.5510   -2.0608    1.6242 H   0  0  0  0  0  0  0  0  0  0  0  0
   -4.1140   -2.7798    0.0522 H   0  0  0  0  0  0  0  0  0  0  0  0
   -2.4570   -2.1098    1.2172 C   0  0  0  0  0  0  0  0  0  0  0  0
   -1.5600   -2.7438    1.7572 O   0  0  0  0  0  0  0  0  0  0  0  0
   -2.2870   -0.8898    0.7102 N   0  0  0  0  0  0  0  0  0  0  0  0
   -3.0820   -0.4218    0.2992 H   0  0  0  0  0  0  0  0  0  0  0  0
   -1.0240   -0.1468    0.7262 C   0  0  1  0  0  0  0  0  0  0  0  0
   -0.3583   -0.6100    1.4558 H   0  0  0  0  0  0  0  0  0  0  0  0
   -0.3739   -0.2459   -0.6675 C   0  0  0  0  0  0  0  0  0  0  0  0
    0.6872   -0.4697   -0.5403 H   0  0  0  0  0  0  0  0  0  0  0  0
   -0.8314   -1.0677   -1.2201 H   0  0  0  0  0  0  0  0  0  0  0  0
   -0.4962    1.0470   -1.4889 C   0  0  0  0  0  0  0  0  0  0  0  0
   -0.2527    1.9042   -0.8607 H   0  0  0  0  0  0  0  0  0  0  0  0
    0.2027    1.0076   -2.3264 H   0  0  0  0  0  0  0  0  0  0  0  0
   -1.9204    1.2199   -2.0288 C   0  0  0  0  0  0  0  0  0  0  0  0
   -2.1818    0.3653   -2.6536 H   0  0  0  0  0  0  0  0  0  0  0  0
   -2.6201    1.2837   -1.1949 H   0  0  0  0  0  0  0  0  0  0  0  0
   -2.0079    2.4978   -2.8608 C   0  0  0  0  0  0  0  0  0  0  0  0
   -1.7654    3.3545   -2.2341 H   0  0  0  0  0  0  0  0  0  0  0  0
   -1.2972    2.4433   -3.6838 H   0  0  0  0  0  0  0  0  0  0  0  0
   -3.3547    2.6820   -3.4135 N   0  0  0  0  0  0  0  0  0  0  0  0
   -3.3798    3.5403   -3.9442 H   0  0  0  0  0  0  0  0  0  0  0  0
   -3.5725    1.9052   -4.0214 H   0  0  0  0  0  0  0  0  0  0  0  0
   -1.2712    1.3099    1.1517 C   0  0  0  0  0  0  0  0  0  0  0  0
   -2.2039    1.9448    0.6639 O   0  0  0  0  0  0  0  0  0  0  0  0
   -0.4306    1.8354    2.0503 N   0  0  0  0  0  0  0  0  0  0  0  0
    0.3001    1.2459    2.4139 H   0  0  0  0  0  0  0  0  0  0  0  0
   -0.5192    3.2082    2.5456 C   0  0  0  0  0  0  0  0  0  0  0  0
   -1.5166    3.3903    2.9518 H   0  0  0  0  0  0  0  0  0  0  0  0
    0.2240    3.3791    3.3257 H   0  0  0  0  0  0  0  0  0  0  0  0
   -0.3477    3.9067    1.7239 H   0  0  0  0  0  0  0  0  0  0  0  0
  5  6  2  0  0  0  0
  5  7  1  0  0  0  0
  2  3  1  0  0  0  0
  2  4  1  0  0  0  0
  2  5  1  0  0  0  0
  1  2  1  0  0  0  0
 26 27  2  0  0  0  0
 26 28  1  0  0  0  0
 23 24  1  0  0  0  0
 23 25  1  0  0  0  0
 20 21  1  0  0  0  0
 20 22  1  0  0  0  0
 20 23  1  0  0  0  0
 17 18  1  0  0  0  0
 17 19  1  0  0  0  0
 17 20  1  0  0  0  0
 14 15  1  0  0  0  0
 14 16  1  0  0  0  0
 14 17  1  0  0  0  0
 11 12  1  0  0  0  0
 11 13  1  0  0  0  0
 11 14  1  0  0  0  0
  9 10  1  0  0  0  0
  9 11  1  0  0  0  0
  9 26  1  0  0  0  0
  7  8  1  0  0  0  0
  7  9  1  0  0  0  0
 30 31  1  0  0  0  0
 30 32  1  0  0  0  0
 30 33  1  0  0  0  0
 28 29  1  0  0  0  0
 28 30  1  0  0  0  0
M  END
$$$$
default_name
  -OEChem-02102213163D

 33 32  0     1  0  0  0  0  0999 V2000
   -3.8420   -3.6918    1.5562 H   0  0  0  0  0  0  0  0  0  0  0  0
   -3.8430   -2.7008    1.1032 C   0  0  0  0  0  0  0  0  0  0  0  0
   -4.5510   -2.0608    1.6242 H   0  0  0  0  0  0  0  0  0  0  0  0
   -4.1140   -2.7798    0.0522 H   0  0  0  0  0  0  0  0  0  0  0  0
   -2.4570   -2.1098    1.2172 C   0  0  0  0  0  0  0  0  0  0  0  0
   -1.5600   -2.7438    1.7572 O   0  0  0  0  0  0  0  0  0  0  0  0
   -2.2870   -0.8898    0.7102 N   0  0  0  0  0  0  0  0  0  0  0  0
   -3.0820   -0.4218    0.2992 H   0  0  0  0  0  0  0  0  0  0  0  0
   -1.0240   -0.1468    0.7262 C   0  0  1  0  0  0  0  0  0  0  0  0
   -0.3583   -0.6100    1.4558 H   0  0  0  0  0  0  0  0  0  0  0  0
   -0.3739   -0.2459   -0.6675 C   0  0  0  0  0  0  0  0  0  0  0  0
    0.6872   -0.4697   -0.5403 H   0  0  0  0  0  0  0  0  0  0  0  0
   -0.8314   -1.0677   -1.2201 H   0  0  0  0  0  0  0  0  0  0  0  0
   -0.4962    1.0470   -1.4889 C   0  0  0  0  0  0  0  0  0  0  0  0
   -0.0066    1.8648   -0.9594 H   0  0  0  0  0  0  0  0  0  0  0  0
   -0.0099    0.9053   -2.4558 H   0  0  0  0  0  0  0  0  0  0  0  0
   -1.9670    1.4156   -1.7138 C   0  0  0  0  0  0  0  0  0  0  0  0
   -2.4728    0.6030   -2.2362 H   0  0  0  0  0  0  0  0  0  0  0  0
   -2.4515    1.5816   -0.7511 H   0  0  0  0  0  0  0  0  0  0  0  0
   -2.0600    2.6887   -2.5525 C   0  0  0  0  0  0  0  0  0  0  0  0
   -1.5717    3.5061   -2.0243 H   0  0  0  0  0  0  0  0  0  0  0  0
   -1.5612    2.5305   -3.5073 H   0  0  0  0  0  0  0  0  0  0  0  0
   -3.4573    3.0576   -2.8071 N   0  0  0  0  0  0  0  0  0  0  0  0
   -3.4811    3.9081   -3.3502 H   0  0  0  0  0  0  0  0  0  0  0  0
   -3.9067    2.3160   -3.3252 H   0  0  0  0  0  0  0  0  0  0  0  0
   -1.2712    1.3099    1.1517 C   0  0  0  0  0  0  0  0  0  0  0  0
   -2.2039    1.9448    0.6639 O   0  0  0  0  0  0  0  0  0  0  0  0
   -0.4306    1.8354    2.0503 N   0  0  0  0  0  0  0  0  0  0  0  0
    0.3001    1.2459    2.4139 H   0  0  0  0  0  0  0  0  0  0  0  0
   -0.5192    3.2082    2.5456 C   0  0  0  0  0  0  0  0  0  0  0  0
   -1.5166    3.3903    2.9518 H   0  0  0  0  0  0  0  0  0  0  0  0
    0.2240    3.3791    3.3257 H   0  0  0  0  0  0  0  0  0  0  0  0
   -0.3477    3.9067    1.7239 H   0  0  0  0  0  0  0  0  0  0  0  0
  5  6  2  0  0  0  0
  5  7  1  0  0  0  0
  2  3  1  0  0  0  0
  2  4  1  0  0  0  0
  2  5  1  0  0  0  0
  1  2  1  0  0  0  0
 26 27  2  0  0  0  0
 26 28  1  0  0  0  0
 23 24  1  0  0  0  0
 23 25  1  0  0  0  0
 20 21  1  0  0  0  0
 20 22  1  0  0  0  0
 20 23  1  0  0  0  0
 17 18  1  0  0  0  0
 17 19  1  0  0  0  0
 17 20  1  0  0  0  0
 14 15  1  0  0  0  0
 14 16  1  0  0  0  0
 14 17  1  0  0  0  0
 11 12  1  0  0  0  0
 11 13  1  0  0  0  0
 11 14  1  0  0  0  0
  9 10  1  0  0  0  0
  9 11  1  0  0  0  0
  9 26  1  0  0  0  0
  7  8  1  0  0  0  0
  7  9  1  0  0  0  0
 30 31  1  0  0  0  0
 30 32  1  0  0  0  0
 30 33  1  0  0  0  0
 28 29  1  0  0  0  0
 28 30  1  0  0  0  0
M  END
$$$$
default_name
  -OEChem-02102213163D

 33 32  0     1  0  0  0  0  0999 V2000
   -3.8420   -3.6918    1.5562 H   0  0  0  0  0  0  0  0  0  0  0  0
   -3.8430   -2.7008    1.1032 C   0  0  0  0  0  0  0  0  0  0  0  0
   -4.5510   -2.0608    1.6242 H   0  0  0  0  0  0  0  0  0  0  0  0
   -4.1140   -2.7798    0.0522 H   0  0  0  0  0  0  0  0  0  0  0  0
   -2.4570   -2.1098    1.2172 C   0  0  0  0  0  0  0  0  0  0  0  0
   -1.5600   -2.7438    1.7572 O   0  0  0  0  0  0  0  0  0  0  0  0
   -2.2870   -0.8898    0.7102 N   0  0  0  0  0  0  0  0  0  0  0  0
   -3.0820   -0.4218    0.2992 H   0  0  0  0  0  0  0  0  0  0  0  0
   -1.0240   -0.1468    0.7262 C   0  0  1  0  0  0  0  0  0  0  0  0
   -0.3583   -0.6100    1.4558 H   0  0  0  0  0  0  0  0  0  0  0  0
   -0.3739   -0.2459   -0.6675 C   0  0  0  0  0  0  0  0  0  0  0  0
    0.6872   -0.4697   -0.5403 H   0  0  0  0  0  0  0  0  0  0  0  0
   -0.8314   -1.0677   -1.2201 H   0  0  0  0  0  0  0  0  0  0  0  0
   -0.4962    1.0470   -1.4889 C   0  0  0  0  0  0  0  0  0  0  0  0
    0.2042    1.7906   -1.1076 H   0  0  0  0  0  0  0  0  0  0  0  0
   -0.2576    0.8332   -2.5324 H   0  0  0  0  0  0  0  0  0  0  0  0
   -1.9164    1.6176   -1.4034 C   0  0  0  0  0  0  0  0  0  0  0  0
   -2.6301    0.8814   -1.7745 H   0  0  0  0  0  0  0  0  0  0  0  0
   -2.1508    1.8551   -0.3653 H   0  0  0  0  0  0  0  0  0  0  0  0
   -2.0168    2.8867   -2.2474 C   0  0  0  0  0  0  0  0  0  0  0  0
   -1.3181    3.6301   -1.8670 H   0  0  0  0  0  0  0  0  0  0  0  0
   -1.7657    2.6549   -3.2811 H   0  0  0  0  0  0  0  0  0  0  0  0
   -3.3724    3.4471   -2.2067 N   0  0  0  0  0  0  0  0  0  0  0  0
   -3.3988    4.2896   -2.7620 H   0  0  0  0  0  0  0  0  0  0  0  0
   -4.0211    2.7733   -2.5883 H   0  0  0  0  0  0  0  0  0  0  0  0
   -1.2712    1.3099    1.1517 C   0  0  0  0  0  0  0  0  0  0  0  0
   -2.2039    1.9448    0.6639 O   0  0  0  0  0  0  0  0  0  0  0  0
   -0.4306    1.8354    2.0503 N   0  0  0  0  0  0  0  0  0  0  0  0
    0.3001    1.2459    2.4139 H   0  0  0  0  0  0  0  0  0  0  0  0
   -0.5192    3.2082    2.5456 C   0  0  0  0  0  0  0  0  0  0  0  0
   -1.5166    3.3903    2.9518 H   0  0  0  0  0  0  0  0  0  0  0  0
    0.2240    3.3791    3.3257 H   0  0  0  0  0  0  0  0  0  0  0  0
   -0.3477    3.9067    1.7239 H   0  0  0  0  0  0  0  0  0  0  0  0
  5  6  2  0  0  0  0
  5  7  1  0  0  0  0
  2  3  1  0  0  0  0
  2  4  1  0  0  0  0
  2  5  1  0  0  0  0
  1  2  1  0  0  0  0
 26 27  2  0  0  0  0
 26 28  1  0  0  0  0
 23 24  1  0  0  0  0
 23 25  1  0  0  0  0
 20 21  1  0  0  0  0
 20 22  1  0  0  0  0
 20 23  1  0  0  0  0
 17 18  1  0  0  0  0
 17 19  1  0  0  0  0
 17 20  1  0  0  0  0
 14 15  1  0  0  0  0
 14 16  1  0  0  0  0
 14 17  1  0  0  0  0
 11 12  1  0  0  0  0
 11 13  1  0  0  0  0
 11 14  1  0  0  0  0
  9 10  1  0  0  0  0
  9 11  1  0  0  0  0
  9 26  1  0  0  0  0
  7  8  1  0  0  0  0
  7  9  1  0  0  0  0
 30 31  1  0  0  0  0
 30 32  1  0  0  0  0
 30 33  1  0  0  0  0
 28 29  1  0  0  0  0
 28 30  1  0  0  0  0
M  END
$$$$
default_name
  -OEChem-02102213163D

 33 32  0     1  0  0  0  0  0999 V2000
   -3.8420   -3.6918    1.5562 H   0  0  0  0  0  0  0  0  0  0  0  0
   -3.8430   -2.7008    1.1032 C   0  0  0  0  0  0  0  0  0  0  0  0
   -4.5510   -2.0608    1.6242 H   0  0  0  0  0  0  0  0  0  0  0  0
   -4.1140   -2.7798    0.0522 H   0  0  0  0  0  0  0  0  0  0  0  0
   -2.4570   -2.1098    1.2172 C   0  0  0  0  0  0  0  0  0  0  0  0
   -1.5600   -2.7438    1.7572 O   0  0  0  0  0  0  0  0  0  0  0  0
   -2.2870   -0.8898    0.7102 N   0  0  0  0  0  0  0  0  0  0  0  0
   -3.0820   -0.4218    0.2992 H   0  0  0  0  0  0  0  0  0  0  0  0
   -1.0240   -0.1468    0.7262 C   0  0  1  0  0  0  0  0  0  0  0  0
   -0.3583   -0.6100    1.4558 H   0  0  0  0  0  0  0  0  0  0  0  0
   -0.3739   -0.2459   -0.6675 C   0  0  0  0  0  0  0  0  0  0  0  0
    0.6872   -0.4697   -0.5403 H   0  0  0  0  0  0  0  0  0  0  0  0
   -0.8314   -1.0677   -1.2201 H   0  0  0  0  0  0  0  0  0  0  0  0
   -0.4962    1.0470   -1.4889 C   0  0  0  0  0  0  0  0  0  0  0  0
    0.3652    1.6867   -1.2951 H   0  0  0  0  0  0  0  0  0  0  0  0
   -0.5235    0.7963   -2.5510 H   0  0  0  0  0  0  0  0  0  0  0  0
   -1.7719    1.8121   -1.1187 C   0  0  0  0  0  0  0  0  0  0  0  0
   -2.6429    1.1817   -1.3000 H   0  0  0  0  0  0  0  0  0  0  0  0
   -1.7385    2.0857   -0.0638 H   0  0  0  0  0  0  0  0  0  0  0  0
   -1.8813    3.0783   -1.9661 C   0  0  0  0  0  0  0  0  0  0  0  0
   -1.0216    3.7180   -1.7728 H   0  0  0  0  0  0  0  0  0  0  0  0
   -1.8968    2.8080   -3.0206 H   0  0  0  0  0  0  0  0  0  0  0  0
   -3.1058    3.8239   -1.6532 N   0  0  0  0  0  0  0  0  0  0  0  0
   -3.1383    4.6589   -2.2196 H   0  0  0  0  0  0  0  0  0  0  0  0
   -3.9078    3.2461   -1.8611 H   0  0  0  0  0  0  0  0  0  0  0  0
   -1.2712    1.3099    1.1517 C   0  0  0  0  0  0  0  0  0  0  0  0
   -2.2039    1.9448    0.6639 O   0  0  0  0  0  0  0  0  0  0  0  0
   -0.4306    1.8354    2.0503 N   0  0  0  0  0  0  0  0  0  0  0  0
    0.3001    1.2459    2.4139 H   0  0  0  0  0  0  0  0  0  0  0  0
   -0.5192    3.2082    2.5456 C   0  0  0  0  0  0  0  0  0  0  0  0
   -1.5166    3.3903    2.9518 H   0  0  0  0  0  0  0  0  0  0  0  0
    0.2240    3.3791    3.3257 H   0  0  0  0  0  0  0  0  0  0  0  0
   -0.3477    3.9067    1.7239 H   0  0  0  0  0  0  0  0  0  0  0  0
  5  6  2  0  0  0  0
  5  7  1  0  0  0  0
  2  3  1  0  0  0  0
  2  4  1  0  0  0  0
  2  5  1  0  0  0  0
  1  2  1  0  0  0  0
 26 27  2  0  0  0  0
 26 28  1  0  0  0  0
 23 24  1  0  0  0  0
 23 25  1  0  0  0  0
 20 21  1  0  0  0  0
 20 22  1  0  0  0  0
 20 23  1  0  0  0  0
 17 18  1  0  0  0  0
 17 19  1  0  0  0  0
 17 20  1  0  0  0  0
 14 15  1  0  0  0  0
 14 16  1  0  0  0  0
 14 17  1  0  0  0  0
 11 12  1  0  0  0  0
 11 13  1  0  0  0  0
 11 14  1  0  0  0  0
  9 10  1  0  0  0  0
  9 11  1  0  0  0  0
  9 26  1  0  0  0  0
  7  8  1  0  0  0  0
  7  9  1  0  0  0  0
 30 31  1  0  0  0  0
 30 32  1  0  0  0  0
 30 33  1  0  0  0  0
 28 29  1  0  0  0  0
 28 30  1  0  0  0  0
M  END
$$$$
default_name
  -OEChem-02102213163D

 33 32  0     1  0  0  0  0  0999 V2000
   -3.8420   -3.6918    1.5562 H   0  0  0  0  0  0  0  0  0  0  0  0
   -3.8430   -2.7008    1.1032 C   0  0  0  0  0  0  0  0  0  0  0  0
   -4.5510   -2.0608    1.6242 H   0  0  0  0  0  0  0  0  0  0  0  0
   -4.1140   -2.7798    0.0522 H   0  0  0  0  0  0  0  0  0  0  0  0
   -2.4570   -2.1098    1.2172 C   0  0  0  0  0  0  0  0  0  0  0  0
   -1.5600   -2.7438    1.7572 O   0  0  0  0  0  0  0  0  0  0  0  0
   -2.2870   -0.8898    0.7102 N   0  0  0  0  0  0  0  0  0  0  0  0
   -3.0820   -0.4218    0.2992 H   0  0  0  0  0  0  0  0  0  0  0  0
   -1.0240   -0.1468    0.7262 C   0  0  1  0  0  0  0  0  0  0  0  0
   -0.3583   -0.6100    1.4558 H   0  0  0  0  0  0  0  0  0  0  0  0
   -0.3739   -0.2459   -0.6675 C   0  0  0  0  0  0  0  0  0  0  0  0
    0.6872   -0.4697   -0.5403 H   0  0  0  0  0  0  0  0  0  0  0  0
   -0.8314   -1.0677   -1.2201 H   0  0  0  0  0  0  0  0  0  0  0  0
   -0.4962    1.0470   -1.4889 C   0  0  0  0  0  0  0  0  0  0  0  0
    0.4656    1.5602   -1.5091 H   0  0  0  0  0  0  0  0  0  0  0  0
   -0.7895    0.7970   -2.5102 H   0  0  0  0  0  0  0  0  0  0  0  0
   -1.5434    1.9858   -0.8793 C   0  0  0  0  0  0  0  0  0  0  0  0
   -2.5105    1.4833   -0.8451 H   0  0  0  0  0  0  0  0  0  0  0  0
   -1.2427    2.2576    0.1330 H   0  0  0  0  0  0  0  0  0  0  0  0
   -1.6625    3.2503   -1.7278 C   0  0  0  0  0  0  0  0  0  0  0  0
   -0.7026    3.7638   -1.7482 H   0  0  0  0  0  0  0  0  0  0  0  0
   -1.9455    2.9794   -2.7436 H   0  0  0  0  0  0  0  0  0  0  0  0
   -2.6756    4.1624   -1.1845 N   0  0  0  0  0  0  0  0  0  0  0  0
   -2.7176    4.9906   -1.7601 H   0  0  0  0  0  0  0  0  0  0  0  0
   -3.5746    3.7020   -1.1931 H   0  0  0  0  0  0  0  0  0  0  0  0
   -1.2712    1.3099    1.1517 C   0  0  0  0  0  0  0  0  0  0  0  0
   -2.2039    1.9448    0.6639 O   0  0  0  0  0  0  0  0  0  0  0  0
   -0.4306    1.8354    2.0503 N   0  0  0  0  0  0  0  0  0  0  0  0
    0.3001    1.2459    2.4139 H   0  0  0  0  0  0  0  0  0  0  0  0
   -0.5192    3.2082    2.5456 C   0  0  0  0  0  0  0  0  0  0  0  0
   -1.5166    3.3903    2.9518 H   0  0  0  0  0  0  0  0  0  0  0  0
    0.2240    3.3791    3.3257 H   0  0  0  0  0  0  0  0  0  0  0  0
   -0.3477    3.9067    1.7239 H   0  0  0  0  0  0  0  0  0  0  0  0
  5  6  2  0  0  0  0
  5  7  1  0  0  0  0
  2  3  1  0  0  0  0
  2  4  1  0  0  0  0
  2  5  1  0  0  0  0
  1  2  1  0  0  0  0
 26 27  2  0  0  0  0
 26 28  1  0  0  0  0
 23 24  1  0  0  0  0
 23 25  1  0  0  0  0
 20 21  1  0  0  0  0
 20 22  1  0  0  0  0
 20 23  1  0  0  0  0
 17 18  1  0  0  0  0
 17 19  1  0  0  0  0
 17 20  1  0  0  0  0
 14 15  1  0  0  0  0
 14 16  1  0  0  0  0
 14 17  1  0  0  0  0
 11 12  1  0  0  0  0
 11 13  1  0  0  0  0
 11 14  1  0  0  0  0
  9 10  1  0  0  0  0
  9 11  1  0  0  0  0
  9 26  1  0  0  0  0
  7  8  1  0  0  0  0
  7  9  1  0  0  0  0
 30 31  1  0  0  0  0
 30 32  1  0  0  0  0
 30 33  1  0  0  0  0
 28 29  1  0  0  0  0
 28 30  1  0  0  0  0
M  END
$$$$
default_name
  -OEChem-02102213163D

 33 32  0     1  0  0  0  0  0999 V2000
   -3.8420   -3.6918    1.5562 H   0  0  0  0  0  0  0  0  0  0  0  0
   -3.8430   -2.7008    1.1032 C   0  0  0  0  0  0  0  0  0  0  0  0
   -4.5510   -2.0608    1.6242 H   0  0  0  0  0  0  0  0  0  0  0  0
   -4.1140   -2.7798    0.0522 H   0  0  0  0  0  0  0  0  0  0  0  0
   -2.4570   -2.1098    1.2172 C   0  0  0  0  0  0  0  0  0  0  0  0
   -1.5600   -2.7438    1.7572 O   0  0  0  0  0  0  0  0  0  0  0  0
   -2.2870   -0.8898    0.7102 N   0  0  0  0  0  0  0  0  0  0  0  0
   -3.0820   -0.4218    0.2992 H   0  0  0  0  0  0  0  0  0  0  0  0
   -1.0240   -0.1468    0.7262 C   0  0  1  0  0  0  0  0  0  0  0  0
   -0.3583   -0.6100    1.4558 H   0  0  0  0  0  0  0  0  0  0  0  0
   -0.3739   -0.2459   -0.6675 C   0  0  0  0  0  0  0  0  0  0  0  0
    0.6872   -0.4697   -0.5403 H   0  0  0  0  0  0  0  0  0  0  0  0
   -0.8314   -1.0677   -1.2201 H   0  0  0  0  0  0  0  0  0  0  0  0
   -0.4962    1.0470   -1.4889 C   0  0  0  0  0  0  0  0  0  0  0  0
    0.4985    1.4197   -1.7351 H   0  0  0  0  0  0  0  0  0  0  0  0
   -1.0374    0.8354   -2.4129 H   0  0  0  0  0  0  0  0  0  0  0  0
   -1.2466    2.1270   -0.7013 C   0  0  0  0  0  0  0  0  0  0  0  0
   -2.2418    1.7656   -0.4407 H   0  0  0  0  0  0  0  0  0  0  0  0
   -0.6971    2.3591    0.2115 H   0  0  0  0  0  0  0  0  0  0  0  0
   -1.3756    3.3912   -1.5488 C   0  0  0  0  0  0  0  0  0  0  0  0
   -0.3828    3.7644   -1.7948 H   0  0  0  0  0  0  0  0  0  0  0  0
   -1.9086    3.1574   -2.4690 H   0  0  0  0  0  0  0  0  0  0  0  0
   -2.1111    4.4395   -0.8324 N   0  0  0  0  0  0  0  0  0  0  0  0
   -2.1651    5.2624   -1.4146 H   0  0  0  0  0  0  0  0  0  0  0  0
   -3.0443    4.1101   -0.6297 H   0  0  0  0  0  0  0  0  0  0  0  0
   -1.2712    1.3099    1.1517 C   0  0  0  0  0  0  0  0  0  0  0  0
   -2.2039    1.9448    0.6639 O   0  0  0  0  0  0  0  0  0  0  0  0
   -0.4306    1.8354    2.0503 N   0  0  0  0  0  0  0  0  0  0  0  0
    0.3001    1.2459    2.4139 H   0  0  0  0  0  0  0  0  0  0  0  0
   -0.5192    3.2082    2.5456 C   0  0  0  0  0  0  0  0  0  0  0  0
   -1.5166    3.3903    2.9518 H   0  0  0  0  0  0  0  0  0  0  0  0
    0.2240    3.3791    3.3257 H   0  0  0  0  0  0  0  0  0  0  0  0
   -0.3477    3.9067    1.7239 H   0  0  0  0  0  0  0  0  0  0  0  0
  5  6  2  0  0  0  0
  5  7  1  0  0  0  0
  2  3  1  0  0  0  0
  2  4  1  0  0  0  0
  2  5  1  0  0  0  0
  1  2  1  0  0  0  0
 26 27  2  0  0  0  0
 26 28  1  0  0  0  0
 23 24  1  0  0  0  0
 23 25  1  0  0  0  0
 20 21  1  0  0  0  0
 20 22  1  0  0  0  0
 20 23  1  0  0  0  0
 17 18  1  0  0  0  0
 17 19  1  0  0  0  0
 17 20  1  0  0  0  0
 14 15  1  0  0  0  0
 14 16  1  0  0  0  0
 14 17  1  0  0  0  0
 11 12  1  0  0  0  0
 11 13  1  0  0  0  0
 11 14  1  0  0  0  0
  9 10  1  0  0  0  0
  9 11  1  0  0  0  0
  9 26  1  0  0  0  0
  7  8  1  0  0  0  0
  7  9  1  0  0  0  0
 30 31  1  0  0  0  0
 30 32  1  0  0  0  0
 30 33  1  0  0  0  0
 28 29  1  0  0  0  0
 28 30  1  0  0  0  0
M  END
$$$$
default_name
  -OEChem-02102213163D

 33 32  0     1  0  0  0  0  0999 V2000
   -3.8420   -3.6918    1.5562 H   0  0  0  0  0  0  0  0  0  0  0  0
   -3.8430   -2.7008    1.1032 C   0  0  0  0  0  0  0  0  0  0  0  0
   -4.5510   -2.0608    1.6242 H   0  0  0  0  0  0  0  0  0  0  0  0
   -4.1140   -2.7798    0.0522 H   0  0  0  0  0  0  0  0  0  0  0  0
   -2.4570   -2.1098    1.2172 C   0  0  0  0  0  0  0  0  0  0  0  0
   -1.5600   -2.7438    1.7572 O   0  0  0  0  0  0  0  0  0  0  0  0
   -2.2870   -0.8898    0.7102 N   0  0  0  0  0  0  0  0  0  0  0  0
   -3.0820   -0.4218    0.2992 H   0  0  0  0  0  0  0  0  0  0  0  0
   -1.0240   -0.1468    0.7262 C   0  0  1  0  0  0  0  0  0  0  0  0
   -0.3583   -0.6100    1.4558 H   0  0  0  0  0  0  0  0  0  0  0  0
   -0.3739   -0.2459   -0.6675 C   0  0  0  0  0  0  0  0  0  0  0  0
    0.6872   -0.4697   -0.5403 H   0  0  0  0  0  0  0  0  0  0  0  0
   -0.8314   -1.0677   -1.2201 H   0  0  0  0  0  0  0  0  0  0  0  0
   -0.4962    1.0470   -1.4889 C   0  0  0  0  0  0  0  0  0  0  0  0
    0.4615    1.2748   -1.9577 H   0  0  0  0  0  0  0  0  0  0  0  0
   -1.2504    0.9087   -2.2658 H   0  0  0  0  0  0  0  0  0  0  0  0
   -0.9015    2.2259   -0.5970 C   0  0  0  0  0  0  0  0  0  0  0  0
   -1.8551    2.0095   -0.1144 H   0  0  0  0  0  0  0  0  0  0  0  0
   -0.1390    2.3832    0.1664 H   0  0  0  0  0  0  0  0  0  0  0  0
   -1.0400    3.4912   -1.4414 C   0  0  0  0  0  0  0  0  0  0  0  0
   -0.0839    3.7198   -1.9095 H   0  0  0  0  0  0  0  0  0  0  0  0
   -1.7884    3.3298   -2.2154 H   0  0  0  0  0  0  0  0  0  0  0  0
   -1.4509    4.6363   -0.6209 N   0  0  0  0  0  0  0  0  0  0  0  0
   -1.5187    5.4555   -1.2069 H   0  0  0  0  0  0  0  0  0  0  0  0
   -2.3528    4.4425   -0.2095 H   0  0  0  0  0  0  0  0  0  0  0  0
   -1.2712    1.3099    1.1517 C   0  0  0  0  0  0  0  0  0  0  0  0
   -2.2039    1.9448    0.6639 O   0  0  0  0  0  0  0  0  0  0  0  0
   -0.4306    1.8354    2.0503 N   0  0  0  0  0  0  0  0  0  0  0  0
    0.3001    1.2459    2.4139 H   0  0  0  0  0  0  0  0  0  0  0  0
   -0.5192    3.2082    2.5456 C   0  0  0  0  0  0  0  0  0  0  0  0
   -1.5166    3.3903    2.9518 H   0  0  0  0  0  0  0  0  0  0  0  0
    0.2240    3.3791    3.3257 H   0  0  0  0  0  0  0  0  0  0  0  0
   -0.3477    3.9067    1.7239 H   0  0  0  0  0  0  0  0  0  0  0  0
  5  6  2  0  0  0  0
  5  7  1  0  0  0  0
  2  3  1  0  0  0  0
  2  4  1  0  0  0  0
  2  5  1  0  0  0  0
  1  2  1  0  0  0  0
 26 27  2  0  0  0  0
 26 28  1  0  0  0  0
 23 24  1  0  0  0  0
 23 25  1  0  0  0  0
 20 21  1  0  0  0  0
 20 22  1  0  0  0  0
 20 23  1  0  0  0  0
 17 18  1  0  0  0  0
 17 19  1  0  0  0  0
 17 20  1  0  0  0  0
 14 15  1  0  0  0  0
 14 16  1  0  0  0  0
 14 17  1  0  0  0  0
 11 12  1  0  0  0  0
 11 13  1  0  0  0  0
 11 14  1  0  0  0  0
  9 10  1  0  0  0  0
  9 11  1  0  0  0  0
  9 26  1  0  0  0  0
  7  8  1  0  0  0  0
  7  9  1  0  0  0  0
 30 31  1  0  0  0  0
 30 32  1  0  0  0  0
 30 33  1  0  0  0  0
 28 29  1  0  0  0  0
 28 30  1  0  0  0  0
M  END
$$$$
default_name
  -OEChem-02102213163D

 33 32  0     1  0  0  0  0  0999 V2000
   -3.8420   -3.6918    1.5562 H   0  0  0  0  0  0  0  0  0  0  0  0
   -3.8430   -2.7008    1.1032 C   0  0  0  0  0  0  0  0  0  0  0  0
   -4.5510   -2.0608    1.6242 H   0  0  0  0  0  0  0  0  0  0  0  0
   -4.1140   -2.7798    0.0522 H   0  0  0  0  0  0  0  0  0  0  0  0
   -2.4570   -2.1098    1.2172 C   0  0  0  0  0  0  0  0  0  0  0  0
   -1.5600   -2.7438    1.7572 O   0  0  0  0  0  0  0  0  0  0  0  0
   -2.2870   -0.8898    0.7102 N   0  0  0  0  0  0  0  0  0  0  0  0
   -3.0820   -0.4218    0.2992 H   0  0  0  0  0  0  0  0  0  0  0  0
   -1.0240   -0.1468    0.7262 C   0  0  1  0  0  0  0  0  0  0  0  0
   -0.3583   -0.6100    1.4558 H   0  0  0  0  0  0  0  0  0  0  0  0
   -0.3739   -0.2459   -0.6675 C   0  0  0  0  0  0  0  0  0  0  0  0
    0.6872   -0.4697   -0.5403 H   0  0  0  0  0  0  0  0  0  0  0  0
   -0.8314   -1.0677   -1.2201 H   0  0  0  0  0  0  0  0  0  0  0  0
   -0.4962    1.0470   -1.4889 C   0  0  0  0  0  0  0  0  0  0  0  0
    0.3573    1.1354   -2.1616 H   0  0  0  0  0  0  0  0  0  0  0  0
   -1.4140    1.0121   -2.0787 H   0  0  0  0  0  0  0  0  0  0  0  0
   -0.5319    2.2759   -0.5733 C   0  0  0  0  0  0  0  0  0  0  0  0
   -1.3768    2.1982    0.1115 H   0  0  0  0  0  0  0  0  0  0  0  0
    0.3936    2.3284    0.0009 H   0  0  0  0  0  0  0  0  0  0  0  0
   -0.6785    3.5436   -1.4127 C   0  0  0  0  0  0  0  0  0  0  0  0
    0.1737    3.6330   -2.0845 H   0  0  0  0  0  0  0  0  0  0  0  0
   -1.5933    3.4850   -2.0002 H   0  0  0  0  0  0  0  0  0  0  0  0
   -0.7399    4.7395   -0.5644 N   0  0  0  0  0  0  0  0  0  0  0  0
   -0.8224    5.5569   -1.1509 H   0  0  0  0  0  0  0  0  0  0  0  0
   -1.5474    4.6766    0.0390 H   0  0  0  0  0  0  0  0  0  0  0  0
   -1.2712    1.3099    1.1517 C   0  0  0  0  0  0  0  0  0  0  0  0
   -2.2039    1.9448    0.6639 O   0  0  0  0  0  0  0  0  0  0  0  0
   -0.4306    1.8354    2.0503 N   0  0  0  0  0  0  0  0  0  0  0  0
    0.3001    1.2459    2.4139 H   0  0  0  0  0  0  0  0  0  0  0  0
   -0.5192    3.2082    2.5456 C   0  0  0  0  0  0  0  0  0  0  0  0
   -1.5166    3.3903    2.9518 H   0  0  0  0  0  0  0  0  0  0  0  0
    0.2240    3.3791    3.3257 H   0  0  0  0  0  0  0  0  0  0  0  0
   -0.3477    3.9067    1.7239 H   0  0  0  0  0  0  0  0  0  0  0  0
  5  6  2  0  0  0  0
  5  7  1  0  0  0  0
  2  3  1  0  0  0  0
  2  4  1  0  0  0  0
  2  5  1  0  0  0  0
  1  2  1  0  0  0  0
 26 27  2  0  0  0  0
 26 28  1  0  0  0  0
 23 24  1  0  0  0  0
 23 25  1  0  0  0  0
 20 21  1  0  0  0  0
 20 22  1  0  0  0  0
 20 23  1  0  0  0  0
 17 18  1  0  0  0  0
 17 19  1  0  0  0  0
 17 20  1  0  0  0  0
 14 15  1  0  0  0  0
 14 16  1  0  0  0  0
 14 17  1  0  0  0  0
 11 12  1  0  0  0  0
 11 13  1  0  0  0  0
 11 14  1  0  0  0  0
  9 10  1  0  0  0  0
  9 11  1  0  0  0  0
  9 26  1  0  0  0  0
  7  8  1  0  0  0  0
  7  9  1  0  0  0  0
 30 31  1  0  0  0  0
 30 32  1  0  0  0  0
 30 33  1  0  0  0  0
 28 29  1  0  0  0  0
 28 30  1  0  0  0  0
M  END
$$$$
default_name
  -OEChem-02102213163D

 33 32  0     1  0  0  0  0  0999 V2000
   -3.8420   -3.6918    1.5562 H   0  0  0  0  0  0  0  0  0  0  0  0
   -3.8430   -2.7008    1.1032 C   0  0  0  0  0  0  0  0  0  0  0  0
   -4.5510   -2.0608    1.6242 H   0  0  0  0  0  0  0  0  0  0  0  0
   -4.1140   -2.7798    0.0522 H   0  0  0  0  0  0  0  0  0  0  0  0
   -2.4570   -2.1098    1.2172 C   0  0  0  0  0  0  0  0  0  0  0  0
   -1.5600   -2.7438    1.7572 O   0  0  0  0  0  0  0  0  0  0  0  0
   -2.2870   -0.8898    0.7102 N   0  0  0  0  0  0  0  0  0  0  0  0
   -3.0820   -0.4218    0.2992 H   0  0  0  0  0  0  0  0  0  0  0  0
   -1.0240   -0.1468    0.7262 C   0  0  1  0  0  0  0  0  0  0  0  0
   -0.3583   -0.6100    1.4558 H   0  0  0  0  0  0  0  0  0  0  0  0
   -0.3739   -0.2459   -0.6675 C   0  0  0  0  0  0  0  0  0  0  0  0
    0.6872   -0.4697   -0.5403 H   0  0  0  0  0  0  0  0  0  0  0  0
   -0.8314   -1.0677   -1.2201 H   0  0  0  0  0  0  0  0  0  0  0  0
   -0.4962    1.0470   -1.4889 C   0  0  0  0  0  0  0  0  0  0  0  0
    0.1930    1.0109   -2.3331 H   0  0  0  0  0  0  0  0  0  0  0  0
   -1.5170    1.1384   -1.8646 H   0  0  0  0  0  0  0  0  0  0  0  0
   -0.1627    2.2735   -0.6321 C   0  0  0  0  0  0  0  0  0  0  0  0
   -0.8395    2.3191    0.2217 H   0  0  0  0  0  0  0  0  0  0  0  0
    0.8644    2.1984   -0.2739 H   0  0  0  0  0  0  0  0  0  0  0  0
   -0.3159    3.5448   -1.4648 C   0  0  0  0  0  0  0  0  0  0  0  0
    0.3723    3.5099   -2.3078 H   0  0  0  0  0  0  0  0  0  0  0  0
   -1.3365    3.6124   -1.8381 H   0  0  0  0  0  0  0  0  0  0  0  0
   -0.0265    4.7418   -0.6669 N   0  0  0  0  0  0  0  0  0  0  0  0
   -0.1236    5.5597   -1.2506 H   0  0  0  0  0  0  0  0  0  0  0  0
   -0.6830    4.7963    0.0989 H   0  0  0  0  0  0  0  0  0  0  0  0
   -1.2712    1.3099    1.1517 C   0  0  0  0  0  0  0  0  0  0  0  0
   -2.2039    1.9448    0.6639 O   0  0  0  0  0  0  0  0  0  0  0  0
   -0.4306    1.8354    2.0503 N   0  0  0  0  0  0  0  0  0  0  0  0
    0.3001    1.2459    2.4139 H   0  0  0  0  0  0  0  0  0  0  0  0
   -0.5192    3.2082    2.5456 C   0  0  0  0  0  0  0  0  0  0  0  0
   -1.5166    3.3903    2.9518 H   0  0  0  0  0  0  0  0  0  0  0  0
    0.2240    3.3791    3.3257 H   0  0  0  0  0  0  0  0  0  0  0  0
   -0.3477    3.9067    1.7239 H   0  0  0  0  0  0  0  0  0  0  0  0
  5  6  2  0  0  0  0
  5  7  1  0  0  0  0
  2  3  1  0  0  0  0
  2  4  1  0  0  0  0
  2  5  1  0  0  0  0
  1  2  1  0  0  0  0
 26 27  2  0  0  0  0
 26 28  1  0  0  0  0
 23 24  1  0  0  0  0
 23 25  1  0  0  0  0
 20 21  1  0  0  0  0
 20 22  1  0  0  0  0
 20 23  1  0  0  0  0
 17 18  1  0  0  0  0
 17 19  1  0  0  0  0
 17 20  1  0  0  0  0
 14 15  1  0  0  0  0
 14 16  1  0  0  0  0
 14 17  1  0  0  0  0
 11 12  1  0  0  0  0
 11 13  1  0  0  0  0
 11 14  1  0  0  0  0
  9 10  1  0  0  0  0
  9 11  1  0  0  0  0
  9 26  1  0  0  0  0
  7  8  1  0  0  0  0
  7  9  1  0  0  0  0
 30 31  1  0  0  0  0
 30 32  1  0  0  0  0
 30 33  1  0  0  0  0
 28 29  1  0  0  0  0
 28 30  1  0  0  0  0
M  END
$$$$
default_name
  -OEChem-02102213163D

 33 32  0     1  0  0  0  0  0999 V2000
   -3.8420   -3.6918    1.5562 H   0  0  0  0  0  0  0  0  0  0  0  0
   -3.8430   -2.7008    1.1032 C   0  0  0  0  0  0  0  0  0  0  0  0
   -4.5510   -2.0608    1.6242 H   0  0  0  0  0  0  0  0  0  0  0  0
   -4.1140   -2.7798    0.0522 H   0  0  0  0  0  0  0  0  0  0  0  0
   -2.4570   -2.1098    1.2172 C   0  0  0  0  0  0  0  0  0  0  0  0
   -1.5600   -2.7438    1.7572 O   0  0  0  0  0  0  0  0  0  0  0  0
   -2.2870   -0.8898    0.7102 N   0  0  0  0  0  0  0  0  0  0  0  0
   -3.0820   -0.4218    0.2992 H   0  0  0  0  0  0  0  0  0  0  0  0
   -1.0240   -0.1468    0.7262 C   0  0  1  0  0  0  0  0  0  0  0  0
   -0.3583   -0.6100    1.4558 H   0  0  0  0  0  0  0  0  0  0  0  0
   -0.3739   -0.2459   -0.6675 C   0  0  0  0  0  0  0  0  0  0  0  0
    0.6872   -0.4697   -0.5403 H   0  0  0  0  0  0  0  0  0  0  0  0
   -0.8314   -1.0677   -1.2201 H   0  0  0  0  0  0  0  0  0  0  0  0
   -0.4962    1.0470   -1.4889 C   0  0  0  0  0  0  0  0  0  0  0  0
   -0.0203    0.9099   -2.4603 H   0  0  0  0  0  0  0  0  0  0  0  0
   -1.5523    1.2791   -1.6379 H   0  0  0  0  0  0  0  0  0  0  0  0
    0.1807    2.2189   -0.7691 C   0  0  0  0  0  0  0  0  0  0  0  0
   -0.2798    2.3637    0.2086 H   0  0  0  0  0  0  0  0  0  0  0  0
    1.2414    2.0020   -0.6391 H   0  0  0  0  0  0  0  0  0  0  0  0
    0.0232    3.4947   -1.5941 C   0  0  0  0  0  0  0  0  0  0  0  0
    0.4986    3.3589   -2.5642 H   0  0  0  0  0  0  0  0  0  0  0  0
   -1.0355    3.7032   -1.7399 H   0  0  0  0  0  0  0  0  0  0  0  0
    0.6406    4.6433   -0.9212 N   0  0  0  0  0  0  0  0  0  0  0  0
    0.5301    5.4636   -1.4991 H   0  0  0  0  0  0  0  0  0  0  0  0
    0.1816    4.7937   -0.0341 H   0  0  0  0  0  0  0  0  0  0  0  0
   -1.2712    1.3099    1.1517 C   0  0  0  0  0  0  0  0  0  0  0  0
   -2.2039    1.9448    0.6639 O   0  0  0  0  0  0  0  0  0  0  0  0
   -0.4306    1.8354    2.0503 N   0  0  0  0  0  0  0  0  0  0  0  0
    0.3001    1.2459    2.4139 H   0  0  0  0  0  0  0  0  0  0  0  0
   -0.5192    3.2082    2.5456 C   0  0  0  0  0  0  0  0  0  0  0  0
   -1.5166    3.3903    2.9518 H   0  0  0  0  0  0  0  0  0  0  0  0
    0.2240    3.3791    3.3257 H   0  0  0  0  0  0  0  0  0  0  0  0
   -0.3477    3.9067    1.7239 H   0  0  0  0  0  0  0  0  0  0  0  0
  5  6  2  0  0  0  0
  5  7  1  0  0  0  0
  2  3  1  0  0  0  0
  2  4  1  0  0  0  0
  2  5  1  0  0  0  0
  1  2  1  0  0  0  0
 26 27  2  0  0  0  0
 26 28  1  0  0  0  0
 23 24  1  0  0  0  0
 23 25  1  0  0  0  0
 20 21  1  0  0  0  0
 20 22  1  0  0  0  0
 20 23  1  0  0  0  0
 17 18  1  0  0  0  0
 17 19  1  0  0  0  0
 17 20  1  0  0  0  0
 14 15  1  0  0  0  0
 14 16  1  0  0  0  0
 14 17  1  0  0  0  0
 11 12  1  0  0  0  0
 11 13  1  0  0  0  0
 11 14  1  0  0  0  0
  9 10  1  0  0  0  0
  9 11  1  0  0  0  0
  9 26  1  0  0  0  0
  7  8  1  0  0  0  0
  7  9  1  0  0  0  0
 30 31  1  0  0  0  0
 30 32  1  0  0  0  0
 30 33  1  0  0  0  0
 28 29  1  0  0  0  0
 28 30  1  0  0  0  0
M  END
$$$$
default_name
  -OEChem-02102213163D

 33 32  0     1  0  0  0  0  0999 V2000
   -3.8420   -3.6918    1.5562 H   0  0  0  0  0  0  0  0  0  0  0  0
   -3.8430   -2.7008    1.1032 C   0  0  0  0  0  0  0  0  0  0  0  0
   -4.5510   -2.0608    1.6242 H   0  0  0  0  0  0  0  0  0  0  0  0
   -4.1140   -2.7798    0.0522 H   0  0  0  0  0  0  0  0  0  0  0  0
   -2.4570   -2.1098    1.2172 C   0  0  0  0  0  0  0  0  0  0  0  0
   -1.5600   -2.7438    1.7572 O   0  0  0  0  0  0  0  0  0  0  0  0
   -2.2870   -0.8898    0.7102 N   0  0  0  0  0  0  0  0  0  0  0  0
   -3.0820   -0.4218    0.2992 H   0  0  0  0  0  0  0  0  0  0  0  0
   -1.0240   -0.1468    0.7262 C   0  0  1  0  0  0  0  0  0  0  0  0
   -0.3583   -0.6100    1.4558 H   0  0  0  0  0  0  0  0  0  0  0  0
   -0.3739   -0.2459   -0.6675 C   0  0  0  0  0  0  0  0  0  0  0  0
    0.6872   -0.4697   -0.5403 H   0  0  0  0  0  0  0  0  0  0  0  0
   -0.8314   -1.0677   -1.2201 H   0  0  0  0  0  0  0  0  0  0  0  0
   -0.4962    1.0470   -1.4889 C   0  0  0  0  0  0  0  0  0  0  0  0
   -0.2680    0.8392   -2.5347 H   0  0  0  0  0  0  0  0  0  0  0  0
   -1.5176    1.4245   -1.4142 H   0  0  0  0  0  0  0  0  0  0  0  0
    0.4751    2.1158   -0.9751 C   0  0  0  0  0  0  0  0  0  0  0  0
    0.2642    2.3291    0.0732 H   0  0  0  0  0  0  0  0  0  0  0  0
    1.4988    1.7526   -1.0700 H   0  0  0  0  0  0  0  0  0  0  0  0
    0.3156    3.3968   -1.7918 C   0  0  0  0  0  0  0  0  0  0  0  0
    0.5438    3.1903   -2.8362 H   0  0  0  0  0  0  0  0  0  0  0  0
   -0.7108    3.7512   -1.7126 H   0  0  0  0  0  0  0  0  0  0  0  0
    1.2159    4.4507   -1.3101 N   0  0  0  0  0  0  0  0  0  0  0  0
    1.0942    5.2753   -1.8795 H   0  0  0  0  0  0  0  0  0  0  0  0
    0.9874    4.6687   -0.3507 H   0  0  0  0  0  0  0  0  0  0  0  0
   -1.2712    1.3099    1.1517 C   0  0  0  0  0  0  0  0  0  0  0  0
   -2.2039    1.9448    0.6639 O   0  0  0  0  0  0  0  0  0  0  0  0
   -0.4306    1.8354    2.0503 N   0  0  0  0  0  0  0  0  0  0  0  0
    0.3001    1.2459    2.4139 H   0  0  0  0  0  0  0  0  0  0  0  0
   -0.5192    3.2082    2.5456 C   0  0  0  0  0  0  0  0  0  0  0  0
   -1.5166    3.3903    2.9518 H   0  0  0  0  0  0  0  0  0  0  0  0
    0.2240    3.3791    3.3257 H   0  0  0  0  0  0  0  0  0  0  0  0
   -0.3477    3.9067    1.7239 H   0  0  0  0  0  0  0  0  0  0  0  0
  5  6  2  0  0  0  0
  5  7  1  0  0  0  0
  2  3  1  0  0  0  0
  2  4  1  0  0  0  0
  2  5  1  0  0  0  0
  1  2  1  0  0  0  0
 26 27  2  0  0  0  0
 26 28  1  0  0  0  0
 23 24  1  0  0  0  0
 23 25  1  0  0  0  0
 20 21  1  0  0  0  0
 20 22  1  0  0  0  0
 20 23  1  0  0  0  0
 17 18  1  0  0  0  0
 17 19  1  0  0  0  0
 17 20  1  0  0  0  0
 14 15  1  0  0  0  0
 14 16  1  0  0  0  0
 14 17  1  0  0  0  0
 11 12  1  0  0  0  0
 11 13  1  0  0  0  0
 11 14  1  0  0  0  0
  9 10  1  0  0  0  0
  9 11  1  0  0  0  0
  9 26  1  0  0  0  0
  7  8  1  0  0  0  0
  7  9  1  0  0  0  0
 30 31  1  0  0  0  0
 30 32  1  0  0  0  0
 30 33  1  0  0  0  0
 28 29  1  0  0  0  0
 28 30  1  0  0  0  0
M  END
$$$$
default_name
  -OEChem-02102213163D

 33 32  0     1  0  0  0  0  0999 V2000
   -3.8420   -3.6918    1.5562 H   0  0  0  0  0  0  0  0  0  0  0  0
   -3.8430   -2.7008    1.1032 C   0  0  0  0  0  0  0  0  0  0  0  0
   -4.5510   -2.0608    1.6242 H   0  0  0  0  0  0  0  0  0  0  0  0
   -4.1140   -2.7798    0.0522 H   0  0  0  0  0  0  0  0  0  0  0  0
   -2.4570   -2.1098    1.2172 C   0  0  0  0  0  0  0  0  0  0  0  0
   -1.5600   -2.7438    1.7572 O   0  0  0  0  0  0  0  0  0  0  0  0
   -2.2870   -0.8898    0.7102 N   0  0  0  0  0  0  0  0  0  0  0  0
   -3.0820   -0.4218    0.2992 H   0  0  0  0  0  0  0  0  0  0  0  0
   -1.0240   -0.1468    0.7262 C   0  0  1  0  0  0  0  0  0  0  0  0
   -0.3583   -0.6100    1.4558 H   0  0  0  0  0  0  0  0  0  0  0  0
   -0.3739   -0.2459   -0.6675 C   0  0  0  0  0  0  0  0  0  0  0  0
    0.6872   -0.4697   -0.5403 H   0  0  0  0  0  0  0  0  0  0  0  0
   -0.8314   -1.0677   -1.2201 H   0  0  0  0  0  0  0  0  0  0  0  0
   -0.4962    1.0470   -1.4889 C   0  0  0  0  0  0  0  0  0  0  0  0
   -0.5332    0.8037   -2.5511 H   0  0  0  0  0  0  0  0  0  0  0  0
   -1.4153    1.5648   -1.2086 H   0  0  0  0  0  0  0  0  0  0  0  0
    0.7002    1.9713   -1.2361 C   0  0  0  0  0  0  0  0  0  0  0  0
    0.7553    2.2177   -0.1753 H   0  0  0  0  0  0  0  0  0  0  0  0
    1.6191    1.4672   -1.5371 H   0  0  0  0  0  0  0  0  0  0  0  0
    0.5415    3.2576   -2.0444 C   0  0  0  0  0  0  0  0  0  0  0  0
    0.5049    3.0157   -3.1054 H   0  0  0  0  0  0  0  0  0  0  0  0
   -0.3846    3.7533   -1.7579 H   0  0  0  0  0  0  0  0  0  0  0  0
    1.6603    4.1770   -1.8071 N   0  0  0  0  0  0  0  0  0  0  0  0
    1.5301    5.0075   -2.3659 H   0  0  0  0  0  0  0  0  0  0  0  0
    1.6795    4.4300   -0.8294 H   0  0  0  0  0  0  0  0  0  0  0  0
   -1.2712    1.3099    1.1517 C   0  0  0  0  0  0  0  0  0  0  0  0
   -2.2039    1.9448    0.6639 O   0  0  0  0  0  0  0  0  0  0  0  0
   -0.4306    1.8354    2.0503 N   0  0  0  0  0  0  0  0  0  0  0  0
    0.3001    1.2459    2.4139 H   0  0  0  0  0  0  0  0  0  0  0  0
   -0.5192    3.2082    2.5456 C   0  0  0  0  0  0  0  0  0  0  0  0
   -1.5166    3.3903    2.9518 H   0  0  0  0  0  0  0  0  0  0  0  0
    0.2240    3.3791    3.3257 H   0  0  0  0  0  0  0  0  0  0  0  0
   -0.3477    3.9067    1.7239 H   0  0  0  0  0  0  0  0  0  0  0  0
  5  6  2  0  0  0  0
  5  7  1  0  0  0  0
  2  3  1  0  0  0  0
  2  4  1  0  0  0  0
  2  5  1  0  0  0  0
  1  2  1  0  0  0  0
 26 27  2  0  0  0  0
 26 28  1  0  0  0  0
 23 24  1  0  0  0  0
 23 25  1  0  0  0  0
 20 21  1  0  0  0  0
 20 22  1  0  0  0  0
 20 23  1  0  0  0  0
 17 18  1  0  0  0  0
 17 19  1  0  0  0  0
 17 20  1  0  0  0  0
 14 15  1  0  0  0  0
 14 16  1  0  0  0  0
 14 17  1  0  0  0  0
 11 12  1  0  0  0  0
 11 13  1  0  0  0  0
 11 14  1  0  0  0  0
  9 10  1  0  0  0  0
  9 11  1  0  0  0  0
  9 26  1  0  0  0  0
  7  8  1  0  0  0  0
  7  9  1  0  0  0  0
 30 31  1  0  0  0  0
 30 32  1  0  0  0  0
 30 33  1  0  0  0  0
 28 29  1  0  0  0  0
 28 30  1  0  0  0  0
M  END
$$$$
default_name
  -OEChem-02102213163D

 33 32  0     1  0  0  0  0  0999 V2000
   -3.8420   -3.6918    1.5562 H   0  0  0  0  0  0  0  0  0  0  0  0
   -3.8430   -2.7008    1.1032 C   0  0  0  0  0  0  0  0  0  0  0  0
   -4.5510   -2.0608    1.6242 H   0  0  0  0  0  0  0  0  0  0  0  0
   -4.1140   -2.7798    0.0522 H   0  0  0  0  0  0  0  0  0  0  0  0
   -2.4570   -2.1098    1.2172 C   0  0  0  0  0  0  0  0  0  0  0  0
   -1.5600   -2.7438    1.7572 O   0  0  0  0  0  0  0  0  0  0  0  0
   -2.2870   -0.8898    0.7102 N   0  0  0  0  0  0  0  0  0  0  0  0
   -3.0820   -0.4218    0.2992 H   0  0  0  0  0  0  0  0  0  0  0  0
   -1.0240   -0.1468    0.7262 C   0  0  1  0  0  0  0  0  0  0  0  0
   -0.3583   -0.6100    1.4558 H   0  0  0  0  0  0  0  0  0  0  0  0
   -0.3739   -0.2459   -0.6675 C   0  0  0  0  0  0  0  0  0  0  0  0
    0.6872   -0.4697   -0.5403 H   0  0  0  0  0  0  0  0  0  0  0  0
   -0.8314   -1.0677   -1.2201 H   0  0  0  0  0  0  0  0  0  0  0  0
   -0.4962    1.0470   -1.4889 C   0  0  0  0  0  0  0  0  0  0  0  0
   -0.7979    0.8057   -2.5085 H   0  0  0  0  0  0  0  0  0  0  0  0
   -1.2523    1.6904   -1.0352 H   0  0  0  0  0  0  0  0  0  0  0  0
    0.8409    1.7952   -1.5343 C   0  0  0  0  0  0  0  0  0  0  0  0
    1.1602    2.0369   -0.5201 H   0  0  0  0  0  0  0  0  0  0  0  0
    1.5941    1.1653   -2.0086 H   0  0  0  0  0  0  0  0  0  0  0  0
    0.6854    3.0868   -2.3348 C   0  0  0  0  0  0  0  0  0  0  0  0
    0.3845    2.8468   -3.3533 H   0  0  0  0  0  0  0  0  0  0  0  0
   -0.0791    3.7093   -1.8727 H   0  0  0  0  0  0  0  0  0  0  0  0
    1.9434    3.8408   -2.3782 N   0  0  0  0  0  0  0  0  0  0  0  0
    1.8082    4.6785   -2.9251 H   0  0  0  0  0  0  0  0  0  0  0  0
    2.2108    4.0939   -1.4376 H   0  0  0  0  0  0  0  0  0  0  0  0
   -1.2712    1.3099    1.1517 C   0  0  0  0  0  0  0  0  0  0  0  0
   -2.2039    1.9448    0.6639 O   0  0  0  0  0  0  0  0  0  0  0  0
   -0.4306    1.8354    2.0503 N   0  0  0  0  0  0  0  0  0  0  0  0
    0.3001    1.2459    2.4139 H   0  0  0  0  0  0  0  0  0  0  0  0
   -0.5192    3.2082    2.5456 C   0  0  0  0  0  0  0  0  0  0  0  0
   -1.5166    3.3903    2.9518 H   0  0  0  0  0  0  0  0  0  0  0  0
    0.2240    3.3791    3.3257 H   0  0  0  0  0  0  0  0  0  0  0  0
   -0.3477    3.9067    1.7239 H   0  0  0  0  0  0  0  0  0  0  0  0
  5  6  2  0  0  0  0
  5  7  1  0  0  0  0
  2  3  1  0  0  0  0
  2  4  1  0  0  0  0
  2  5  1  0  0  0  0
  1  2  1  0  0  0  0
 26 27  2  0  0  0  0
 26 28  1  0  0  0  0
 23 24  1  0  0  0  0
 23 25  1  0  0  0  0
 20 21  1  0  0  0  0
 20 22  1  0  0  0  0
 20 23  1  0  0  0  0
 17 18  1  0  0  0  0
 17 19  1  0  0  0  0
 17 20  1  0  0  0  0
 14 15  1  0  0  0  0
 14 16  1  0  0  0  0
 14 17  1  0  0  0  0
 11 12  1  0  0  0  0
 11 13  1  0  0  0  0
 11 14  1  0  0  0  0
  9 10  1  0  0  0  0
  9 11  1  0  0  0  0
  9 26  1  0  0  0  0
  7  8  1  0  0  0  0
  7  9  1  0  0  0  0
 30 31  1  0  0  0  0
 30 32  1  0  0  0  0
 30 33  1  0  0  0  0
 28 29  1  0  0  0  0
 28 30  1  0  0  0  0
M  END
$$$$
default_name
  -OEChem-02102213163D

 33 32  0     1  0  0  0  0  0999 V2000
   -3.8420   -3.6918    1.5562 H   0  0  0  0  0  0  0  0  0  0  0  0
   -3.8430   -2.7008    1.1032 C   0  0  0  0  0  0  0  0  0  0  0  0
   -4.5510   -2.0608    1.6242 H   0  0  0  0  0  0  0  0  0  0  0  0
   -4.1140   -2.7798    0.0522 H   0  0  0  0  0  0  0  0  0  0  0  0
   -2.4570   -2.1098    1.2172 C   0  0  0  0  0  0  0  0  0  0  0  0
   -1.5600   -2.7438    1.7572 O   0  0  0  0  0  0  0  0  0  0  0  0
   -2.2870   -0.8898    0.7102 N   0  0  0  0  0  0  0  0  0  0  0  0
   -3.0820   -0.4218    0.2992 H   0  0  0  0  0  0  0  0  0  0  0  0
   -1.0240   -0.1468    0.7262 C   0  0  1  0  0  0  0  0  0  0  0  0
   -0.3583   -0.6100    1.4558 H   0  0  0  0  0  0  0  0  0  0  0  0
   -0.3739   -0.2459   -0.6675 C   0  0  0  0  0  0  0  0  0  0  0  0
    0.6872   -0.4697   -0.5403 H   0  0  0  0  0  0  0  0  0  0  0  0
   -0.8314   -1.0677   -1.2201 H   0  0  0  0  0  0  0  0  0  0  0  0
   -0.4962    1.0470   -1.4889 C   0  0  0  0  0  0  0  0  0  0  0  0
   -1.0441    0.8452   -2.4098 H   0  0  0  0  0  0  0  0  0  0  0  0
   -1.0397    1.7927   -0.9058 H   0  0  0  0  0  0  0  0  0  0  0  0
    0.8875    1.5995   -1.8493 C   0  0  0  0  0  0  0  0  0  0  0  0
    1.4512    1.7992   -0.9375 H   0  0  0  0  0  0  0  0  0  0  0  0
    1.4255    0.8674   -2.4523 H   0  0  0  0  0  0  0  0  0  0  0  0
    0.7375    2.8958   -2.6431 C   0  0  0  0  0  0  0  0  0  0  0  0
    0.1909    2.6952   -3.5631 H   0  0  0  0  0  0  0  0  0  0  0  0
    0.1850    3.6221   -2.0492 H   0  0  0  0  0  0  0  0  0  0  0  0
    2.0461    3.4652   -2.9847 N   0  0  0  0  0  0  0  0  0  0  0  0
    1.9095    4.3107   -3.5191 H   0  0  0  0  0  0  0  0  0  0  0  0
    2.5450    3.6831   -2.1338 H   0  0  0  0  0  0  0  0  0  0  0  0
   -1.2712    1.3099    1.1517 C   0  0  0  0  0  0  0  0  0  0  0  0
   -2.2039    1.9448    0.6639 O   0  0  0  0  0  0  0  0  0  0  0  0
   -0.4306    1.8354    2.0503 N   0  0  0  0  0  0  0  0  0  0  0  0
    0.3001    1.2459    2.4139 H   0  0  0  0  0  0  0  0  0  0  0  0
   -0.5192    3.2082    2.5456 C   0  0  0  0  0  0  0  0  0  0  0  0
   -1.5166    3.3903    2.9518 H   0  0  0  0  0  0  0  0  0  0  0  0
    0.2240    3.3791    3.3257 H   0  0  0  0  0  0  0  0  0  0  0  0
   -0.3477    3.9067    1.7239 H   0  0  0  0  0  0  0  0  0  0  0  0
  5  6  2  0  0  0  0
  5  7  1  0  0  0  0
  2  3  1  0  0  0  0
  2  4  1  0  0  0  0
  2  5  1  0  0  0  0
  1  2  1  0  0  0  0
 26 27  2  0  0  0  0
 26 28  1  0  0  0  0
 23 24  1  0  0  0  0
 23 25  1  0  0  0  0
 20 21  1  0  0  0  0
 20 22  1  0  0  0  0
 20 23  1  0  0  0  0
 17 18  1  0  0  0  0
 17 19  1  0  0  0  0
 17 20  1  0  0  0  0
 14 15  1  0  0  0  0
 14 16  1  0  0  0  0
 14 17  1  0  0  0  0
 11 12  1  0  0  0  0
 11 13  1  0  0  0  0
 11 14  1  0  0  0  0
  9 10  1  0  0  0  0
  9 11  1  0  0  0  0
  9 26  1  0  0  0  0
  7  8  1  0  0  0  0
  7  9  1  0  0  0  0
 30 31  1  0  0  0  0
 30 32  1  0  0  0  0
 30 33  1  0  0  0  0
 28 29  1  0  0  0  0
 28 30  1  0  0  0  0
M  END
$$$$
default_name
  -OEChem-02102213163D

 33 32  0     1  0  0  0  0  0999 V2000
   -3.8420   -3.6918    1.5562 H   0  0  0  0  0  0  0  0  0  0  0  0
   -3.8430   -2.7008    1.1032 C   0  0  0  0  0  0  0  0  0  0  0  0
   -4.5510   -2.0608    1.6242 H   0  0  0  0  0  0  0  0  0  0  0  0
   -4.1140   -2.7798    0.0522 H   0  0  0  0  0  0  0  0  0  0  0  0
   -2.4570   -2.1098    1.2172 C   0  0  0  0  0  0  0  0  0  0  0  0
   -1.5600   -2.7438    1.7572 O   0  0  0  0  0  0  0  0  0  0  0  0
   -2.2870   -0.8898    0.7102 N   0  0  0  0  0  0  0  0  0  0  0  0
   -3.0820   -0.4218    0.2992 H   0  0  0  0  0  0  0  0  0  0  0  0
   -1.0240   -0.1468    0.7262 C   0  0  1  0  0  0  0  0  0  0  0  0
   -0.3583   -0.6100    1.4558 H   0  0  0  0  0  0  0  0  0  0  0  0
   -0.3739   -0.2459   -0.6675 C   0  0  0  0  0  0  0  0  0  0  0  0
    0.6872   -0.4697   -0.5403 H   0  0  0  0  0  0  0  0  0  0  0  0
   -0.8314   -1.0677   -1.2201 H   0  0  0  0  0  0  0  0  0  0  0  0
   -0.4962    1.0470   -1.4889 C   0  0  0  0  0  0  0  0  0  0  0  0
   -1.2548    0.9194   -2.2616 H   0  0  0  0  0  0  0  0  0  0  0  0
   -0.7920    1.8648   -0.8293 H   0  0  0  0  0  0  0  0  0  0  0  0
    0.8368    1.3975   -2.1597 C   0  0  0  0  0  0  0  0  0  0  0  0
    1.6085    1.5208   -1.3992 H   0  0  0  0  0  0  0  0  0  0  0  0
    1.1248    0.5938   -2.8381 H   0  0  0  0  0  0  0  0  0  0  0  0
    0.6943    2.6978   -2.9482 C   0  0  0  0  0  0  0  0  0  0  0  0
   -0.0628    2.5712   -3.7204 H   0  0  0  0  0  0  0  0  0  0  0  0
    0.3895    3.4977   -2.2754 H   0  0  0  0  0  0  0  0  0  0  0  0
    1.9612    3.0758   -3.5851 N   0  0  0  0  0  0  0  0  0  0  0  0
    1.8271    3.9292   -4.1073 H   0  0  0  0  0  0  0  0  0  0  0  0
    2.6593    3.2258   -2.8707 H   0  0  0  0  0  0  0  0  0  0  0  0
   -1.2712    1.3099    1.1517 C   0  0  0  0  0  0  0  0  0  0  0  0
   -2.2039    1.9448    0.6639 O   0  0  0  0  0  0  0  0  0  0  0  0
   -0.4306    1.8354    2.0503 N   0  0  0  0  0  0  0  0  0  0  0  0
    0.3001    1.2459    2.4139 H   0  0  0  0  0  0  0  0  0  0  0  0
   -0.5192    3.2082    2.5456 C   0  0  0  0  0  0  0  0  0  0  0  0
   -1.5166    3.3903    2.9518 H   0  0  0  0  0  0  0  0  0  0  0  0
    0.2240    3.3791    3.3257 H   0  0  0  0  0  0  0  0  0  0  0  0
   -0.3477    3.9067    1.7239 H   0  0  0  0  0  0  0  0  0  0  0  0
  5  6  2  0  0  0  0
  5  7  1  0  0  0  0
  2  3  1  0  0  0  0
  2  4  1  0  0  0  0
  2  5  1  0  0  0  0
  1  2  1  0  0  0  0
 26 27  2  0  0  0  0
 26 28  1  0  0  0  0
 23 24  1  0  0  0  0
 23 25  1  0  0  0  0
 20 21  1  0  0  0  0
 20 22  1  0  0  0  0
 20 23  1  0  0  0  0
 17 18  1  0  0  0  0
 17 19  1  0  0  0  0
 17 20  1  0  0  0  0
 14 15  1  0  0  0  0
 14 16  1  0  0  0  0
 14 17  1  0  0  0  0
 11 12  1  0  0  0  0
 11 13  1  0  0  0  0
 11 14  1  0  0  0  0
  9 10  1  0  0  0  0
  9 11  1  0  0  0  0
  9 26  1  0  0  0  0
  7  8  1  0  0  0  0
  7  9  1  0  0  0  0
 30 31  1  0  0  0  0
 30 32  1  0  0  0  0
 30 33  1  0  0  0  0
 28 29  1  0  0  0  0
 28 30  1  0  0  0  0
M  END
$$$$
default_name
  -OEChem-02102213163D

 33 32  0     1  0  0  0  0  0999 V2000
   -3.8420   -3.6918    1.5562 H   0  0  0  0  0  0  0  0  0  0  0  0
   -3.8430   -2.7008    1.1032 C   0  0  0  0  0  0  0  0  0  0  0  0
   -4.5510   -2.0608    1.6242 H   0  0  0  0  0  0  0  0  0  0  0  0
   -4.1140   -2.7798    0.0522 H   0  0  0  0  0  0  0  0  0  0  0  0
   -2.4570   -2.1098    1.2172 C   0  0  0  0  0  0  0  0  0  0  0  0
   -1.5600   -2.7438    1.7572 O   0  0  0  0  0  0  0  0  0  0  0  0
   -2.2870   -0.8898    0.7102 N   0  0  0  0  0  0  0  0  0  0  0  0
   -3.0820   -0.4218    0.2992 H   0  0  0  0  0  0  0  0  0  0  0  0
   -1.0240   -0.1468    0.7262 C   0  0  1  0  0  0  0  0  0  0  0  0
   -0.3583   -0.6100    1.4558 H   0  0  0  0  0  0  0  0  0  0  0  0
   -0.3739   -0.2459   -0.6675 C   0  0  0  0  0  0  0  0  0  0  0  0
    0.6872   -0.4697   -0.5403 H   0  0  0  0  0  0  0  0  0  0  0  0
   -0.8314   -1.0677   -1.2201 H   0  0  0  0  0  0  0  0  0  0  0  0
   -0.4962    1.0470   -1.4889 C   0  0  0  0  0  0  0  0  0  0  0  0
   -1.4159    1.0233   -2.0741 H   0  0  0  0  0  0  0  0  0  0  0  0
   -0.5261    1.9017   -0.8107 H   0  0  0  0  0  0  0  0  0  0  0  0
    0.6924    1.2030   -2.4443 C   0  0  0  0  0  0  0  0  0  0  0  0
    1.6214    1.2205   -1.8737 H   0  0  0  0  0  0  0  0  0  0  0  0
    0.7125    0.3633   -3.1396 H   0  0  0  0  0  0  0  0  0  0  0  0
    0.5587    2.5063   -3.2296 C   0  0  0  0  0  0  0  0  0  0  0  0
   -0.3592    2.4833   -3.8146 H   0  0  0  0  0  0  0  0  0  0  0  0
    0.5206    3.3446   -2.5359 H   0  0  0  0  0  0  0  0  0  0  0  0
    1.6945    2.6989   -4.1385 N   0  0  0  0  0  0  0  0  0  0  0  0
    1.5666    3.5600   -4.6496 H   0  0  0  0  0  0  0  0  0  0  0  0
    2.5461    2.7530   -3.5979 H   0  0  0  0  0  0  0  0  0  0  0  0
   -1.2712    1.3099    1.1517 C   0  0  0  0  0  0  0  0  0  0  0  0
   -2.2039    1.9448    0.6639 O   0  0  0  0  0  0  0  0  0  0  0  0
   -0.4306    1.8354    2.0503 N   0  0  0  0  0  0  0  0  0  0  0  0
    0.3001    1.2459    2.4139 H   0  0  0  0  0  0  0  0  0  0  0  0
   -0.5192    3.2082    2.5456 C   0  0  0  0  0  0  0  0  0  0  0  0
   -1.5166    3.3903    2.9518 H   0  0  0  0  0  0  0  0  0  0  0  0
    0.2240    3.3791    3.3257 H   0  0  0  0  0  0  0  0  0  0  0  0
   -0.3477    3.9067    1.7239 H   0  0  0  0  0  0  0  0  0  0  0  0
  5  6  2  0  0  0  0
  5  7  1  0  0  0  0
  2  3  1  0  0  0  0
  2  4  1  0  0  0  0
  2  5  1  0  0  0  0
  1  2  1  0  0  0  0
 26 27  2  0  0  0  0
 26 28  1  0  0  0  0
 23 24  1  0  0  0  0
 23 25  1  0  0  0  0
 20 21  1  0  0  0  0
 20 22  1  0  0  0  0
 20 23  1  0  0  0  0
 17 18  1  0  0  0  0
 17 19  1  0  0  0  0
 17 20  1  0  0  0  0
 14 15  1  0  0  0  0
 14 16  1  0  0  0  0
 14 17  1  0  0  0  0
 11 12  1  0  0  0  0
 11 13  1  0  0  0  0
 11 14  1  0  0  0  0
  9 10  1  0  0  0  0
  9 11  1  0  0  0  0
  9 26  1  0  0  0  0
  7  8  1  0  0  0  0
  7  9  1  0  0  0  0
 30 31  1  0  0  0  0
 30 32  1  0  0  0  0
 30 33  1  0  0  0  0
 28 29  1  0  0  0  0
 28 30  1  0  0  0  0
M  END
$$$$
default_name
  -OEChem-02102213163D

 33 32  0     1  0  0  0  0  0999 V2000
   -3.8420   -3.6918    1.5562 H   0  0  0  0  0  0  0  0  0  0  0  0
   -3.8430   -2.7008    1.1032 C   0  0  0  0  0  0  0  0  0  0  0  0
   -4.5510   -2.0608    1.6242 H   0  0  0  0  0  0  0  0  0  0  0  0
   -4.1140   -2.7798    0.0522 H   0  0  0  0  0  0  0  0  0  0  0  0
   -2.4570   -2.1098    1.2172 C   0  0  0  0  0  0  0  0  0  0  0  0
   -1.5600   -2.7438    1.7572 O   0  0  0  0  0  0  0  0  0  0  0  0
   -2.2870   -0.8898    0.7102 N   0  0  0  0  0  0  0  0  0  0  0  0
   -3.0820   -0.4218    0.2992 H   0  0  0  0  0  0  0  0  0  0  0  0
   -1.0240   -0.1468    0.7262 C   0  0  1  0  0  0  0  0  0  0  0  0
   -0.3583   -0.6100    1.4558 H   0  0  0  0  0  0  0  0  0  0  0  0
   -0.3739   -0.2459   -0.6675 C   0  0  0  0  0  0  0  0  0  0  0  0
    0.6872   -0.4697   -0.5403 H   0  0  0  0  0  0  0  0  0  0  0  0
   -0.8314   -1.0677   -1.2201 H   0  0  0  0  0  0  0  0  0  0  0  0
   -0.4962    1.0470   -1.4889 C   0  0  0  0  0  0  0  0  0  0  0  0
   -1.5163    1.1498   -1.8601 H   0  0  0  0  0  0  0  0  0  0  0  0
   -0.2601    1.9010   -0.8515 H   0  0  0  0  0  0  0  0  0  0  0  0
    0.4639    1.0292   -2.6838 C   0  0  0  0  0  0  0  0  0  0  0  0
    1.4890    0.9189   -2.3286 H   0  0  0  0  0  0  0  0  0  0  0  0
    0.2167    0.1914   -3.3364 H   0  0  0  0  0  0  0  0  0  0  0  0
    0.3400    2.3342   -3.4678 C   0  0  0  0  0  0  0  0  0  0  0  0
   -0.6782    2.4375   -3.8393 H   0  0  0  0  0  0  0  0  0  0  0  0
    0.5693    3.1732   -2.8129 H   0  0  0  0  0  0  0  0  0  0  0  0
    1.2643    2.3604   -4.6072 N   0  0  0  0  0  0  0  0  0  0  0  0
    1.1459    3.2282   -5.1092 H   0  0  0  0  0  0  0  0  0  0  0  0
    2.2129    2.2971   -4.2659 H   0  0  0  0  0  0  0  0  0  0  0  0
   -1.2712    1.3099    1.1517 C   0  0  0  0  0  0  0  0  0  0  0  0
   -2.2039    1.9448    0.6639 O   0  0  0  0  0  0  0  0  0  0  0  0
   -0.4306    1.8354    2.0503 N   0  0  0  0  0  0  0  0  0  0  0  0
    0.3001    1.2459    2.4139 H   0  0  0  0  0  0  0  0  0  0  0  0
   -0.5192    3.2082    2.5456 C   0  0  0  0  0  0  0  0  0  0  0  0
   -1.5166    3.3903    2.9518 H   0  0  0  0  0  0  0  0  0  0  0  0
    0.2240    3.3791    3.3257 H   0  0  0  0  0  0  0  0  0  0  0  0
   -0.3477    3.9067    1.7239 H   0  0  0  0  0  0  0  0  0  0  0  0
  5  6  2  0  0  0  0
  5  7  1  0  0  0  0
  2  3  1  0  0  0  0
  2  4  1  0  0  0  0
  2  5  1  0  0  0  0
  1  2  1  0  0  0  0
 26 27  2  0  0  0  0
 26 28  1  0  0  0  0
 23 24  1  0  0  0  0
 23 25  1  0  0  0  0
 20 21  1  0  0  0  0
 20 22  1  0  0  0  0
 20 23  1  0  0  0  0
 17 18  1  0  0  0  0
 17 19  1  0  0  0  0
 17 20  1  0  0  0  0
 14 15  1  0  0  0  0
 14 16  1  0  0  0  0
 14 17  1  0  0  0  0
 11 12  1  0  0  0  0
 11 13  1  0  0  0  0
 11 14  1  0  0  0  0
  9 10  1  0  0  0  0
  9 11  1  0  0  0  0
  9 26  1  0  0  0  0
  7  8  1  0  0  0  0
  7  9  1  0  0  0  0
 30 31  1  0  0  0  0
 30 32  1  0  0  0  0
 30 33  1  0  0  0  0
 28 29  1  0  0  0  0
 28 30  1  0  0  0  0
M  END
$$$$
default_name
  -OEChem-02102213163D

 33 32  0     1  0  0  0  0  0999 V2000
   -3.8420   -3.6918    1.5562 H   0  0  0  0  0  0  0  0  0  0  0  0
   -3.8430   -2.7008    1.1032 C   0  0  0  0  0  0  0  0  0  0  0  0
   -4.5510   -2.0608    1.6242 H   0  0  0  0  0  0  0  0  0  0  0  0
   -4.1140   -2.7798    0.0522 H   0  0  0  0  0  0  0  0  0  0  0  0
   -2.4570   -2.1098    1.2172 C   0  0  0  0  0  0  0  0  0  0  0  0
   -1.5600   -2.7438    1.7572 O   0  0  0  0  0  0  0  0  0  0  0  0
   -2.2870   -0.8898    0.7102 N   0  0  0  0  0  0  0  0  0  0  0  0
   -3.0820   -0.4218    0.2992 H   0  0  0  0  0  0  0  0  0  0  0  0
   -1.0240   -0.1468    0.7262 C   0  0  1  0  0  0  0  0  0  0  0  0
   -0.3583   -0.6100    1.4558 H   0  0  0  0  0  0  0  0  0  0  0  0
   -0.3739   -0.2459   -0.6675 C   0  0  0  0  0  0  0  0  0  0  0  0
    0.6016   -0.7251   -0.5621 H   0  0  0  0  0  0  0  0  0  0  0  0
   -0.9938   -0.8730   -1.3097 H   0  0  0  0  0  0  0  0  0  0  0  0
   -0.1670    1.1199   -1.3406 C   0  0  0  0  0  0  0  0  0  0  0  0
   -1.1294    1.6179   -1.4616 H   0  0  0  0  0  0  0  0  0  0  0  0
    0.4777    1.7362   -0.7113 H   0  0  0  0  0  0  0  0  0  0  0  0
    0.4814    0.9577   -2.7201 C   0  0  0  0  0  0  0  0  0  0  0  0
    1.4426    0.4535   -2.6163 H   0  0  0  0  0  0  0  0  0  0  0  0
   -0.1704    0.3624   -3.3603 H   0  0  0  0  0  0  0  0  0  0  0  0
    0.6982    2.3296   -3.3556 C   0  0  0  0  0  0  0  0  0  0  0  0
   -0.2625    2.8275   -3.4773 H   0  0  0  0  0  0  0  0  0  0  0  0
    1.3343    2.9317   -2.7089 H   0  0  0  0  0  0  0  0  0  0  0  0
    1.3401    2.2120   -4.6699 N   0  0  0  0  0  0  0  0  0  0  0  0
    1.4549    3.1336   -5.0654 H   0  0  0  0  0  0  0  0  0  0  0  0
    2.2461    1.7794   -4.5586 H   0  0  0  0  0  0  0  0  0  0  0  0
   -1.2712    1.3099    1.1517 C   0  0  0  0  0  0  0  0  0  0  0  0
   -2.2039    1.9448    0.6639 O   0  0  0  0  0  0  0  0  0  0  0  0
   -0.4306    1.8354    2.0503 N   0  0  0  0  0  0  0  0  0  0  0  0
    0.3001    1.2459    2.4139 H   0  0  0  0  0  0  0  0  0  0  0  0
   -0.5192    3.2082    2.5456 C   0  0  0  0  0  0  0  0  0  0  0  0
   -1.5166    3.3903    2.9518 H   0  0  0  0  0  0  0  0  0  0  0  0
    0.2240    3.3791    3.3257 H   0  0  0  0  0  0  0  0  0  0  0  0
   -0.3477    3.9067    1.7239 H   0  0  0  0  0  0  0  0  0  0  0  0
  5  6  2  0  0  0  0
  5  7  1  0  0  0  0
  2  3  1  0  0  0  0
  2  4  1  0  0  0  0
  2  5  1  0  0  0  0
  1  2  1  0  0  0  0
 26 27  2  0  0  0  0
 26 28  1  0  0  0  0
 23 24  1  0  0  0  0
 23 25  1  0  0  0  0
 20 21  1  0  0  0  0
 20 22  1  0  0  0  0
 20 23  1  0  0  0  0
 17 18  1  0  0  0  0
 17 19  1  0  0  0  0
 17 20  1  0  0  0  0
 14 15  1  0  0  0  0
 14 16  1  0  0  0  0
 14 17  1  0  0  0  0
 11 12  1  0  0  0  0
 11 13  1  0  0  0  0
 11 14  1  0  0  0  0
  9 10  1  0  0  0  0
  9 11  1  0  0  0  0
  9 26  1  0  0  0  0
  7  8  1  0  0  0  0
  7  9  1  0  0  0  0
 30 31  1  0  0  0  0
 30 32  1  0  0  0  0
 30 33  1  0  0  0  0
 28 29  1  0  0  0  0
 28 30  1  0  0  0  0
M  END
$$$$
default_name
  -OEChem-02102213163D

 33 32  0     1  0  0  0  0  0999 V2000
   -3.8420   -3.6918    1.5562 H   0  0  0  0  0  0  0  0  0  0  0  0
   -3.8430   -2.7008    1.1032 C   0  0  0  0  0  0  0  0  0  0  0  0
   -4.5510   -2.0608    1.6242 H   0  0  0  0  0  0  0  0  0  0  0  0
   -4.1140   -2.7798    0.0522 H   0  0  0  0  0  0  0  0  0  0  0  0
   -2.4570   -2.1098    1.2172 C   0  0  0  0  0  0  0  0  0  0  0  0
   -1.5600   -2.7438    1.7572 O   0  0  0  0  0  0  0  0  0  0  0  0
   -2.2870   -0.8898    0.7102 N   0  0  0  0  0  0  0  0  0  0  0  0
   -3.0820   -0.4218    0.2992 H   0  0  0  0  0  0  0  0  0  0  0  0
   -1.0240   -0.1468    0.7262 C   0  0  1  0  0  0  0  0  0  0  0  0
   -0.3583   -0.6100    1.4558 H   0  0  0  0  0  0  0  0  0  0  0  0
   -0.3739   -0.2459   -0.6675 C   0  0  0  0  0  0  0  0  0  0  0  0
    0.6016   -0.7251   -0.5621 H   0  0  0  0  0  0  0  0  0  0  0  0
   -0.9938   -0.8730   -1.3097 H   0  0  0  0  0  0  0  0  0  0  0  0
   -0.1670    1.1199   -1.3406 C   0  0  0  0  0  0  0  0  0  0  0  0
   -1.0663    1.7253   -1.2242 H   0  0  0  0  0  0  0  0  0  0  0  0
    0.6720    1.6311   -0.8649 H   0  0  0  0  0  0  0  0  0  0  0  0
    0.1260    0.9544   -2.8360 C   0  0  0  0  0  0  0  0  0  0  0  0
    1.0196    0.3437   -2.9690 H   0  0  0  0  0  0  0  0  0  0  0  0
   -0.7198    0.4654   -3.3203 H   0  0  0  0  0  0  0  0  0  0  0  0
    0.3518    2.3234   -3.4747 C   0  0  0  0  0  0  0  0  0  0  0  0
   -0.5460    2.9286   -3.3594 H   0  0  0  0  0  0  0  0  0  0  0  0
    1.1849    2.8205   -2.9805 H   0  0  0  0  0  0  0  0  0  0  0  0
    0.6587    2.1997   -4.9043 N   0  0  0  0  0  0  0  0  0  0  0  0
    0.7878    3.1212   -5.2958 H   0  0  0  0  0  0  0  0  0  0  0  0
    1.5090    1.6658   -5.0157 H   0  0  0  0  0  0  0  0  0  0  0  0
   -1.2712    1.3099    1.1517 C   0  0  0  0  0  0  0  0  0  0  0  0
   -2.2039    1.9448    0.6639 O   0  0  0  0  0  0  0  0  0  0  0  0
   -0.4306    1.8354    2.0503 N   0  0  0  0  0  0  0  0  0  0  0  0
    0.3001    1.2459    2.4139 H   0  0  0  0  0  0  0  0  0  0  0  0
   -0.5192    3.2082    2.5456 C   0  0  0  0  0  0  0  0  0  0  0  0
   -1.5166    3.3903    2.9518 H   0  0  0  0  0  0  0  0  0  0  0  0
    0.2240    3.3791    3.3257 H   0  0  0  0  0  0  0  0  0  0  0  0
   -0.3477    3.9067    1.7239 H   0  0  0  0  0  0  0  0  0  0  0  0
  5  6  2  0  0  0  0
  5  7  1  0  0  0  0
  2  3  1  0  0  0  0
  2  4  1  0  0  0  0
  2  5  1  0  0  0  0
  1  2  1  0  0  0  0
 26 27  2  0  0  0  0
 26 28  1  0  0  0  0
 23 24  1  0  0  0  0
 23 25  1  0  0  0  0
 20 21  1  0  0  0  0
 20 22  1  0  0  0  0
 20 23  1  0  0  0  0
 17 18  1  0  0  0  0
 17 19  1  0  0  0  0
 17 20  1  0  0  0  0
 14 15  1  0  0  0  0
 14 16  1  0  0  0  0
 14 17  1  0  0  0  0
 11 12  1  0  0  0  0
 11 13  1  0  0  0  0
 11 14  1  0  0  0  0
  9 10  1  0  0  0  0
  9 11  1  0  0  0  0
  9 26  1  0  0  0  0
  7  8  1  0  0  0  0
  7  9  1  0  0  0  0
 30 31  1  0  0  0  0
 30 32  1  0  0  0  0
 30 33  1  0  0  0  0
 28 29  1  0  0  0  0
 28 30  1  0  0  0  0
M  END
$$$$
default_name
  -OEChem-02102213163D

 33 32  0     1  0  0  0  0  0999 V2000
   -3.8420   -3.6918    1.5562 H   0  0  0  0  0  0  0  0  0  0  0  0
   -3.8430   -2.7008    1.1032 C   0  0  0  0  0  0  0  0  0  0  0  0
   -4.5510   -2.0608    1.6242 H   0  0  0  0  0  0  0  0  0  0  0  0
   -4.1140   -2.7798    0.0522 H   0  0  0  0  0  0  0  0  0  0  0  0
   -2.4570   -2.1098    1.2172 C   0  0  0  0  0  0  0  0  0  0  0  0
   -1.5600   -2.7438    1.7572 O   0  0  0  0  0  0  0  0  0  0  0  0
   -2.2870   -0.8898    0.7102 N   0  0  0  0  0  0  0  0  0  0  0  0
   -3.0820   -0.4218    0.2992 H   0  0  0  0  0  0  0  0  0  0  0  0
   -1.0240   -0.1468    0.7262 C   0  0  1  0  0  0  0  0  0  0  0  0
   -0.3583   -0.6100    1.4558 H   0  0  0  0  0  0  0  0  0  0  0  0
   -0.3739   -0.2459   -0.6675 C   0  0  0  0  0  0  0  0  0  0  0  0
    0.6016   -0.7251   -0.5621 H   0  0  0  0  0  0  0  0  0  0  0  0
   -0.9938   -0.8730   -1.3097 H   0  0  0  0  0  0  0  0  0  0  0  0
   -0.1670    1.1199   -1.3406 C   0  0  0  0  0  0  0  0  0  0  0  0
   -0.9386    1.8137   -1.0056 H   0  0  0  0  0  0  0  0  0  0  0  0
    0.8125    1.5128   -1.0616 H   0  0  0  0  0  0  0  0  0  0  0  0
   -0.2442    0.9955   -2.8664 C   0  0  0  0  0  0  0  0  0  0  0  0
    0.5174    0.2979   -3.2163 H   0  0  0  0  0  0  0  0  0  0  0  0
   -1.2296    0.6258   -3.1516 H   0  0  0  0  0  0  0  0  0  0  0  0
   -0.0109    2.3608   -3.5104 C   0  0  0  0  0  0  0  0  0  0  0  0
   -0.7812    3.0542   -3.1768 H   0  0  0  0  0  0  0  0  0  0  0  0
    0.9654    2.7395   -3.2123 H   0  0  0  0  0  0  0  0  0  0  0  0
   -0.0547    2.2732   -4.9745 N   0  0  0  0  0  0  0  0  0  0  0  0
    0.0889    3.1929   -5.3652 H   0  0  0  0  0  0  0  0  0  0  0  0
    0.6789    1.6556   -5.2916 H   0  0  0  0  0  0  0  0  0  0  0  0
   -1.2712    1.3099    1.1517 C   0  0  0  0  0  0  0  0  0  0  0  0
   -2.2039    1.9448    0.6639 O   0  0  0  0  0  0  0  0  0  0  0  0
   -0.4306    1.8354    2.0503 N   0  0  0  0  0  0  0  0  0  0  0  0
    0.3001    1.2459    2.4139 H   0  0  0  0  0  0  0  0  0  0  0  0
   -0.5192    3.2082    2.5456 C   0  0  0  0  0  0  0  0  0  0  0  0
   -1.5166    3.3903    2.9518 H   0  0  0  0  0  0  0  0  0  0  0  0
    0.2240    3.3791    3.3257 H   0  0  0  0  0  0  0  0  0  0  0  0
   -0.3477    3.9067    1.7239 H   0  0  0  0  0  0  0  0  0  0  0  0
  5  6  2  0  0  0  0
  5  7  1  0  0  0  0
  2  3  1  0  0  0  0
  2  4  1  0  0  0  0
  2  5  1  0  0  0  0
  1  2  1  0  0  0  0
 26 27  2  0  0  0  0
 26 28  1  0  0  0  0
 23 24  1  0  0  0  0
 23 25  1  0  0  0  0
 20 21  1  0  0  0  0
 20 22  1  0  0  0  0
 20 23  1  0  0  0  0
 17 18  1  0  0  0  0
 17 19  1  0  0  0  0
 17 20  1  0  0  0  0
 14 15  1  0  0  0  0
 14 16  1  0  0  0  0
 14 17  1  0  0  0  0
 11 12  1  0  0  0  0
 11 13  1  0  0  0  0
 11 14  1  0  0  0  0
  9 10  1  0  0  0  0
  9 11  1  0  0  0  0
  9 26  1  0  0  0  0
  7  8  1  0  0  0  0
  7  9  1  0  0  0  0
 30 31  1  0  0  0  0
 30 32  1  0  0  0  0
 30 33  1  0  0  0  0
 28 29  1  0  0  0  0
 28 30  1  0  0  0  0
M  END
$$$$
default_name
  -OEChem-02102213163D

 33 32  0     1  0  0  0  0  0999 V2000
   -3.8420   -3.6918    1.5562 H   0  0  0  0  0  0  0  0  0  0  0  0
   -3.8430   -2.7008    1.1032 C   0  0  0  0  0  0  0  0  0  0  0  0
   -4.5510   -2.0608    1.6242 H   0  0  0  0  0  0  0  0  0  0  0  0
   -4.1140   -2.7798    0.0522 H   0  0  0  0  0  0  0  0  0  0  0  0
   -2.4570   -2.1098    1.2172 C   0  0  0  0  0  0  0  0  0  0  0  0
   -1.5600   -2.7438    1.7572 O   0  0  0  0  0  0  0  0  0  0  0  0
   -2.2870   -0.8898    0.7102 N   0  0  0  0  0  0  0  0  0  0  0  0
   -3.0820   -0.4218    0.2992 H   0  0  0  0  0  0  0  0  0  0  0  0
   -1.0240   -0.1468    0.7262 C   0  0  1  0  0  0  0  0  0  0  0  0
   -0.3583   -0.6100    1.4558 H   0  0  0  0  0  0  0  0  0  0  0  0
   -0.3739   -0.2459   -0.6675 C   0  0  0  0  0  0  0  0  0  0  0  0
    0.6016   -0.7251   -0.5621 H   0  0  0  0  0  0  0  0  0  0  0  0
   -0.9938   -0.8730   -1.3097 H   0  0  0  0  0  0  0  0  0  0  0  0
   -0.1670    1.1199   -1.3406 C   0  0  0  0  0  0  0  0  0  0  0  0
   -0.7549    1.8769   -0.8208 H   0  0  0  0  0  0  0  0  0  0  0  0
    0.8894    1.3896   -1.2881 H   0  0  0  0  0  0  0  0  0  0  0  0
   -0.6042    1.0783   -2.8092 C   0  0  0  0  0  0  0  0  0  0  0  0
   -0.0298    0.3193   -3.3412 H   0  0  0  0  0  0  0  0  0  0  0  0
   -1.6651    0.8326   -2.8658 H   0  0  0  0  0  0  0  0  0  0  0  0
   -0.3652    2.4393   -3.4600 C   0  0  0  0  0  0  0  0  0  0  0  0
   -0.9523    3.1958   -2.9420 H   0  0  0  0  0  0  0  0  0  0  0  0
    0.6909    2.6943   -3.3886 H   0  0  0  0  0  0  0  0  0  0  0  0
   -0.7517    2.4276   -4.8756 N   0  0  0  0  0  0  0  0  0  0  0  0
   -0.5939    3.3437   -5.2690 H   0  0  0  0  0  0  0  0  0  0  0  0
   -0.1874    1.7495   -5.3676 H   0  0  0  0  0  0  0  0  0  0  0  0
   -1.2712    1.3099    1.1517 C   0  0  0  0  0  0  0  0  0  0  0  0
   -2.2039    1.9448    0.6639 O   0  0  0  0  0  0  0  0  0  0  0  0
   -0.4306    1.8354    2.0503 N   0  0  0  0  0  0  0  0  0  0  0  0
    0.3001    1.2459    2.4139 H   0  0  0  0  0  0  0  0  0  0  0  0
   -0.5192    3.2082    2.5456 C   0  0  0  0  0  0  0  0  0  0  0  0
   -1.5166    3.3903    2.9518 H   0  0  0  0  0  0  0  0  0  0  0  0
    0.2240    3.3791    3.3257 H   0  0  0  0  0  0  0  0  0  0  0  0
   -0.3477    3.9067    1.7239 H   0  0  0  0  0  0  0  0  0  0  0  0
  5  6  2  0  0  0  0
  5  7  1  0  0  0  0
  2  3  1  0  0  0  0
  2  4  1  0  0  0  0
  2  5  1  0  0  0  0
  1  2  1  0  0  0  0
 26 27  2  0  0  0  0
 26 28  1  0  0  0  0
 23 24  1  0  0  0  0
 23 25  1  0  0  0  0
 20 21  1  0  0  0  0
 20 22  1  0  0  0  0
 20 23  1  0  0  0  0
 17 18  1  0  0  0  0
 17 19  1  0  0  0  0
 17 20  1  0  0  0  0
 14 15  1  0  0  0  0
 14 16  1  0  0  0  0
 14 17  1  0  0  0  0
 11 12  1  0  0  0  0
 11 13  1  0  0  0  0
 11 14  1  0  0  0  0
  9 10  1  0  0  0  0
  9 11  1  0  0  0  0
  9 26  1  0  0  0  0
  7  8  1  0  0  0  0
  7  9  1  0  0  0  0
 30 31  1  0  0  0  0
 30 32  1  0  0  0  0
 30 33  1  0  0  0  0
 28 29  1  0  0  0  0
 28 30  1  0  0  0  0
M  END
$$$$
default_name
  -OEChem-02102213163D

 33 32  0     1  0  0  0  0  0999 V2000
   -3.8420   -3.6918    1.5562 H   0  0  0  0  0  0  0  0  0  0  0  0
   -3.8430   -2.7008    1.1032 C   0  0  0  0  0  0  0  0  0  0  0  0
   -4.5510   -2.0608    1.6242 H   0  0  0  0  0  0  0  0  0  0  0  0
   -4.1140   -2.7798    0.0522 H   0  0  0  0  0  0  0  0  0  0  0  0
   -2.4570   -2.1098    1.2172 C   0  0  0  0  0  0  0  0  0  0  0  0
   -1.5600   -2.7438    1.7572 O   0  0  0  0  0  0  0  0  0  0  0  0
   -2.2870   -0.8898    0.7102 N   0  0  0  0  0  0  0  0  0  0  0  0
   -3.0820   -0.4218    0.2992 H   0  0  0  0  0  0  0  0  0  0  0  0
   -1.0240   -0.1468    0.7262 C   0  0  1  0  0  0  0  0  0  0  0  0
   -0.3583   -0.6100    1.4558 H   0  0  0  0  0  0  0  0  0  0  0  0
   -0.3739   -0.2459   -0.6675 C   0  0  0  0  0  0  0  0  0  0  0  0
    0.6016   -0.7251   -0.5621 H   0  0  0  0  0  0  0  0  0  0  0  0
   -0.9938   -0.8730   -1.3097 H   0  0  0  0  0  0  0  0  0  0  0  0
   -0.1670    1.1199   -1.3406 C   0  0  0  0  0  0  0  0  0  0  0  0
   -0.5278    1.9108   -0.6824 H   0  0  0  0  0  0  0  0  0  0  0  0
    0.8977    1.2697   -1.5289 H   0  0  0  0  0  0  0  0  0  0  0  0
   -0.9294    1.1970   -2.6682 C   0  0  0  0  0  0  0  0  0  0  0  0
   -0.5846    0.4063   -3.3352 H   0  0  0  0  0  0  0  0  0  0  0  0
   -1.9965    1.0718   -2.4824 H   0  0  0  0  0  0  0  0  0  0  0  0
   -0.6869    2.5535   -3.3272 C   0  0  0  0  0  0  0  0  0  0  0  0
   -1.0474    3.3439   -2.6708 H   0  0  0  0  0  0  0  0  0  0  0  0
    0.3801    2.6878   -3.4973 H   0  0  0  0  0  0  0  0  0  0  0  0
   -1.3847    2.6522   -4.6143 N   0  0  0  0  0  0  0  0  0  0  0  0
   -1.2143    3.5635   -5.0137 H   0  0  0  0  0  0  0  0  0  0  0  0
   -1.0311    1.9410   -5.2383 H   0  0  0  0  0  0  0  0  0  0  0  0
   -1.2712    1.3099    1.1517 C   0  0  0  0  0  0  0  0  0  0  0  0
   -2.2039    1.9448    0.6639 O   0  0  0  0  0  0  0  0  0  0  0  0
   -0.4306    1.8354    2.0503 N   0  0  0  0  0  0  0  0  0  0  0  0
    0.3001    1.2459    2.4139 H   0  0  0  0  0  0  0  0  0  0  0  0
   -0.5192    3.2082    2.5456 C   0  0  0  0  0  0  0  0  0  0  0  0
   -1.5166    3.3903    2.9518 H   0  0  0  0  0  0  0  0  0  0  0  0
    0.2240    3.3791    3.3257 H   0  0  0  0  0  0  0  0  0  0  0  0
   -0.3477    3.9067    1.7239 H   0  0  0  0  0  0  0  0  0  0  0  0
  5  6  2  0  0  0  0
  5  7  1  0  0  0  0
  2  3  1  0  0  0  0
  2  4  1  0  0  0  0
  2  5  1  0  0  0  0
  1  2  1  0  0  0  0
 26 27  2  0  0  0  0
 26 28  1  0  0  0  0
 23 24  1  0  0  0  0
 23 25  1  0  0  0  0
 20 21  1  0  0  0  0
 20 22  1  0  0  0  0
 20 23  1  0  0  0  0
 17 18  1  0  0  0  0
 17 19  1  0  0  0  0
 17 20  1  0  0  0  0
 14 15  1  0  0  0  0
 14 16  1  0  0  0  0
 14 17  1  0  0  0  0
 11 12  1  0  0  0  0
 11 13  1  0  0  0  0
 11 14  1  0  0  0  0
  9 10  1  0  0  0  0
  9 11  1  0  0  0  0
  9 26  1  0  0  0  0
  7  8  1  0  0  0  0
  7  9  1  0  0  0  0
 30 31  1  0  0  0  0
 30 32  1  0  0  0  0
 30 33  1  0  0  0  0
 28 29  1  0  0  0  0
 28 30  1  0  0  0  0
M  END
$$$$
default_name
  -OEChem-02102213163D

 33 32  0     1  0  0  0  0  0999 V2000
   -3.8420   -3.6918    1.5562 H   0  0  0  0  0  0  0  0  0  0  0  0
   -3.8430   -2.7008    1.1032 C   0  0  0  0  0  0  0  0  0  0  0  0
   -4.5510   -2.0608    1.6242 H   0  0  0  0  0  0  0  0  0  0  0  0
   -4.1140   -2.7798    0.0522 H   0  0  0  0  0  0  0  0  0  0  0  0
   -2.4570   -2.1098    1.2172 C   0  0  0  0  0  0  0  0  0  0  0  0
   -1.5600   -2.7438    1.7572 O   0  0  0  0  0  0  0  0  0  0  0  0
   -2.2870   -0.8898    0.7102 N   0  0  0  0  0  0  0  0  0  0  0  0
   -3.0820   -0.4218    0.2992 H   0  0  0  0  0  0  0  0  0  0  0  0
   -1.0240   -0.1468    0.7262 C   0  0  1  0  0  0  0  0  0  0  0  0
   -0.3583   -0.6100    1.4558 H   0  0  0  0  0  0  0  0  0  0  0  0
   -0.3739   -0.2459   -0.6675 C   0  0  0  0  0  0  0  0  0  0  0  0
    0.6016   -0.7251   -0.5621 H   0  0  0  0  0  0  0  0  0  0  0  0
   -0.9938   -0.8730   -1.3097 H   0  0  0  0  0  0  0  0  0  0  0  0
   -0.1670    1.1199   -1.3406 C   0  0  0  0  0  0  0  0  0  0  0  0
   -0.2728    1.9129   -0.5997 H   0  0  0  0  0  0  0  0  0  0  0  0
    0.8367    1.1613   -1.7675 H   0  0  0  0  0  0  0  0  0  0  0  0
   -1.1976    1.3437   -2.4530 C   0  0  0  0  0  0  0  0  0  0  0  0
   -1.1093    0.5530   -3.1988 H   0  0  0  0  0  0  0  0  0  0  0  0
   -2.2013    1.3270   -2.0274 H   0  0  0  0  0  0  0  0  0  0  0  0
   -0.9542    2.6956   -3.1209 C   0  0  0  0  0  0  0  0  0  0  0  0
   -1.0601    3.4882   -2.3819 H   0  0  0  0  0  0  0  0  0  0  0  0
    0.0541    2.7206   -3.5310 H   0  0  0  0  0  0  0  0  0  0  0  0
   -1.9105    2.9319   -4.2085 N   0  0  0  0  0  0  0  0  0  0  0  0
   -1.7299    3.8372   -4.6168 H   0  0  0  0  0  0  0  0  0  0  0  0
   -1.7946    2.2171   -4.9128 H   0  0  0  0  0  0  0  0  0  0  0  0
   -1.2712    1.3099    1.1517 C   0  0  0  0  0  0  0  0  0  0  0  0
   -2.2039    1.9448    0.6639 O   0  0  0  0  0  0  0  0  0  0  0  0
   -0.4306    1.8354    2.0503 N   0  0  0  0  0  0  0  0  0  0  0  0
    0.3001    1.2459    2.4139 H   0  0  0  0  0  0  0  0  0  0  0  0
   -0.5192    3.2082    2.5456 C   0  0  0  0  0  0  0  0  0  0  0  0
   -1.5166    3.3903    2.9518 H   0  0  0  0  0  0  0  0  0  0  0  0
    0.2240    3.3791    3.3257 H   0  0  0  0  0  0  0  0  0  0  0  0
   -0.3477    3.9067    1.7239 H   0  0  0  0  0  0  0  0  0  0  0  0
  5  6  2  0  0  0  0
  5  7  1  0  0  0  0
  2  3  1  0  0  0  0
  2  4  1  0  0  0  0
  2  5  1  0  0  0  0
  1  2  1  0  0  0  0
 26 27  2  0  0  0  0
 26 28  1  0  0  0  0
 23 24  1  0  0  0  0
 23 25  1  0  0  0  0
 20 21  1  0  0  0  0
 20 22  1  0  0  0  0
 20 23  1  0  0  0  0
 17 18  1  0  0  0  0
 17 19  1  0  0  0  0
 17 20  1  0  0  0  0
 14 15  1  0  0  0  0
 14 16  1  0  0  0  0
 14 17  1  0  0  0  0
 11 12  1  0  0  0  0
 11 13  1  0  0  0  0
 11 14  1  0  0  0  0
  9 10  1  0  0  0  0
  9 11  1  0  0  0  0
  9 26  1  0  0  0  0
  7  8  1  0  0  0  0
  7  9  1  0  0  0  0
 30 31  1  0  0  0  0
 30 32  1  0  0  0  0
 30 33  1  0  0  0  0
 28 29  1  0  0  0  0
 28 30  1  0  0  0  0
M  END
$$$$
default_name
  -OEChem-02102213163D

 33 32  0     1  0  0  0  0  0999 V2000
   -3.8420   -3.6918    1.5562 H   0  0  0  0  0  0  0  0  0  0  0  0
   -3.8430   -2.7008    1.1032 C   0  0  0  0  0  0  0  0  0  0  0  0
   -4.5510   -2.0608    1.6242 H   0  0  0  0  0  0  0  0  0  0  0  0
   -4.1140   -2.7798    0.0522 H   0  0  0  0  0  0  0  0  0  0  0  0
   -2.4570   -2.1098    1.2172 C   0  0  0  0  0  0  0  0  0  0  0  0
   -1.5600   -2.7438    1.7572 O   0  0  0  0  0  0  0  0  0  0  0  0
   -2.2870   -0.8898    0.7102 N   0  0  0  0  0  0  0  0  0  0  0  0
   -3.0820   -0.4218    0.2992 H   0  0  0  0  0  0  0  0  0  0  0  0
   -1.0240   -0.1468    0.7262 C   0  0  1  0  0  0  0  0  0  0  0  0
   -0.3583   -0.6100    1.4558 H   0  0  0  0  0  0  0  0  0  0  0  0
   -0.3739   -0.2459   -0.6675 C   0  0  0  0  0  0  0  0  0  0  0  0
    0.6016   -0.7251   -0.5621 H   0  0  0  0  0  0  0  0  0  0  0  0
   -0.9938   -0.8730   -1.3097 H   0  0  0  0  0  0  0  0  0  0  0  0
   -0.1670    1.1199   -1.3406 C   0  0  0  0  0  0  0  0  0  0  0  0
   -0.0072    1.8831   -0.5784 H   0  0  0  0  0  0  0  0  0  0  0  0
    0.7106    1.0719   -1.9878 H   0  0  0  0  0  0  0  0  0  0  0  0
   -1.3905    1.5082   -2.1784 C   0  0  0  0  0  0  0  0  0  0  0  0
   -1.5681    0.7495   -2.9412 H   0  0  0  0  0  0  0  0  0  0  0  0
   -2.2656    1.5809   -1.5320 H   0  0  0  0  0  0  0  0  0  0  0  0
   -1.1488    2.8561   -2.8552 C   0  0  0  0  0  0  0  0  0  0  0  0
   -0.9895    3.6190   -2.0948 H   0  0  0  0  0  0  0  0  0  0  0  0
   -0.2648    2.7904   -3.4874 H   0  0  0  0  0  0  0  0  0  0  0  0
   -2.2934    3.2475   -3.6858 N   0  0  0  0  0  0  0  0  0  0  0  0
   -2.1056    4.1463   -4.1052 H   0  0  0  0  0  0  0  0  0  0  0  0
   -2.4259    2.5590   -4.4130 H   0  0  0  0  0  0  0  0  0  0  0  0
   -1.2712    1.3099    1.1517 C   0  0  0  0  0  0  0  0  0  0  0  0
   -2.2039    1.9448    0.6639 O   0  0  0  0  0  0  0  0  0  0  0  0
   -0.4306    1.8354    2.0503 N   0  0  0  0  0  0  0  0  0  0  0  0
    0.3001    1.2459    2.4139 H   0  0  0  0  0  0  0  0  0  0  0  0
   -0.5192    3.2082    2.5456 C   0  0  0  0  0  0  0  0  0  0  0  0
   -1.5166    3.3903    2.9518 H   0  0  0  0  0  0  0  0  0  0  0  0
    0.2240    3.3791    3.3257 H   0  0  0  0  0  0  0  0  0  0  0  0
   -0.3477    3.9067    1.7239 H   0  0  0  0  0  0  0  0  0  0  0  0
  5  6  2  0  0  0  0
  5  7  1  0  0  0  0
  2  3  1  0  0  0  0
  2  4  1  0  0  0  0
  2  5  1  0  0  0  0
  1  2  1  0  0  0  0
 26 27  2  0  0  0  0
 26 28  1  0  0  0  0
 23 24  1  0  0  0  0
 23 25  1  0  0  0  0
 20 21  1  0  0  0  0
 20 22  1  0  0  0  0
 20 23  1  0  0  0  0
 17 18  1  0  0  0  0
 17 19  1  0  0  0  0
 17 20  1  0  0  0  0
 14 15  1  0  0  0  0
 14 16  1  0  0  0  0
 14 17  1  0  0  0  0
 11 12  1  0  0  0  0
 11 13  1  0  0  0  0
 11 14  1  0  0  0  0
  9 10  1  0  0  0  0
  9 11  1  0  0  0  0
  9 26  1  0  0  0  0
  7  8  1  0  0  0  0
  7  9  1  0  0  0  0
 30 31  1  0  0  0  0
 30 32  1  0  0  0  0
 30 33  1  0  0  0  0
 28 29  1  0  0  0  0
 28 30  1  0  0  0  0
M  END
$$$$
default_name
  -OEChem-02102213163D

 33 32  0     1  0  0  0  0  0999 V2000
   -3.8420   -3.6918    1.5562 H   0  0  0  0  0  0  0  0  0  0  0  0
   -3.8430   -2.7008    1.1032 C   0  0  0  0  0  0  0  0  0  0  0  0
   -4.5510   -2.0608    1.6242 H   0  0  0  0  0  0  0  0  0  0  0  0
   -4.1140   -2.7798    0.0522 H   0  0  0  0  0  0  0  0  0  0  0  0
   -2.4570   -2.1098    1.2172 C   0  0  0  0  0  0  0  0  0  0  0  0
   -1.5600   -2.7438    1.7572 O   0  0  0  0  0  0  0  0  0  0  0  0
   -2.2870   -0.8898    0.7102 N   0  0  0  0  0  0  0  0  0  0  0  0
   -3.0820   -0.4218    0.2992 H   0  0  0  0  0  0  0  0  0  0  0  0
   -1.0240   -0.1468    0.7262 C   0  0  1  0  0  0  0  0  0  0  0  0
   -0.3583   -0.6100    1.4558 H   0  0  0  0  0  0  0  0  0  0  0  0
   -0.3739   -0.2459   -0.6675 C   0  0  0  0  0  0  0  0  0  0  0  0
    0.6016   -0.7251   -0.5621 H   0  0  0  0  0  0  0  0  0  0  0  0
   -0.9938   -0.8730   -1.3097 H   0  0  0  0  0  0  0  0  0  0  0  0
   -0.1670    1.1199   -1.3406 C   0  0  0  0  0  0  0  0  0  0  0  0
    0.2509    1.8235   -0.6200 H   0  0  0  0  0  0  0  0  0  0  0  0
    0.5280    1.0074   -2.1747 H   0  0  0  0  0  0  0  0  0  0  0  0
   -1.4950    1.6795   -1.8630 C   0  0  0  0  0  0  0  0  0  0  0  0
   -1.9297    0.9823   -2.5800 H   0  0  0  0  0  0  0  0  0  0  0  0
   -2.1849    1.8162   -1.0297 H   0  0  0  0  0  0  0  0  0  0  0  0
   -1.2574    3.0238   -2.5482 C   0  0  0  0  0  0  0  0  0  0  0  0
   -0.8405    3.7273   -1.8292 H   0  0  0  0  0  0  0  0  0  0  0  0
   -0.5549    2.8924   -3.3695 H   0  0  0  0  0  0  0  0  0  0  0  0
   -2.5072    3.5775   -3.0819 N   0  0  0  0  0  0  0  0  0  0  0  0
   -2.3157    4.4695   -3.5139 H   0  0  0  0  0  0  0  0  0  0  0  0
   -2.8819    2.9434   -3.7731 H   0  0  0  0  0  0  0  0  0  0  0  0
   -1.2712    1.3099    1.1517 C   0  0  0  0  0  0  0  0  0  0  0  0
   -2.2039    1.9448    0.6639 O   0  0  0  0  0  0  0  0  0  0  0  0
   -0.4306    1.8354    2.0503 N   0  0  0  0  0  0  0  0  0  0  0  0
    0.3001    1.2459    2.4139 H   0  0  0  0  0  0  0  0  0  0  0  0
   -0.5192    3.2082    2.5456 C   0  0  0  0  0  0  0  0  0  0  0  0
   -1.5166    3.3903    2.9518 H   0  0  0  0  0  0  0  0  0  0  0  0
    0.2240    3.3791    3.3257 H   0  0  0  0  0  0  0  0  0  0  0  0
   -0.3477    3.9067    1.7239 H   0  0  0  0  0  0  0  0  0  0  0  0
  5  6  2  0  0  0  0
  5  7  1  0  0  0  0
  2  3  1  0  0  0  0
  2  4  1  0  0  0  0
  2  5  1  0  0  0  0
  1  2  1  0  0  0  0
 26 27  2  0  0  0  0
 26 28  1  0  0  0  0
 23 24  1  0  0  0  0
 23 25  1  0  0  0  0
 20 21  1  0  0  0  0
 20 22  1  0  0  0  0
 20 23  1  0  0  0  0
 17 18  1  0  0  0  0
 17 19  1  0  0  0  0
 17 20  1  0  0  0  0
 14 15  1  0  0  0  0
 14 16  1  0  0  0  0
 14 17  1  0  0  0  0
 11 12  1  0  0  0  0
 11 13  1  0  0  0  0
 11 14  1  0  0  0  0
  9 10  1  0  0  0  0
  9 11  1  0  0  0  0
  9 26  1  0  0  0  0
  7  8  1  0  0  0  0
  7  9  1  0  0  0  0
 30 31  1  0  0  0  0
 30 32  1  0  0  0  0
 30 33  1  0  0  0  0
 28 29  1  0  0  0  0
 28 30  1  0  0  0  0
M  END
$$$$
default_name
  -OEChem-02102213163D

 33 32  0     1  0  0  0  0  0999 V2000
   -3.8420   -3.6918    1.5562 H   0  0  0  0  0  0  0  0  0  0  0  0
   -3.8430   -2.7008    1.1032 C   0  0  0  0  0  0  0  0  0  0  0  0
   -4.5510   -2.0608    1.6242 H   0  0  0  0  0  0  0  0  0  0  0  0
   -4.1140   -2.7798    0.0522 H   0  0  0  0  0  0  0  0  0  0  0  0
   -2.4570   -2.1098    1.2172 C   0  0  0  0  0  0  0  0  0  0  0  0
   -1.5600   -2.7438    1.7572 O   0  0  0  0  0  0  0  0  0  0  0  0
   -2.2870   -0.8898    0.7102 N   0  0  0  0  0  0  0  0  0  0  0  0
   -3.0820   -0.4218    0.2992 H   0  0  0  0  0  0  0  0  0  0  0  0
   -1.0240   -0.1468    0.7262 C   0  0  1  0  0  0  0  0  0  0  0  0
   -0.3583   -0.6100    1.4558 H   0  0  0  0  0  0  0  0  0  0  0  0
   -0.3739   -0.2459   -0.6675 C   0  0  0  0  0  0  0  0  0  0  0  0
    0.6016   -0.7251   -0.5621 H   0  0  0  0  0  0  0  0  0  0  0  0
   -0.9938   -0.8730   -1.3097 H   0  0  0  0  0  0  0  0  0  0  0  0
   -0.1670    1.1199   -1.3406 C   0  0  0  0  0  0  0  0  0  0  0  0
    0.4839    1.7381   -0.7216 H   0  0  0  0  0  0  0  0  0  0  0  0
    0.3014    0.9724   -2.3154 H   0  0  0  0  0  0  0  0  0  0  0  0
   -1.5040    1.8457   -1.5284 C   0  0  0  0  0  0  0  0  0  0  0  0
   -2.1695    1.2356   -2.1397 H   0  0  0  0  0  0  0  0  0  0  0  0
   -1.9647    2.0168   -0.5550 H   0  0  0  0  0  0  0  0  0  0  0  0
   -1.2727    3.1875   -2.2208 C   0  0  0  0  0  0  0  0  0  0  0  0
   -0.6232    3.8057   -1.6032 H   0  0  0  0  0  0  0  0  0  0  0  0
   -0.7964    3.0198   -3.1854 H   0  0  0  0  0  0  0  0  0  0  0  0
   -2.5373    3.8994   -2.4378 N   0  0  0  0  0  0  0  0  0  0  0  0
   -2.3460    4.7849   -2.8831 H   0  0  0  0  0  0  0  0  0  0  0  0
   -3.1316    3.3442   -3.0368 H   0  0  0  0  0  0  0  0  0  0  0  0
   -1.2712    1.3099    1.1517 C   0  0  0  0  0  0  0  0  0  0  0  0
   -2.2039    1.9448    0.6639 O   0  0  0  0  0  0  0  0  0  0  0  0
   -0.4306    1.8354    2.0503 N   0  0  0  0  0  0  0  0  0  0  0  0
    0.3001    1.2459    2.4139 H   0  0  0  0  0  0  0  0  0  0  0  0
   -0.5192    3.2082    2.5456 C   0  0  0  0  0  0  0  0  0  0  0  0
   -1.5166    3.3903    2.9518 H   0  0  0  0  0  0  0  0  0  0  0  0
    0.2240    3.3791    3.3257 H   0  0  0  0  0  0  0  0  0  0  0  0
   -0.3477    3.9067    1.7239 H   0  0  0  0  0  0  0  0  0  0  0  0
  5  6  2  0  0  0  0
  5  7  1  0  0  0  0
  2  3  1  0  0  0  0
  2  4  1  0  0  0  0
  2  5  1  0  0  0  0
  1  2  1  0  0  0  0
 26 27  2  0  0  0  0
 26 28  1  0  0  0  0
 23 24  1  0  0  0  0
 23 25  1  0  0  0  0
 20 21  1  0  0  0  0
 20 22  1  0  0  0  0
 20 23  1  0  0  0  0
 17 18  1  0  0  0  0
 17 19  1  0  0  0  0
 17 20  1  0  0  0  0
 14 15  1  0  0  0  0
 14 16  1  0  0  0  0
 14 17  1  0  0  0  0
 11 12  1  0  0  0  0
 11 13  1  0  0  0  0
 11 14  1  0  0  0  0
  9 10  1  0  0  0  0
  9 11  1  0  0  0  0
  9 26  1  0  0  0  0
  7  8  1  0  0  0  0
  7  9  1  0  0  0  0
 30 31  1  0  0  0  0
 30 32  1  0  0  0  0
 30 33  1  0  0  0  0
 28 29  1  0  0  0  0
 28 30  1  0  0  0  0
M  END
$$$$
default_name
  -OEChem-02102213163D

 33 32  0     1  0  0  0  0  0999 V2000
   -3.8420   -3.6918    1.5562 H   0  0  0  0  0  0  0  0  0  0  0  0
   -3.8430   -2.7008    1.1032 C   0  0  0  0  0  0  0  0  0  0  0  0
   -4.5510   -2.0608    1.6242 H   0  0  0  0  0  0  0  0  0  0  0  0
   -4.1140   -2.7798    0.0522 H   0  0  0  0  0  0  0  0  0  0  0  0
   -2.4570   -2.1098    1.2172 C   0  0  0  0  0  0  0  0  0  0  0  0
   -1.5600   -2.7438    1.7572 O   0  0  0  0  0  0  0  0  0  0  0  0
   -2.2870   -0.8898    0.7102 N   0  0  0  0  0  0  0  0  0  0  0  0
   -3.0820   -0.4218    0.2992 H   0  0  0  0  0  0  0  0  0  0  0  0
   -1.0240   -0.1468    0.7262 C   0  0  1  0  0  0  0  0  0  0  0  0
   -0.3583   -0.6100    1.4558 H   0  0  0  0  0  0  0  0  0  0  0  0
   -0.3739   -0.2459   -0.6675 C   0  0  0  0  0  0  0  0  0  0  0  0
    0.6016   -0.7251   -0.5621 H   0  0  0  0  0  0  0  0  0  0  0  0
   -0.9938   -0.8730   -1.3097 H   0  0  0  0  0  0  0  0  0  0  0  0
   -0.1670    1.1199   -1.3406 C   0  0  0  0  0  0  0  0  0  0  0  0
    0.6758    1.6328   -0.8764 H   0  0  0  0  0  0  0  0  0  0  0  0
    0.0461    0.9692   -2.4004 H   0  0  0  0  0  0  0  0  0  0  0  0
   -1.4169    1.9957   -1.1973 C   0  0  0  0  0  0  0  0  0  0  0  0
   -2.2712    1.4920   -1.6505 H   0  0  0  0  0  0  0  0  0  0  0  0
   -1.6201    2.1690   -0.1401 H   0  0  0  0  0  0  0  0  0  0  0  0
   -1.1936    3.3359   -1.8953 C   0  0  0  0  0  0  0  0  0  0  0  0
   -0.3524    3.8490   -1.4321 H   0  0  0  0  0  0  0  0  0  0  0  0
   -0.9729    3.1637   -2.9475 H   0  0  0  0  0  0  0  0  0  0  0  0
   -2.3818    4.1914   -1.7975 N   0  0  0  0  0  0  0  0  0  0  0  0
   -2.1945    5.0711   -2.2559 H   0  0  0  0  0  0  0  0  0  0  0  0
   -3.1580    3.7339   -2.2541 H   0  0  0  0  0  0  0  0  0  0  0  0
   -1.2712    1.3099    1.1517 C   0  0  0  0  0  0  0  0  0  0  0  0
   -2.2039    1.9448    0.6639 O   0  0  0  0  0  0  0  0  0  0  0  0
   -0.4306    1.8354    2.0503 N   0  0  0  0  0  0  0  0  0  0  0  0
    0.3001    1.2459    2.4139 H   0  0  0  0  0  0  0  0  0  0  0  0
   -0.5192    3.2082    2.5456 C   0  0  0  0  0  0  0  0  0  0  0  0
   -1.5166    3.3903    2.9518 H   0  0  0  0  0  0  0  0  0  0  0  0
    0.2240    3.3791    3.3257 H   0  0  0  0  0  0  0  0  0  0  0  0
   -0.3477    3.9067    1.7239 H   0  0  0  0  0  0  0  0  0  0  0  0
  5  6  2  0  0  0  0
  5  7  1  0  0  0  0
  2  3  1  0  0  0  0
  2  4  1  0  0  0  0
  2  5  1  0  0  0  0
  1  2  1  0  0  0  0
 26 27  2  0  0  0  0
 26 28  1  0  0  0  0
 23 24  1  0  0  0  0
 23 25  1  0  0  0  0
 20 21  1  0  0  0  0
 20 22  1  0  0  0  0
 20 23  1  0  0  0  0
 17 18  1  0  0  0  0
 17 19  1  0  0  0  0
 17 20  1  0  0  0  0
 14 15  1  0  0  0  0
 14 16  1  0  0  0  0
 14 17  1  0  0  0  0
 11 12  1  0  0  0  0
 11 13  1  0  0  0  0
 11 14  1  0  0  0  0
  9 10  1  0  0  0  0
  9 11  1  0  0  0  0
  9 26  1  0  0  0  0
  7  8  1  0  0  0  0
  7  9  1  0  0  0  0
 30 31  1  0  0  0  0
 30 32  1  0  0  0  0
 30 33  1  0  0  0  0
 28 29  1  0  0  0  0
 28 30  1  0  0  0  0
M  END
$$$$
default_name
  -OEChem-02102213163D

 33 32  0     1  0  0  0  0  0999 V2000
   -3.8420   -3.6918    1.5562 H   0  0  0  0  0  0  0  0  0  0  0  0
   -3.8430   -2.7008    1.1032 C   0  0  0  0  0  0  0  0  0  0  0  0
   -4.5510   -2.0608    1.6242 H   0  0  0  0  0  0  0  0  0  0  0  0
   -4.1140   -2.7798    0.0522 H   0  0  0  0  0  0  0  0  0  0  0  0
   -2.4570   -2.1098    1.2172 C   0  0  0  0  0  0  0  0  0  0  0  0
   -1.5600   -2.7438    1.7572 O   0  0  0  0  0  0  0  0  0  0  0  0
   -2.2870   -0.8898    0.7102 N   0  0  0  0  0  0  0  0  0  0  0  0
   -3.0820   -0.4218    0.2992 H   0  0  0  0  0  0  0  0  0  0  0  0
   -1.0240   -0.1468    0.7262 C   0  0  1  0  0  0  0  0  0  0  0  0
   -0.3583   -0.6100    1.4558 H   0  0  0  0  0  0  0  0  0  0  0  0
   -0.3739   -0.2459   -0.6675 C   0  0  0  0  0  0  0  0  0  0  0  0
    0.6016   -0.7251   -0.5621 H   0  0  0  0  0  0  0  0  0  0  0  0
   -0.9938   -0.8730   -1.3097 H   0  0  0  0  0  0  0  0  0  0  0  0
   -0.1670    1.1199   -1.3406 C   0  0  0  0  0  0  0  0  0  0  0  0
    0.8137    1.5147   -1.0737 H   0  0  0  0  0  0  0  0  0  0  0  0
   -0.2204    0.9980   -2.4240 H   0  0  0  0  0  0  0  0  0  0  0  0
   -1.2395    2.1191   -0.8923 C   0  0  0  0  0  0  0  0  0  0  0  0
   -2.2278    1.7343   -1.1457 H   0  0  0  0  0  0  0  0  0  0  0  0
   -1.1745    2.2625    0.1867 H   0  0  0  0  0  0  0  0  0  0  0  0
   -1.0255    3.4589   -1.5940 C   0  0  0  0  0  0  0  0  0  0  0  0
   -0.0465    3.8541   -1.3277 H   0  0  0  0  0  0  0  0  0  0  0  0
   -1.0724    3.3145   -2.6721 H   0  0  0  0  0  0  0  0  0  0  0  0
   -2.0512    4.4335   -1.2047 N   0  0  0  0  0  0  0  0  0  0  0  0
   -1.8713    5.3084   -1.6749 H   0  0  0  0  0  0  0  0  0  0  0  0
   -2.9593    4.0860   -1.4784 H   0  0  0  0  0  0  0  0  0  0  0  0
   -1.2712    1.3099    1.1517 C   0  0  0  0  0  0  0  0  0  0  0  0
   -2.2039    1.9448    0.6639 O   0  0  0  0  0  0  0  0  0  0  0  0
   -0.4306    1.8354    2.0503 N   0  0  0  0  0  0  0  0  0  0  0  0
    0.3001    1.2459    2.4139 H   0  0  0  0  0  0  0  0  0  0  0  0
   -0.5192    3.2082    2.5456 C   0  0  0  0  0  0  0  0  0  0  0  0
   -1.5166    3.3903    2.9518 H   0  0  0  0  0  0  0  0  0  0  0  0
    0.2240    3.3791    3.3257 H   0  0  0  0  0  0  0  0  0  0  0  0
   -0.3477    3.9067    1.7239 H   0  0  0  0  0  0  0  0  0  0  0  0
  5  6  2  0  0  0  0
  5  7  1  0  0  0  0
  2  3  1  0  0  0  0
  2  4  1  0  0  0  0
  2  5  1  0  0  0  0
  1  2  1  0  0  0  0
 26 27  2  0  0  0  0
 26 28  1  0  0  0  0
 23 24  1  0  0  0  0
 23 25  1  0  0  0  0
 20 21  1  0  0  0  0
 20 22  1  0  0  0  0
 20 23  1  0  0  0  0
 17 18  1  0  0  0  0
 17 19  1  0  0  0  0
 17 20  1  0  0  0  0
 14 15  1  0  0  0  0
 14 16  1  0  0  0  0
 14 17  1  0  0  0  0
 11 12  1  0  0  0  0
 11 13  1  0  0  0  0
 11 14  1  0  0  0  0
  9 10  1  0  0  0  0
  9 11  1  0  0  0  0
  9 26  1  0  0  0  0
  7  8  1  0  0  0  0
  7  9  1  0  0  0  0
 30 31  1  0  0  0  0
 30 32  1  0  0  0  0
 30 33  1  0  0  0  0
 28 29  1  0  0  0  0
 28 30  1  0  0  0  0
M  END
$$$$
default_name
  -OEChem-02102213163D

 33 32  0     1  0  0  0  0  0999 V2000
   -3.8420   -3.6918    1.5562 H   0  0  0  0  0  0  0  0  0  0  0  0
   -3.8430   -2.7008    1.1032 C   0  0  0  0  0  0  0  0  0  0  0  0
   -4.5510   -2.0608    1.6242 H   0  0  0  0  0  0  0  0  0  0  0  0
   -4.1140   -2.7798    0.0522 H   0  0  0  0  0  0  0  0  0  0  0  0
   -2.4570   -2.1098    1.2172 C   0  0  0  0  0  0  0  0  0  0  0  0
   -1.5600   -2.7438    1.7572 O   0  0  0  0  0  0  0  0  0  0  0  0
   -2.2870   -0.8898    0.7102 N   0  0  0  0  0  0  0  0  0  0  0  0
   -3.0820   -0.4218    0.2992 H   0  0  0  0  0  0  0  0  0  0  0  0
   -1.0240   -0.1468    0.7262 C   0  0  1  0  0  0  0  0  0  0  0  0
   -0.3583   -0.6100    1.4558 H   0  0  0  0  0  0  0  0  0  0  0  0
   -0.3739   -0.2459   -0.6675 C   0  0  0  0  0  0  0  0  0  0  0  0
    0.6016   -0.7251   -0.5621 H   0  0  0  0  0  0  0  0  0  0  0  0
   -0.9938   -0.8730   -1.3097 H   0  0  0  0  0  0  0  0  0  0  0  0
   -0.1670    1.1199   -1.3406 C   0  0  0  0  0  0  0  0  0  0  0  0
    0.8881    1.3918   -1.3001 H   0  0  0  0  0  0  0  0  0  0  0  0
   -0.4800    1.0568   -2.3843 H   0  0  0  0  0  0  0  0  0  0  0  0
   -0.9841    2.2076   -0.6342 C   0  0  0  0  0  0  0  0  0  0  0  0
   -2.0422    1.9457   -0.6595 H   0  0  0  0  0  0  0  0  0  0  0  0
   -0.6584    2.2910    0.4031 H   0  0  0  0  0  0  0  0  0  0  0  0
   -0.7799    3.5482   -1.3373 C   0  0  0  0  0  0  0  0  0  0  0  0
    0.2735    3.8208   -1.2969 H   0  0  0  0  0  0  0  0  0  0  0  0
   -1.0880    3.4618   -2.3779 H   0  0  0  0  0  0  0  0  0  0  0  0
   -1.5680    4.6091   -0.6997 N   0  0  0  0  0  0  0  0  0  0  0  0
   -1.3986    5.4808   -1.1797 H   0  0  0  0  0  0  0  0  0  0  0  0
   -2.5489    4.3766   -0.7626 H   0  0  0  0  0  0  0  0  0  0  0  0
   -1.2712    1.3099    1.1517 C   0  0  0  0  0  0  0  0  0  0  0  0
   -2.2039    1.9448    0.6639 O   0  0  0  0  0  0  0  0  0  0  0  0
   -0.4306    1.8354    2.0503 N   0  0  0  0  0  0  0  0  0  0  0  0
    0.3001    1.2459    2.4139 H   0  0  0  0  0  0  0  0  0  0  0  0
   -0.5192    3.2082    2.5456 C   0  0  0  0  0  0  0  0  0  0  0  0
   -1.5166    3.3903    2.9518 H   0  0  0  0  0  0  0  0  0  0  0  0
    0.2240    3.3791    3.3257 H   0  0  0  0  0  0  0  0  0  0  0  0
   -0.3477    3.9067    1.7239 H   0  0  0  0  0  0  0  0  0  0  0  0
  5  6  2  0  0  0  0
  5  7  1  0  0  0  0
  2  3  1  0  0  0  0
  2  4  1  0  0  0  0
  2  5  1  0  0  0  0
  1  2  1  0  0  0  0
 26 27  2  0  0  0  0
 26 28  1  0  0  0  0
 23 24  1  0  0  0  0
 23 25  1  0  0  0  0
 20 21  1  0  0  0  0
 20 22  1  0  0  0  0
 20 23  1  0  0  0  0
 17 18  1  0  0  0  0
 17 19  1  0  0  0  0
 17 20  1  0  0  0  0
 14 15  1  0  0  0  0
 14 16  1  0  0  0  0
 14 17  1  0  0  0  0
 11 12  1  0  0  0  0
 11 13  1  0  0  0  0
 11 14  1  0  0  0  0
  9 10  1  0  0  0  0
  9 11  1  0  0  0  0
  9 26  1  0  0  0  0
  7  8  1  0  0  0  0
  7  9  1  0  0  0  0
 30 31  1  0  0  0  0
 30 32  1  0  0  0  0
 30 33  1  0  0  0  0
 28 29  1  0  0  0  0
 28 30  1  0  0  0  0
M  END
$$$$
default_name
  -OEChem-02102213163D

 33 32  0     1  0  0  0  0  0999 V2000
   -3.8420   -3.6918    1.5562 H   0  0  0  0  0  0  0  0  0  0  0  0
   -3.8430   -2.7008    1.1032 C   0  0  0  0  0  0  0  0  0  0  0  0
   -4.5510   -2.0608    1.6242 H   0  0  0  0  0  0  0  0  0  0  0  0
   -4.1140   -2.7798    0.0522 H   0  0  0  0  0  0  0  0  0  0  0  0
   -2.4570   -2.1098    1.2172 C   0  0  0  0  0  0  0  0  0  0  0  0
   -1.5600   -2.7438    1.7572 O   0  0  0  0  0  0  0  0  0  0  0  0
   -2.2870   -0.8898    0.7102 N   0  0  0  0  0  0  0  0  0  0  0  0
   -3.0820   -0.4218    0.2992 H   0  0  0  0  0  0  0  0  0  0  0  0
   -1.0240   -0.1468    0.7262 C   0  0  1  0  0  0  0  0  0  0  0  0
   -0.3583   -0.6100    1.4558 H   0  0  0  0  0  0  0  0  0  0  0  0
   -0.3739   -0.2459   -0.6675 C   0  0  0  0  0  0  0  0  0  0  0  0
    0.6016   -0.7251   -0.5621 H   0  0  0  0  0  0  0  0  0  0  0  0
   -0.9938   -0.8730   -1.3097 H   0  0  0  0  0  0  0  0  0  0  0  0
   -0.1670    1.1199   -1.3406 C   0  0  0  0  0  0  0  0  0  0  0  0
    0.8940    1.2726   -1.5402 H   0  0  0  0  0  0  0  0  0  0  0  0
   -0.7150    1.1417   -2.2843 H   0  0  0  0  0  0  0  0  0  0  0  0
   -0.6679    2.2552   -0.4405 C   0  0  0  0  0  0  0  0  0  0  0  0
   -1.7272    2.1120   -0.2253 H   0  0  0  0  0  0  0  0  0  0  0  0
   -0.1068    2.2524    0.4944 H   0  0  0  0  0  0  0  0  0  0  0  0
   -0.4734    3.5976   -1.1427 C   0  0  0  0  0  0  0  0  0  0  0  0
    0.5859    3.7512   -1.3420 H   0  0  0  0  0  0  0  0  0  0  0  0
   -1.0187    3.5956   -2.0851 H   0  0  0  0  0  0  0  0  0  0  0  0
   -0.9652    4.7064   -0.3169 N   0  0  0  0  0  0  0  0  0  0  0  0
   -0.8086    5.5765   -0.8042 H   0  0  0  0  0  0  0  0  0  0  0  0
   -1.9550    4.5858   -0.1555 H   0  0  0  0  0  0  0  0  0  0  0  0
   -1.2712    1.3099    1.1517 C   0  0  0  0  0  0  0  0  0  0  0  0
   -2.2039    1.9448    0.6639 O   0  0  0  0  0  0  0  0  0  0  0  0
   -0.4306    1.8354    2.0503 N   0  0  0  0  0  0  0  0  0  0  0  0
    0.3001    1.2459    2.4139 H   0  0  0  0  0  0  0  0  0  0  0  0
   -0.5192    3.2082    2.5456 C   0  0  0  0  0  0  0  0  0  0  0  0
   -1.5166    3.3903    2.9518 H   0  0  0  0  0  0  0  0  0  0  0  0
    0.2240    3.3791    3.3257 H   0  0  0  0  0  0  0  0  0  0  0  0
   -0.3477    3.9067    1.7239 H   0  0  0  0  0  0  0  0  0  0  0  0
  5  6  2  0  0  0  0
  5  7  1  0  0  0  0
  2  3  1  0  0  0  0
  2  4  1  0  0  0  0
  2  5  1  0  0  0  0
  1  2  1  0  0  0  0
 26 27  2  0  0  0  0
 26 28  1  0  0  0  0
 23 24  1  0  0  0  0
 23 25  1  0  0  0  0
 20 21  1  0  0  0  0
 20 22  1  0  0  0  0
 20 23  1  0  0  0  0
 17 18  1  0  0  0  0
 17 19  1  0  0  0  0
 17 20  1  0  0  0  0
 14 15  1  0  0  0  0
 14 16  1  0  0  0  0
 14 17  1  0  0  0  0
 11 12  1  0  0  0  0
 11 13  1  0  0  0  0
 11 14  1  0  0  0  0
  9 10  1  0  0  0  0
  9 11  1  0  0  0  0
  9 26  1  0  0  0  0
  7  8  1  0  0  0  0
  7  9  1  0  0  0  0
 30 31  1  0  0  0  0
 30 32  1  0  0  0  0
 30 33  1  0  0  0  0
 28 29  1  0  0  0  0
 28 30  1  0  0  0  0
M  END
$$$$
default_name
  -OEChem-02102213163D

 33 32  0     1  0  0  0  0  0999 V2000
   -3.8420   -3.6918    1.5562 H   0  0  0  0  0  0  0  0  0  0  0  0
   -3.8430   -2.7008    1.1032 C   0  0  0  0  0  0  0  0  0  0  0  0
   -4.5510   -2.0608    1.6242 H   0  0  0  0  0  0  0  0  0  0  0  0
   -4.1140   -2.7798    0.0522 H   0  0  0  0  0  0  0  0  0  0  0  0
   -2.4570   -2.1098    1.2172 C   0  0  0  0  0  0  0  0  0  0  0  0
   -1.5600   -2.7438    1.7572 O   0  0  0  0  0  0  0  0  0  0  0  0
   -2.2870   -0.8898    0.7102 N   0  0  0  0  0  0  0  0  0  0  0  0
   -3.0820   -0.4218    0.2992 H   0  0  0  0  0  0  0  0  0  0  0  0
   -1.0240   -0.1468    0.7262 C   0  0  1  0  0  0  0  0  0  0  0  0
   -0.3583   -0.6100    1.4558 H   0  0  0  0  0  0  0  0  0  0  0  0
   -0.3739   -0.2459   -0.6675 C   0  0  0  0  0  0  0  0  0  0  0  0
    0.6016   -0.7251   -0.5621 H   0  0  0  0  0  0  0  0  0  0  0  0
   -0.9938   -0.8730   -1.3097 H   0  0  0  0  0  0  0  0  0  0  0  0
   -0.1670    1.1199   -1.3406 C   0  0  0  0  0  0  0  0  0  0  0  0
    0.8309    1.1652   -1.7776 H   0  0  0  0  0  0  0  0  0  0  0  0
   -0.9093    1.2469   -2.1307 H   0  0  0  0  0  0  0  0  0  0  0  0
   -0.3126    2.2585   -0.3246 C   0  0  0  0  0  0  0  0  0  0  0  0
   -1.3042    2.2217    0.1275 H   0  0  0  0  0  0  0  0  0  0  0  0
    0.4426    2.1494    0.4544 H   0  0  0  0  0  0  0  0  0  0  0  0
   -0.1271    3.6039   -1.0236 C   0  0  0  0  0  0  0  0  0  0  0  0
    0.8694    3.6502   -1.4599 H   0  0  0  0  0  0  0  0  0  0  0  0
   -0.8692    3.7068   -1.8135 H   0  0  0  0  0  0  0  0  0  0  0  0
   -0.2838    4.7188   -0.0824 N   0  0  0  0  0  0  0  0  0  0  0  0
   -0.1414    5.5889   -0.5739 H   0  0  0  0  0  0  0  0  0  0  0  0
   -1.2179    4.6994    0.3016 H   0  0  0  0  0  0  0  0  0  0  0  0
   -1.2712    1.3099    1.1517 C   0  0  0  0  0  0  0  0  0  0  0  0
   -2.2039    1.9448    0.6639 O   0  0  0  0  0  0  0  0  0  0  0  0
   -0.4306    1.8354    2.0503 N   0  0  0  0  0  0  0  0  0  0  0  0
    0.3001    1.2459    2.4139 H   0  0  0  0  0  0  0  0  0  0  0  0
   -0.5192    3.2082    2.5456 C   0  0  0  0  0  0  0  0  0  0  0  0
   -1.5166    3.3903    2.9518 H   0  0  0  0  0  0  0  0  0  0  0  0
    0.2240    3.3791    3.3257 H   0  0  0  0  0  0  0  0  0  0  0  0
   -0.3477    3.9067    1.7239 H   0  0  0  0  0  0  0  0  0  0  0  0
  5  6  2  0  0  0  0
  5  7  1  0  0  0  0
  2  3  1  0  0  0  0
  2  4  1  0  0  0  0
  2  5  1  0  0  0  0
  1  2  1  0  0  0  0
 26 27  2  0  0  0  0
 26 28  1  0  0  0  0
 23 24  1  0  0  0  0
 23 25  1  0  0  0  0
 20 21  1  0  0  0  0
 20 22  1  0  0  0  0
 20 23  1  0  0  0  0
 17 18  1  0  0  0  0
 17 19  1  0  0  0  0
 17 20  1  0  0  0  0
 14 15  1  0  0  0  0
 14 16  1  0  0  0  0
 14 17  1  0  0  0  0
 11 12  1  0  0  0  0
 11 13  1  0  0  0  0
 11 14  1  0  0  0  0
  9 10  1  0  0  0  0
  9 11  1  0  0  0  0
  9 26  1  0  0  0  0
  7  8  1  0  0  0  0
  7  9  1  0  0  0  0
 30 31  1  0  0  0  0
 30 32  1  0  0  0  0
 30 33  1  0  0  0  0
 28 29  1  0  0  0  0
 28 30  1  0  0  0  0
M  END
$$$$
default_name
  -OEChem-02102213163D

 33 32  0     1  0  0  0  0  0999 V2000
   -3.8420   -3.6918    1.5562 H   0  0  0  0  0  0  0  0  0  0  0  0
   -3.8430   -2.7008    1.1032 C   0  0  0  0  0  0  0  0  0  0  0  0
   -4.5510   -2.0608    1.6242 H   0  0  0  0  0  0  0  0  0  0  0  0
   -4.1140   -2.7798    0.0522 H   0  0  0  0  0  0  0  0  0  0  0  0
   -2.4570   -2.1098    1.2172 C   0  0  0  0  0  0  0  0  0  0  0  0
   -1.5600   -2.7438    1.7572 O   0  0  0  0  0  0  0  0  0  0  0  0
   -2.2870   -0.8898    0.7102 N   0  0  0  0  0  0  0  0  0  0  0  0
   -3.0820   -0.4218    0.2992 H   0  0  0  0  0  0  0  0  0  0  0  0
   -1.0240   -0.1468    0.7262 C   0  0  1  0  0  0  0  0  0  0  0  0
   -0.3583   -0.6100    1.4558 H   0  0  0  0  0  0  0  0  0  0  0  0
   -0.3739   -0.2459   -0.6675 C   0  0  0  0  0  0  0  0  0  0  0  0
    0.6016   -0.7251   -0.5621 H   0  0  0  0  0  0  0  0  0  0  0  0
   -0.9938   -0.8730   -1.3097 H   0  0  0  0  0  0  0  0  0  0  0  0
   -0.1670    1.1199   -1.3406 C   0  0  0  0  0  0  0  0  0  0  0  0
    0.7032    1.0768   -1.9961 H   0  0  0  0  0  0  0  0  0  0  0  0
   -1.0497    1.3651   -1.9339 H   0  0  0  0  0  0  0  0  0  0  0  0
    0.0577    2.2173   -0.2942 C   0  0  0  0  0  0  0  0  0  0  0  0
   -0.8020    2.2675    0.3747 H   0  0  0  0  0  0  0  0  0  0  0  0
    0.9525    1.9891    0.2857 H   0  0  0  0  0  0  0  0  0  0  0  0
    0.2356    3.5665   -0.9879 C   0  0  0  0  0  0  0  0  0  0  0  0
    1.1047    3.5246   -1.6425 H   0  0  0  0  0  0  0  0  0  0  0  0
   -0.6498    3.7878   -1.5817 H   0  0  0  0  0  0  0  0  0  0  0  0
    0.4297    4.6452   -0.0122 N   0  0  0  0  0  0  0  0  0  0  0  0
    0.5574    5.5172   -0.5045 H   0  0  0  0  0  0  0  0  0  0  0  0
   -0.3879    4.7096    0.5776 H   0  0  0  0  0  0  0  0  0  0  0  0
   -1.2712    1.3099    1.1517 C   0  0  0  0  0  0  0  0  0  0  0  0
   -2.2039    1.9448    0.6639 O   0  0  0  0  0  0  0  0  0  0  0  0
   -0.4306    1.8354    2.0503 N   0  0  0  0  0  0  0  0  0  0  0  0
    0.3001    1.2459    2.4139 H   0  0  0  0  0  0  0  0  0  0  0  0
   -0.5192    3.2082    2.5456 C   0  0  0  0  0  0  0  0  0  0  0  0
   -1.5166    3.3903    2.9518 H   0  0  0  0  0  0  0  0  0  0  0  0
    0.2240    3.3791    3.3257 H   0  0  0  0  0  0  0  0  0  0  0  0
   -0.3477    3.9067    1.7239 H   0  0  0  0  0  0  0  0  0  0  0  0
  5  6  2  0  0  0  0
  5  7  1  0  0  0  0
  2  3  1  0  0  0  0
  2  4  1  0  0  0  0
  2  5  1  0  0  0  0
  1  2  1  0  0  0  0
 26 27  2  0  0  0  0
 26 28  1  0  0  0  0
 23 24  1  0  0  0  0
 23 25  1  0  0  0  0
 20 21  1  0  0  0  0
 20 22  1  0  0  0  0
 20 23  1  0  0  0  0
 17 18  1  0  0  0  0
 17 19  1  0  0  0  0
 17 20  1  0  0  0  0
 14 15  1  0  0  0  0
 14 16  1  0  0  0  0
 14 17  1  0  0  0  0
 11 12  1  0  0  0  0
 11 13  1  0  0  0  0
 11 14  1  0  0  0  0
  9 10  1  0  0  0  0
  9 11  1  0  0  0  0
  9 26  1  0  0  0  0
  7  8  1  0  0  0  0
  7  9  1  0  0  0  0
 30 31  1  0  0  0  0
 30 32  1  0  0  0  0
 30 33  1  0  0  0  0
 28 29  1  0  0  0  0
 28 30  1  0  0  0  0
M  END
$$$$
default_name
  -OEChem-02102213163D

 33 32  0     1  0  0  0  0  0999 V2000
   -3.8420   -3.6918    1.5562 H   0  0  0  0  0  0  0  0  0  0  0  0
   -3.8430   -2.7008    1.1032 C   0  0  0  0  0  0  0  0  0  0  0  0
   -4.5510   -2.0608    1.6242 H   0  0  0  0  0  0  0  0  0  0  0  0
   -4.1140   -2.7798    0.0522 H   0  0  0  0  0  0  0  0  0  0  0  0
   -2.4570   -2.1098    1.2172 C   0  0  0  0  0  0  0  0  0  0  0  0
   -1.5600   -2.7438    1.7572 O   0  0  0  0  0  0  0  0  0  0  0  0
   -2.2870   -0.8898    0.7102 N   0  0  0  0  0  0  0  0  0  0  0  0
   -3.0820   -0.4218    0.2992 H   0  0  0  0  0  0  0  0  0  0  0  0
   -1.0240   -0.1468    0.7262 C   0  0  1  0  0  0  0  0  0  0  0  0
   -0.3583   -0.6100    1.4558 H   0  0  0  0  0  0  0  0  0  0  0  0
   -0.3739   -0.2459   -0.6675 C   0  0  0  0  0  0  0  0  0  0  0  0
    0.6016   -0.7251   -0.5621 H   0  0  0  0  0  0  0  0  0  0  0  0
   -0.9938   -0.8730   -1.3097 H   0  0  0  0  0  0  0  0  0  0  0  0
   -0.1670    1.1199   -1.3406 C   0  0  0  0  0  0  0  0  0  0  0  0
    0.5195    1.0136   -2.1809 H   0  0  0  0  0  0  0  0  0  0  0  0
   -1.1267    1.4884   -1.7075 H   0  0  0  0  0  0  0  0  0  0  0  0
    0.4177    2.1346   -0.3514 C   0  0  0  0  0  0  0  0  0  0  0  0
   -0.2548    2.2461    0.4996 H   0  0  0  0  0  0  0  0  0  0  0  0
    1.3879    1.7823   -0.0001 H   0  0  0  0  0  0  0  0  0  0  0  0
    0.5899    3.4880   -1.0382 C   0  0  0  0  0  0  0  0  0  0  0  0
    1.2757    3.3829   -1.8773 H   0  0  0  0  0  0  0  0  0  0  0  0
   -0.3753    3.8331   -1.4054 H   0  0  0  0  0  0  0  0  0  0  0  0
    1.1266    4.4909   -0.1112 N   0  0  0  0  0  0  0  0  0  0  0  0
    1.2403    5.3664   -0.6006 H   0  0  0  0  0  0  0  0  0  0  0  0
    0.4785    4.6157    0.6535 H   0  0  0  0  0  0  0  0  0  0  0  0
   -1.2712    1.3099    1.1517 C   0  0  0  0  0  0  0  0  0  0  0  0
   -2.2039    1.9448    0.6639 O   0  0  0  0  0  0  0  0  0  0  0  0
   -0.4306    1.8354    2.0503 N   0  0  0  0  0  0  0  0  0  0  0  0
    0.3001    1.2459    2.4139 H   0  0  0  0  0  0  0  0  0  0  0  0
   -0.5192    3.2082    2.5456 C   0  0  0  0  0  0  0  0  0  0  0  0
   -1.5166    3.3903    2.9518 H   0  0  0  0  0  0  0  0  0  0  0  0
    0.2240    3.3791    3.3257 H   0  0  0  0  0  0  0  0  0  0  0  0
   -0.3477    3.9067    1.7239 H   0  0  0  0  0  0  0  0  0  0  0  0
  5  6  2  0  0  0  0
  5  7  1  0  0  0  0
  2  3  1  0  0  0  0
  2  4  1  0  0  0  0
  2  5  1  0  0  0  0
  1  2  1  0  0  0  0
 26 27  2  0  0  0  0
 26 28  1  0  0  0  0
 23 24  1  0  0  0  0
 23 25  1  0  0  0  0
 20 21  1  0  0  0  0
 20 22  1  0  0  0  0
 20 23  1  0  0  0  0
 17 18  1  0  0  0  0
 17 19  1  0  0  0  0
 17 20  1  0  0  0  0
 14 15  1  0  0  0  0
 14 16  1  0  0  0  0
 14 17  1  0  0  0  0
 11 12  1  0  0  0  0
 11 13  1  0  0  0  0
 11 14  1  0  0  0  0
  9 10  1  0  0  0  0
  9 11  1  0  0  0  0
  9 26  1  0  0  0  0
  7  8  1  0  0  0  0
  7  9  1  0  0  0  0
 30 31  1  0  0  0  0
 30 32  1  0  0  0  0
 30 33  1  0  0  0  0
 28 29  1  0  0  0  0
 28 30  1  0  0  0  0
M  END
$$$$
default_name
  -OEChem-02102213163D

 33 32  0     1  0  0  0  0  0999 V2000
   -3.8420   -3.6918    1.5562 H   0  0  0  0  0  0  0  0  0  0  0  0
   -3.8430   -2.7008    1.1032 C   0  0  0  0  0  0  0  0  0  0  0  0
   -4.5510   -2.0608    1.6242 H   0  0  0  0  0  0  0  0  0  0  0  0
   -4.1140   -2.7798    0.0522 H   0  0  0  0  0  0  0  0  0  0  0  0
   -2.4570   -2.1098    1.2172 C   0  0  0  0  0  0  0  0  0  0  0  0
   -1.5600   -2.7438    1.7572 O   0  0  0  0  0  0  0  0  0  0  0  0
   -2.2870   -0.8898    0.7102 N   0  0  0  0  0  0  0  0  0  0  0  0
   -3.0820   -0.4218    0.2992 H   0  0  0  0  0  0  0  0  0  0  0  0
   -1.0240   -0.1468    0.7262 C   0  0  1  0  0  0  0  0  0  0  0  0
   -0.3583   -0.6100    1.4558 H   0  0  0  0  0  0  0  0  0  0  0  0
   -0.3739   -0.2459   -0.6675 C   0  0  0  0  0  0  0  0  0  0  0  0
    0.6016   -0.7251   -0.5621 H   0  0  0  0  0  0  0  0  0  0  0  0
   -0.9938   -0.8730   -1.3097 H   0  0  0  0  0  0  0  0  0  0  0  0
   -0.1670    1.1199   -1.3406 C   0  0  0  0  0  0  0  0  0  0  0  0
    0.2925    0.9798   -2.3194 H   0  0  0  0  0  0  0  0  0  0  0  0
   -1.1350    1.6083   -1.4667 H   0  0  0  0  0  0  0  0  0  0  0  0
    0.7428    2.0158   -0.4924 C   0  0  0  0  0  0  0  0  0  0  0  0
    0.3000    2.1591    0.4936 H   0  0  0  0  0  0  0  0  0  0  0  0
    1.7194    1.5431   -0.3835 H   0  0  0  0  0  0  0  0  0  0  0  0
    0.9116    3.3738   -1.1711 C   0  0  0  0  0  0  0  0  0  0  0  0
    1.3708    3.2349   -2.1485 H   0  0  0  0  0  0  0  0  0  0  0  0
   -0.0644    3.8396   -1.2967 H   0  0  0  0  0  0  0  0  0  0  0  0
    1.7596    4.2662   -0.3724 N   0  0  0  0  0  0  0  0  0  0  0  0
    1.8606    5.1466   -0.8559 H   0  0  0  0  0  0  0  0  0  0  0  0
    1.3222    4.4242    0.5243 H   0  0  0  0  0  0  0  0  0  0  0  0
   -1.2712    1.3099    1.1517 C   0  0  0  0  0  0  0  0  0  0  0  0
   -2.2039    1.9448    0.6639 O   0  0  0  0  0  0  0  0  0  0  0  0
   -0.4306    1.8354    2.0503 N   0  0  0  0  0  0  0  0  0  0  0  0
    0.3001    1.2459    2.4139 H   0  0  0  0  0  0  0  0  0  0  0  0
   -0.5192    3.2082    2.5456 C   0  0  0  0  0  0  0  0  0  0  0  0
   -1.5166    3.3903    2.9518 H   0  0  0  0  0  0  0  0  0  0  0  0
    0.2240    3.3791    3.3257 H   0  0  0  0  0  0  0  0  0  0  0  0
   -0.3477    3.9067    1.7239 H   0  0  0  0  0  0  0  0  0  0  0  0
  5  6  2  0  0  0  0
  5  7  1  0  0  0  0
  2  3  1  0  0  0  0
  2  4  1  0  0  0  0
  2  5  1  0  0  0  0
  1  2  1  0  0  0  0
 26 27  2  0  0  0  0
 26 28  1  0  0  0  0
 23 24  1  0  0  0  0
 23 25  1  0  0  0  0
 20 21  1  0  0  0  0
 20 22  1  0  0  0  0
 20 23  1  0  0  0  0
 17 18  1  0  0  0  0
 17 19  1  0  0  0  0
 17 20  1  0  0  0  0
 14 15  1  0  0  0  0
 14 16  1  0  0  0  0
 14 17  1  0  0  0  0
 11 12  1  0  0  0  0
 11 13  1  0  0  0  0
 11 14  1  0  0  0  0
  9 10  1  0  0  0  0
  9 11  1  0  0  0  0
  9 26  1  0  0  0  0
  7  8  1  0  0  0  0
  7  9  1  0  0  0  0
 30 31  1  0  0  0  0
 30 32  1  0  0  0  0
 30 33  1  0  0  0  0
 28 29  1  0  0  0  0
 28 30  1  0  0  0  0
M  END
$$$$
default_name
  -OEChem-02102213163D

 33 32  0     1  0  0  0  0  0999 V2000
   -3.8420   -3.6918    1.5562 H   0  0  0  0  0  0  0  0  0  0  0  0
   -3.8430   -2.7008    1.1032 C   0  0  0  0  0  0  0  0  0  0  0  0
   -4.5510   -2.0608    1.6242 H   0  0  0  0  0  0  0  0  0  0  0  0
   -4.1140   -2.7798    0.0522 H   0  0  0  0  0  0  0  0  0  0  0  0
   -2.4570   -2.1098    1.2172 C   0  0  0  0  0  0  0  0  0  0  0  0
   -1.5600   -2.7438    1.7572 O   0  0  0  0  0  0  0  0  0  0  0  0
   -2.2870   -0.8898    0.7102 N   0  0  0  0  0  0  0  0  0  0  0  0
   -3.0820   -0.4218    0.2992 H   0  0  0  0  0  0  0  0  0  0  0  0
   -1.0240   -0.1468    0.7262 C   0  0  1  0  0  0  0  0  0  0  0  0
   -0.3583   -0.6100    1.4558 H   0  0  0  0  0  0  0  0  0  0  0  0
   -0.3739   -0.2459   -0.6675 C   0  0  0  0  0  0  0  0  0  0  0  0
    0.6016   -0.7251   -0.5621 H   0  0  0  0  0  0  0  0  0  0  0  0
   -0.9938   -0.8730   -1.3097 H   0  0  0  0  0  0  0  0  0  0  0  0
   -0.1670    1.1199   -1.3406 C   0  0  0  0  0  0  0  0  0  0  0  0
    0.0374    0.9777   -2.4021 H   0  0  0  0  0  0  0  0  0  0  0  0
   -1.0740    1.7167   -1.2280 H   0  0  0  0  0  0  0  0  0  0  0  0
    1.0110    1.8692   -0.7076 C   0  0  0  0  0  0  0  0  0  0  0  0
    0.8247    2.0124    0.3572 H   0  0  0  0  0  0  0  0  0  0  0  0
    1.9242    1.2878   -0.8385 H   0  0  0  0  0  0  0  0  0  0  0  0
    1.1789    3.2317   -1.3774 C   0  0  0  0  0  0  0  0  0  0  0  0
    1.3835    3.0906   -2.4374 H   0  0  0  0  0  0  0  0  0  0  0  0
    0.2615    3.8068   -1.2630 H   0  0  0  0  0  0  0  0  0  0  0  0
    2.2854    3.9866   -0.7782 N   0  0  0  0  0  0  0  0  0  0  0  0
    2.3762    4.8729   -1.2528 H   0  0  0  0  0  0  0  0  0  0  0  0
    2.0857    4.1481    0.1987 H   0  0  0  0  0  0  0  0  0  0  0  0
   -1.2712    1.3099    1.1517 C   0  0  0  0  0  0  0  0  0  0  0  0
   -2.2039    1.9448    0.6639 O   0  0  0  0  0  0  0  0  0  0  0  0
   -0.4306    1.8354    2.0503 N   0  0  0  0  0  0  0  0  0  0  0  0
    0.3001    1.2459    2.4139 H   0  0  0  0  0  0  0  0  0  0  0  0
   -0.5192    3.2082    2.5456 C   0  0  0  0  0  0  0  0  0  0  0  0
   -1.5166    3.3903    2.9518 H   0  0  0  0  0  0  0  0  0  0  0  0
    0.2240    3.3791    3.3257 H   0  0  0  0  0  0  0  0  0  0  0  0
   -0.3477    3.9067    1.7239 H   0  0  0  0  0  0  0  0  0  0  0  0
  5  6  2  0  0  0  0
  5  7  1  0  0  0  0
  2  3  1  0  0  0  0
  2  4  1  0  0  0  0
  2  5  1  0  0  0  0
  1  2  1  0  0  0  0
 26 27  2  0  0  0  0
 26 28  1  0  0  0  0
 23 24  1  0  0  0  0
 23 25  1  0  0  0  0
 20 21  1  0  0  0  0
 20 22  1  0  0  0  0
 20 23  1  0  0  0  0
 17 18  1  0  0  0  0
 17 19  1  0  0  0  0
 17 20  1  0  0  0  0
 14 15  1  0  0  0  0
 14 16  1  0  0  0  0
 14 17  1  0  0  0  0
 11 12  1  0  0  0  0
 11 13  1  0  0  0  0
 11 14  1  0  0  0  0
  9 10  1  0  0  0  0
  9 11  1  0  0  0  0
  9 26  1  0  0  0  0
  7  8  1  0  0  0  0
  7  9  1  0  0  0  0
 30 31  1  0  0  0  0
 30 32  1  0  0  0  0
 30 33  1  0  0  0  0
 28 29  1  0  0  0  0
 28 30  1  0  0  0  0
M  END
$$$$
default_name
  -OEChem-02102213163D

 33 32  0     1  0  0  0  0  0999 V2000
   -3.8420   -3.6918    1.5562 H   0  0  0  0  0  0  0  0  0  0  0  0
   -3.8430   -2.7008    1.1032 C   0  0  0  0  0  0  0  0  0  0  0  0
   -4.5510   -2.0608    1.6242 H   0  0  0  0  0  0  0  0  0  0  0  0
   -4.1140   -2.7798    0.0522 H   0  0  0  0  0  0  0  0  0  0  0  0
   -2.4570   -2.1098    1.2172 C   0  0  0  0  0  0  0  0  0  0  0  0
   -1.5600   -2.7438    1.7572 O   0  0  0  0  0  0  0  0  0  0  0  0
   -2.2870   -0.8898    0.7102 N   0  0  0  0  0  0  0  0  0  0  0  0
   -3.0820   -0.4218    0.2992 H   0  0  0  0  0  0  0  0  0  0  0  0
   -1.0240   -0.1468    0.7262 C   0  0  1  0  0  0  0  0  0  0  0  0
   -0.3583   -0.6100    1.4558 H   0  0  0  0  0  0  0  0  0  0  0  0
   -0.3739   -0.2459   -0.6675 C   0  0  0  0  0  0  0  0  0  0  0  0
    0.6016   -0.7251   -0.5621 H   0  0  0  0  0  0  0  0  0  0  0  0
   -0.9938   -0.8730   -1.3097 H   0  0  0  0  0  0  0  0  0  0  0  0
   -0.1670    1.1199   -1.3406 C   0  0  0  0  0  0  0  0  0  0  0  0
   -0.2282    1.0074   -2.4234 H   0  0  0  0  0  0  0  0  0  0  0  0
   -0.9479    1.8061   -1.0078 H   0  0  0  0  0  0  0  0  0  0  0  0
    1.2040    1.7046   -0.9822 C   0  0  0  0  0  0  0  0  0  0  0  0
    1.2835    1.8159    0.0996 H   0  0  0  0  0  0  0  0  0  0  0  0
    1.9884    1.0340   -1.3340 H   0  0  0  0  0  0  0  0  0  0  0  0
    1.3735    3.0712   -1.6431 C   0  0  0  0  0  0  0  0  0  0  0  0
    1.3130    2.9598   -2.7245 H   0  0  0  0  0  0  0  0  0  0  0  0
    0.5805    3.7370   -1.3066 H   0  0  0  0  0  0  0  0  0  0  0  0
    2.6683    3.6710   -1.3009 N   0  0  0  0  0  0  0  0  0  0  0  0
    2.7519    4.5639   -1.7644 H   0  0  0  0  0  0  0  0  0  0  0  0
    2.7170    3.8062   -0.3011 H   0  0  0  0  0  0  0  0  0  0  0  0
   -1.2712    1.3099    1.1517 C   0  0  0  0  0  0  0  0  0  0  0  0
   -2.2039    1.9448    0.6639 O   0  0  0  0  0  0  0  0  0  0  0  0
   -0.4306    1.8354    2.0503 N   0  0  0  0  0  0  0  0  0  0  0  0
    0.3001    1.2459    2.4139 H   0  0  0  0  0  0  0  0  0  0  0  0
   -0.5192    3.2082    2.5456 C   0  0  0  0  0  0  0  0  0  0  0  0
   -1.5166    3.3903    2.9518 H   0  0  0  0  0  0  0  0  0  0  0  0
    0.2240    3.3791    3.3257 H   0  0  0  0  0  0  0  0  0  0  0  0
   -0.3477    3.9067    1.7239 H   0  0  0  0  0  0  0  0  0  0  0  0
  5  6  2  0  0  0  0
  5  7  1  0  0  0  0
  2  3  1  0  0  0  0
  2  4  1  0  0  0  0
  2  5  1  0  0  0  0
  1  2  1  0  0  0  0
 26 27  2  0  0  0  0
 26 28  1  0  0  0  0
 23 24  1  0  0  0  0
 23 25  1  0  0  0  0
 20 21  1  0  0  0  0
 20 22  1  0  0  0  0
 20 23  1  0  0  0  0
 17 18  1  0  0  0  0
 17 19  1  0  0  0  0
 17 20  1  0  0  0  0
 14 15  1  0  0  0  0
 14 16  1  0  0  0  0
 14 17  1  0  0  0  0
 11 12  1  0  0  0  0
 11 13  1  0  0  0  0
 11 14  1  0  0  0  0
  9 10  1  0  0  0  0
  9 11  1  0  0  0  0
  9 26  1  0  0  0  0
  7  8  1  0  0  0  0
  7  9  1  0  0  0  0
 30 31  1  0  0  0  0
 30 32  1  0  0  0  0
 30 33  1  0  0  0  0
 28 29  1  0  0  0  0
 28 30  1  0  0  0  0
M  END
$$$$
default_name
  -OEChem-02102213163D

 33 32  0     1  0  0  0  0  0999 V2000
   -3.8420   -3.6918    1.5562 H   0  0  0  0  0  0  0  0  0  0  0  0
   -3.8430   -2.7008    1.1032 C   0  0  0  0  0  0  0  0  0  0  0  0
   -4.5510   -2.0608    1.6242 H   0  0  0  0  0  0  0  0  0  0  0  0
   -4.1140   -2.7798    0.0522 H   0  0  0  0  0  0  0  0  0  0  0  0
   -2.4570   -2.1098    1.2172 C   0  0  0  0  0  0  0  0  0  0  0  0
   -1.5600   -2.7438    1.7572 O   0  0  0  0  0  0  0  0  0  0  0  0
   -2.2870   -0.8898    0.7102 N   0  0  0  0  0  0  0  0  0  0  0  0
   -3.0820   -0.4218    0.2992 H   0  0  0  0  0  0  0  0  0  0  0  0
   -1.0240   -0.1468    0.7262 C   0  0  1  0  0  0  0  0  0  0  0  0
   -0.3583   -0.6100    1.4558 H   0  0  0  0  0  0  0  0  0  0  0  0
   -0.3739   -0.2459   -0.6675 C   0  0  0  0  0  0  0  0  0  0  0  0
    0.6016   -0.7251   -0.5621 H   0  0  0  0  0  0  0  0  0  0  0  0
   -0.9938   -0.8730   -1.3097 H   0  0  0  0  0  0  0  0  0  0  0  0
   -0.1670    1.1199   -1.3406 C   0  0  0  0  0  0  0  0  0  0  0  0
   -0.4863    1.0670   -2.3818 H   0  0  0  0  0  0  0  0  0  0  0  0
   -0.7653    1.8705   -0.8209 H   0  0  0  0  0  0  0  0  0  0  0  0
    1.3085    1.5334   -1.2976 C   0  0  0  0  0  0  0  0  0  0  0  0
    1.6451    1.5831   -0.2616 H   0  0  0  0  0  0  0  0  0  0  0  0
    1.9077    0.7987   -1.8362 H   0  0  0  0  0  0  0  0  0  0  0  0
    1.4821    2.9035   -1.9501 C   0  0  0  0  0  0  0  0  0  0  0  0
    1.1639    2.8515   -2.9901 H   0  0  0  0  0  0  0  0  0  0  0  0
    0.8706    3.6350   -1.4245 H   0  0  0  0  0  0  0  0  0  0  0  0
    2.8821    3.3410   -1.9049 N   0  0  0  0  0  0  0  0  0  0  0  0
    2.9621    4.2406   -2.3557 H   0  0  0  0  0  0  0  0  0  0  0  0
    3.1730    3.4218   -0.9409 H   0  0  0  0  0  0  0  0  0  0  0  0
   -1.2712    1.3099    1.1517 C   0  0  0  0  0  0  0  0  0  0  0  0
   -2.2039    1.9448    0.6639 O   0  0  0  0  0  0  0  0  0  0  0  0
   -0.4306    1.8354    2.0503 N   0  0  0  0  0  0  0  0  0  0  0  0
    0.3001    1.2459    2.4139 H   0  0  0  0  0  0  0  0  0  0  0  0
   -0.5192    3.2082    2.5456 C   0  0  0  0  0  0  0  0  0  0  0  0
   -1.5166    3.3903    2.9518 H   0  0  0  0  0  0  0  0  0  0  0  0
    0.2240    3.3791    3.3257 H   0  0  0  0  0  0  0  0  0  0  0  0
   -0.3477    3.9067    1.7239 H   0  0  0  0  0  0  0  0  0  0  0  0
  5  6  2  0  0  0  0
  5  7  1  0  0  0  0
  2  3  1  0  0  0  0
  2  4  1  0  0  0  0
  2  5  1  0  0  0  0
  1  2  1  0  0  0  0
 26 27  2  0  0  0  0
 26 28  1  0  0  0  0
 23 24  1  0  0  0  0
 23 25  1  0  0  0  0
 20 21  1  0  0  0  0
 20 22  1  0  0  0  0
 20 23  1  0  0  0  0
 17 18  1  0  0  0  0
 17 19  1  0  0  0  0
 17 20  1  0  0  0  0
 14 15  1  0  0  0  0
 14 16  1  0  0  0  0
 14 17  1  0  0  0  0
 11 12  1  0  0  0  0
 11 13  1  0  0  0  0
 11 14  1  0  0  0  0
  9 10  1  0  0  0  0
  9 11  1  0  0  0  0
  9 26  1  0  0  0  0
  7  8  1  0  0  0  0
  7  9  1  0  0  0  0
 30 31  1  0  0  0  0
 30 32  1  0  0  0  0
 30 33  1  0  0  0  0
 28 29  1  0  0  0  0
 28 30  1  0  0  0  0
M  END
$$$$
default_name
  -OEChem-02102213163D

 33 32  0     1  0  0  0  0  0999 V2000
   -3.8420   -3.6918    1.5562 H   0  0  0  0  0  0  0  0  0  0  0  0
   -3.8430   -2.7008    1.1032 C   0  0  0  0  0  0  0  0  0  0  0  0
   -4.5510   -2.0608    1.6242 H   0  0  0  0  0  0  0  0  0  0  0  0
   -4.1140   -2.7798    0.0522 H   0  0  0  0  0  0  0  0  0  0  0  0
   -2.4570   -2.1098    1.2172 C   0  0  0  0  0  0  0  0  0  0  0  0
   -1.5600   -2.7438    1.7572 O   0  0  0  0  0  0  0  0  0  0  0  0
   -2.2870   -0.8898    0.7102 N   0  0  0  0  0  0  0  0  0  0  0  0
   -3.0820   -0.4218    0.2992 H   0  0  0  0  0  0  0  0  0  0  0  0
   -1.0240   -0.1468    0.7262 C   0  0  1  0  0  0  0  0  0  0  0  0
   -0.3583   -0.6100    1.4558 H   0  0  0  0  0  0  0  0  0  0  0  0
   -0.3739   -0.2459   -0.6675 C   0  0  0  0  0  0  0  0  0  0  0  0
    0.6016   -0.7251   -0.5621 H   0  0  0  0  0  0  0  0  0  0  0  0
   -0.9938   -0.8730   -1.3097 H   0  0  0  0  0  0  0  0  0  0  0  0
   -0.1670    1.1199   -1.3406 C   0  0  0  0  0  0  0  0  0  0  0  0
   -0.7192    1.1524   -2.2801 H   0  0  0  0  0  0  0  0  0  0  0  0
   -0.5386    1.9055   -0.6802 H   0  0  0  0  0  0  0  0  0  0  0  0
    1.3175    1.3671   -1.6322 C   0  0  0  0  0  0  0  0  0  0  0  0
    1.8849    1.3299   -0.7018 H   0  0  0  0  0  0  0  0  0  0  0  0
    1.6876    0.5981   -2.3109 H   0  0  0  0  0  0  0  0  0  0  0  0
    1.4974    2.7398   -2.2775 C   0  0  0  0  0  0  0  0  0  0  0  0
    0.9466    2.7730   -3.2161 H   0  0  0  0  0  0  0  0  0  0  0  0
    1.1121    3.5076   -1.6086 H   0  0  0  0  0  0  0  0  0  0  0  0
    2.9122    3.0190   -2.5489 N   0  0  0  0  0  0  0  0  0  0  0  0
    2.9924    3.9252   -2.9865 H   0  0  0  0  0  0  0  0  0  0  0  0
    3.4227    3.0210   -1.6773 H   0  0  0  0  0  0  0  0  0  0  0  0
   -1.2712    1.3099    1.1517 C   0  0  0  0  0  0  0  0  0  0  0  0
   -2.2039    1.9448    0.6639 O   0  0  0  0  0  0  0  0  0  0  0  0
   -0.4306    1.8354    2.0503 N   0  0  0  0  0  0  0  0  0  0  0  0
    0.3001    1.2459    2.4139 H   0  0  0  0  0  0  0  0  0  0  0  0
   -0.5192    3.2082    2.5456 C   0  0  0  0  0  0  0  0  0  0  0  0
   -1.5166    3.3903    2.9518 H   0  0  0  0  0  0  0  0  0  0  0  0
    0.2240    3.3791    3.3257 H   0  0  0  0  0  0  0  0  0  0  0  0
   -0.3477    3.9067    1.7239 H   0  0  0  0  0  0  0  0  0  0  0  0
  5  6  2  0  0  0  0
  5  7  1  0  0  0  0
  2  3  1  0  0  0  0
  2  4  1  0  0  0  0
  2  5  1  0  0  0  0
  1  2  1  0  0  0  0
 26 27  2  0  0  0  0
 26 28  1  0  0  0  0
 23 24  1  0  0  0  0
 23 25  1  0  0  0  0
 20 21  1  0  0  0  0
 20 22  1  0  0  0  0
 20 23  1  0  0  0  0
 17 18  1  0  0  0  0
 17 19  1  0  0  0  0
 17 20  1  0  0  0  0
 14 15  1  0  0  0  0
 14 16  1  0  0  0  0
 14 17  1  0  0  0  0
 11 12  1  0  0  0  0
 11 13  1  0  0  0  0
 11 14  1  0  0  0  0
  9 10  1  0  0  0  0
  9 11  1  0  0  0  0
  9 26  1  0  0  0  0
  7  8  1  0  0  0  0
  7  9  1  0  0  0  0
 30 31  1  0  0  0  0
 30 32  1  0  0  0  0
 30 33  1  0  0  0  0
 28 29  1  0  0  0  0
 28 30  1  0  0  0  0
M  END
$$$$
default_name
  -OEChem-02102213163D

 33 32  0     1  0  0  0  0  0999 V2000
   -3.8420   -3.6918    1.5562 H   0  0  0  0  0  0  0  0  0  0  0  0
   -3.8430   -2.7008    1.1032 C   0  0  0  0  0  0  0  0  0  0  0  0
   -4.5510   -2.0608    1.6242 H   0  0  0  0  0  0  0  0  0  0  0  0
   -4.1140   -2.7798    0.0522 H   0  0  0  0  0  0  0  0  0  0  0  0
   -2.4570   -2.1098    1.2172 C   0  0  0  0  0  0  0  0  0  0  0  0
   -1.5600   -2.7438    1.7572 O   0  0  0  0  0  0  0  0  0  0  0  0
   -2.2870   -0.8898    0.7102 N   0  0  0  0  0  0  0  0  0  0  0  0
   -3.0820   -0.4218    0.2992 H   0  0  0  0  0  0  0  0  0  0  0  0
   -1.0240   -0.1468    0.7262 C   0  0  1  0  0  0  0  0  0  0  0  0
   -0.3583   -0.6100    1.4558 H   0  0  0  0  0  0  0  0  0  0  0  0
   -0.3739   -0.2459   -0.6675 C   0  0  0  0  0  0  0  0  0  0  0  0
    0.6016   -0.7251   -0.5621 H   0  0  0  0  0  0  0  0  0  0  0  0
   -0.9938   -0.8730   -1.3097 H   0  0  0  0  0  0  0  0  0  0  0  0
   -0.1670    1.1199   -1.3406 C   0  0  0  0  0  0  0  0  0  0  0  0
   -0.9112    1.2577   -2.1254 H   0  0  0  0  0  0  0  0  0  0  0  0
   -0.2834    1.9088   -0.5951 H   0  0  0  0  0  0  0  0  0  0  0  0
    1.2303    1.2171   -1.9633 C   0  0  0  0  0  0  0  0  0  0  0  0
    1.9866    1.0734   -1.1910 H   0  0  0  0  0  0  0  0  0  0  0  0
    1.3430    0.4458   -2.7258 H   0  0  0  0  0  0  0  0  0  0  0  0
    1.4183    2.5914   -2.6030 C   0  0  0  0  0  0  0  0  0  0  0  0
    0.6758    2.7298   -3.3872 H   0  0  0  0  0  0  0  0  0  0  0  0
    1.2886    3.3637   -1.8465 H   0  0  0  0  0  0  0  0  0  0  0  0
    2.7567    2.7271   -3.1892 N   0  0  0  0  0  0  0  0  0  0  0  0
    2.8408    3.6390   -3.6138 H   0  0  0  0  0  0  0  0  0  0  0  0
    3.4491    2.6313   -2.4600 H   0  0  0  0  0  0  0  0  0  0  0  0
   -1.2712    1.3099    1.1517 C   0  0  0  0  0  0  0  0  0  0  0  0
   -2.2039    1.9448    0.6639 O   0  0  0  0  0  0  0  0  0  0  0  0
   -0.4306    1.8354    2.0503 N   0  0  0  0  0  0  0  0  0  0  0  0
    0.3001    1.2459    2.4139 H   0  0  0  0  0  0  0  0  0  0  0  0
   -0.5192    3.2082    2.5456 C   0  0  0  0  0  0  0  0  0  0  0  0
   -1.5166    3.3903    2.9518 H   0  0  0  0  0  0  0  0  0  0  0  0
    0.2240    3.3791    3.3257 H   0  0  0  0  0  0  0  0  0  0  0  0
   -0.3477    3.9067    1.7239 H   0  0  0  0  0  0  0  0  0  0  0  0
  5  6  2  0  0  0  0
  5  7  1  0  0  0  0
  2  3  1  0  0  0  0
  2  4  1  0  0  0  0
  2  5  1  0  0  0  0
  1  2  1  0  0  0  0
 26 27  2  0  0  0  0
 26 28  1  0  0  0  0
 23 24  1  0  0  0  0
 23 25  1  0  0  0  0
 20 21  1  0  0  0  0
 20 22  1  0  0  0  0
 20 23  1  0  0  0  0
 17 18  1  0  0  0  0
 17 19  1  0  0  0  0
 17 20  1  0  0  0  0
 14 15  1  0  0  0  0
 14 16  1  0  0  0  0
 14 17  1  0  0  0  0
 11 12  1  0  0  0  0
 11 13  1  0  0  0  0
 11 14  1  0  0  0  0
  9 10  1  0  0  0  0
  9 11  1  0  0  0  0
  9 26  1  0  0  0  0
  7  8  1  0  0  0  0
  7  9  1  0  0  0  0
 30 31  1  0  0  0  0
 30 32  1  0  0  0  0
 30 33  1  0  0  0  0
 28 29  1  0  0  0  0
 28 30  1  0  0  0  0
M  END
$$$$
default_name
  -OEChem-02102213163D

 33 32  0     1  0  0  0  0  0999 V2000
   -3.8420   -3.6918    1.5562 H   0  0  0  0  0  0  0  0  0  0  0  0
   -3.8430   -2.7008    1.1032 C   0  0  0  0  0  0  0  0  0  0  0  0
   -4.5510   -2.0608    1.6242 H   0  0  0  0  0  0  0  0  0  0  0  0
   -4.1140   -2.7798    0.0522 H   0  0  0  0  0  0  0  0  0  0  0  0
   -2.4570   -2.1098    1.2172 C   0  0  0  0  0  0  0  0  0  0  0  0
   -1.5600   -2.7438    1.7572 O   0  0  0  0  0  0  0  0  0  0  0  0
   -2.2870   -0.8898    0.7102 N   0  0  0  0  0  0  0  0  0  0  0  0
   -3.0820   -0.4218    0.2992 H   0  0  0  0  0  0  0  0  0  0  0  0
   -1.0240   -0.1468    0.7262 C   0  0  1  0  0  0  0  0  0  0  0  0
   -0.3583   -0.6100    1.4558 H   0  0  0  0  0  0  0  0  0  0  0  0
   -0.3739   -0.2459   -0.6675 C   0  0  0  0  0  0  0  0  0  0  0  0
    0.6016   -0.7251   -0.5621 H   0  0  0  0  0  0  0  0  0  0  0  0
   -0.9938   -0.8730   -1.3097 H   0  0  0  0  0  0  0  0  0  0  0  0
   -0.1670    1.1199   -1.3406 C   0  0  0  0  0  0  0  0  0  0  0  0
   -1.0491    1.3758   -1.9281 H   0  0  0  0  0  0  0  0  0  0  0  0
   -0.0168    1.8800   -0.5716 H   0  0  0  0  0  0  0  0  0  0  0  0
    1.0530    1.0937   -2.2683 C   0  0  0  0  0  0  0  0  0  0  0  0
    1.9432    0.8312   -1.6959 H   0  0  0  0  0  0  0  0  0  0  0  0
    0.8974    0.3523   -3.0526 H   0  0  0  0  0  0  0  0  0  0  0  0
    1.2502    2.4684   -2.9043 C   0  0  0  0  0  0  0  0  0  0  0  0
    0.3700    2.7246   -3.4917 H   0  0  0  0  0  0  0  0  0  0  0  0
    1.3880    3.2129   -2.1219 H   0  0  0  0  0  0  0  0  0  0  0  0
    2.4261    2.4850   -3.7821 N   0  0  0  0  0  0  0  0  0  0  0  0
    2.5177    3.4017   -4.1948 H   0  0  0  0  0  0  0  0  0  0  0  0
    3.2504    2.2792   -3.2357 H   0  0  0  0  0  0  0  0  0  0  0  0
   -1.2712    1.3099    1.1517 C   0  0  0  0  0  0  0  0  0  0  0  0
   -2.2039    1.9448    0.6639 O   0  0  0  0  0  0  0  0  0  0  0  0
   -0.4306    1.8354    2.0503 N   0  0  0  0  0  0  0  0  0  0  0  0
    0.3001    1.2459    2.4139 H   0  0  0  0  0  0  0  0  0  0  0  0
   -0.5192    3.2082    2.5456 C   0  0  0  0  0  0  0  0  0  0  0  0
   -1.5166    3.3903    2.9518 H   0  0  0  0  0  0  0  0  0  0  0  0
    0.2240    3.3791    3.3257 H   0  0  0  0  0  0  0  0  0  0  0  0
   -0.3477    3.9067    1.7239 H   0  0  0  0  0  0  0  0  0  0  0  0
  5  6  2  0  0  0  0
  5  7  1  0  0  0  0
  2  3  1  0  0  0  0
  2  4  1  0  0  0  0
  2  5  1  0  0  0  0
  1  2  1  0  0  0  0
 26 27  2  0  0  0  0
 26 28  1  0  0  0  0
 23 24  1  0  0  0  0
 23 25  1  0  0  0  0
 20 21  1  0  0  0  0
 20 22  1  0  0  0  0
 20 23  1  0  0  0  0
 17 18  1  0  0  0  0
 17 19  1  0  0  0  0
 17 20  1  0  0  0  0
 14 15  1  0  0  0  0
 14 16  1  0  0  0  0
 14 17  1  0  0  0  0
 11 12  1  0  0  0  0
 11 13  1  0  0  0  0
 11 14  1  0  0  0  0
  9 10  1  0  0  0  0
  9 11  1  0  0  0  0
  9 26  1  0  0  0  0
  7  8  1  0  0  0  0
  7  9  1  0  0  0  0
 30 31  1  0  0  0  0
 30 32  1  0  0  0  0
 30 33  1  0  0  0  0
 28 29  1  0  0  0  0
 28 30  1  0  0  0  0
M  END
$$$$
default_name
  -OEChem-02102213163D

 33 32  0     1  0  0  0  0  0999 V2000
   -3.8420   -3.6918    1.5562 H   0  0  0  0  0  0  0  0  0  0  0  0
   -3.8430   -2.7008    1.1032 C   0  0  0  0  0  0  0  0  0  0  0  0
   -4.5510   -2.0608    1.6242 H   0  0  0  0  0  0  0  0  0  0  0  0
   -4.1140   -2.7798    0.0522 H   0  0  0  0  0  0  0  0  0  0  0  0
   -2.4570   -2.1098    1.2172 C   0  0  0  0  0  0  0  0  0  0  0  0
   -1.5600   -2.7438    1.7572 O   0  0  0  0  0  0  0  0  0  0  0  0
   -2.2870   -0.8898    0.7102 N   0  0  0  0  0  0  0  0  0  0  0  0
   -3.0820   -0.4218    0.2992 H   0  0  0  0  0  0  0  0  0  0  0  0
   -1.0240   -0.1468    0.7262 C   0  0  1  0  0  0  0  0  0  0  0  0
   -0.3583   -0.6100    1.4558 H   0  0  0  0  0  0  0  0  0  0  0  0
   -0.3739   -0.2459   -0.6675 C   0  0  0  0  0  0  0  0  0  0  0  0
    0.6016   -0.7251   -0.5621 H   0  0  0  0  0  0  0  0  0  0  0  0
   -0.9938   -0.8730   -1.3097 H   0  0  0  0  0  0  0  0  0  0  0  0
   -0.1670    1.1199   -1.3406 C   0  0  0  0  0  0  0  0  0  0  0  0
   -1.1235    1.4987   -1.7017 H   0  0  0  0  0  0  0  0  0  0  0  0
    0.2428    1.8211   -0.6112 H   0  0  0  0  0  0  0  0  0  0  0  0
    0.7975    1.0052   -2.5264 C   0  0  0  0  0  0  0  0  0  0  0  0
    1.7576    0.6197   -2.1820 H   0  0  0  0  0  0  0  0  0  0  0  0
    0.3812    0.3239   -3.2690 H   0  0  0  0  0  0  0  0  0  0  0  0
    1.0046    2.3791   -3.1610 C   0  0  0  0  0  0  0  0  0  0  0  0
    0.0500    2.7580   -3.5224 H   0  0  0  0  0  0  0  0  0  0  0  0
    1.4036    3.0655   -2.4161 H   0  0  0  0  0  0  0  0  0  0  0  0
    1.9429    2.3093   -4.2871 N   0  0  0  0  0  0  0  0  0  0  0  0
    2.0450    3.2293   -4.6899 H   0  0  0  0  0  0  0  0  0  0  0  0
    2.8400    1.9886   -3.9515 H   0  0  0  0  0  0  0  0  0  0  0  0
   -1.2712    1.3099    1.1517 C   0  0  0  0  0  0  0  0  0  0  0  0
   -2.2039    1.9448    0.6639 O   0  0  0  0  0  0  0  0  0  0  0  0
   -0.4306    1.8354    2.0503 N   0  0  0  0  0  0  0  0  0  0  0  0
    0.3001    1.2459    2.4139 H   0  0  0  0  0  0  0  0  0  0  0  0
   -0.5192    3.2082    2.5456 C   0  0  0  0  0  0  0  0  0  0  0  0
   -1.5166    3.3903    2.9518 H   0  0  0  0  0  0  0  0  0  0  0  0
    0.2240    3.3791    3.3257 H   0  0  0  0  0  0  0  0  0  0  0  0
   -0.3477    3.9067    1.7239 H   0  0  0  0  0  0  0  0  0  0  0  0
  5  6  2  0  0  0  0
  5  7  1  0  0  0  0
  2  3  1  0  0  0  0
  2  4  1  0  0  0  0
  2  5  1  0  0  0  0
  1  2  1  0  0  0  0
 26 27  2  0  0  0  0
 26 28  1  0  0  0  0
 23 24  1  0  0  0  0
 23 25  1  0  0  0  0
 20 21  1  0  0  0  0
 20 22  1  0  0  0  0
 20 23  1  0  0  0  0
 17 18  1  0  0  0  0
 17 19  1  0  0  0  0
 17 20  1  0  0  0  0
 14 15  1  0  0  0  0
 14 16  1  0  0  0  0
 14 17  1  0  0  0  0
 11 12  1  0  0  0  0
 11 13  1  0  0  0  0
 11 14  1  0  0  0  0
  9 10  1  0  0  0  0
  9 11  1  0  0  0  0
  9 26  1  0  0  0  0
  7  8  1  0  0  0  0
  7  9  1  0  0  0  0
 30 31  1  0  0  0  0
 30 32  1  0  0  0  0
 30 33  1  0  0  0  0
 28 29  1  0  0  0  0
 28 30  1  0  0  0  0
M  END
$$$$
default_name
  -OEChem-02102213163D

 33 32  0     1  0  0  0  0  0999 V2000
   -3.8420   -3.6918    1.5562 H   0  0  0  0  0  0  0  0  0  0  0  0
   -3.8430   -2.7008    1.1032 C   0  0  0  0  0  0  0  0  0  0  0  0
   -4.5510   -2.0608    1.6242 H   0  0  0  0  0  0  0  0  0  0  0  0
   -4.1140   -2.7798    0.0522 H   0  0  0  0  0  0  0  0  0  0  0  0
   -2.4570   -2.1098    1.2172 C   0  0  0  0  0  0  0  0  0  0  0  0
   -1.5600   -2.7438    1.7572 O   0  0  0  0  0  0  0  0  0  0  0  0
   -2.2870   -0.8898    0.7102 N   0  0  0  0  0  0  0  0  0  0  0  0
   -3.0820   -0.4218    0.2992 H   0  0  0  0  0  0  0  0  0  0  0  0
   -1.0240   -0.1468    0.7262 C   0  0  1  0  0  0  0  0  0  0  0  0
   -0.3583   -0.6100    1.4558 H   0  0  0  0  0  0  0  0  0  0  0  0
   -0.3739   -0.2459   -0.6675 C   0  0  0  0  0  0  0  0  0  0  0  0
    0.4594   -0.9494   -0.6125 H   0  0  0  0  0  0  0  0  0  0  0  0
   -1.1036   -0.6372   -1.3777 H   0  0  0  0  0  0  0  0  0  0  0  0
    0.1656    1.0971   -1.1838 C   0  0  0  0  0  0  0  0  0  0  0  0
   -0.6501    1.8173   -1.2523 H   0  0  0  0  0  0  0  0  0  0  0  0
    0.9173    1.4735   -0.4875 H   0  0  0  0  0  0  0  0  0  0  0  0
    0.7989    0.9359   -2.5704 C   0  0  0  0  0  0  0  0  0  0  0  0
    1.6126    0.2118   -2.5198 H   0  0  0  0  0  0  0  0  0  0  0  0
    0.0456    0.5826   -3.2753 H   0  0  0  0  0  0  0  0  0  0  0  0
    1.3483    2.2785   -3.0487 C   0  0  0  0  0  0  0  0  0  0  0  0
    0.5343    2.9983   -3.1178 H   0  0  0  0  0  0  0  0  0  0  0  0
    2.0879    2.6413   -2.3368 H   0  0  0  0  0  0  0  0  0  0  0  0
    1.9838    2.1549   -4.3655 N   0  0  0  0  0  0  0  0  0  0  0  0
    2.3221    3.0606   -4.6558 H   0  0  0  0  0  0  0  0  0  0  0  0
    2.7603    1.5121   -4.2997 H   0  0  0  0  0  0  0  0  0  0  0  0
   -1.2712    1.3099    1.1517 C   0  0  0  0  0  0  0  0  0  0  0  0
   -2.2039    1.9448    0.6639 O   0  0  0  0  0  0  0  0  0  0  0  0
   -0.4306    1.8354    2.0503 N   0  0  0  0  0  0  0  0  0  0  0  0
    0.3001    1.2459    2.4139 H   0  0  0  0  0  0  0  0  0  0  0  0
   -0.5192    3.2082    2.5456 C   0  0  0  0  0  0  0  0  0  0  0  0
   -1.5166    3.3903    2.9518 H   0  0  0  0  0  0  0  0  0  0  0  0
    0.2240    3.3791    3.3257 H   0  0  0  0  0  0  0  0  0  0  0  0
   -0.3477    3.9067    1.7239 H   0  0  0  0  0  0  0  0  0  0  0  0
  5  6  2  0  0  0  0
  5  7  1  0  0  0  0
  2  3  1  0  0  0  0
  2  4  1  0  0  0  0
  2  5  1  0  0  0  0
  1  2  1  0  0  0  0
 26 27  2  0  0  0  0
 26 28  1  0  0  0  0
 23 24  1  0  0  0  0
 23 25  1  0  0  0  0
 20 21  1  0  0  0  0
 20 22  1  0  0  0  0
 20 23  1  0  0  0  0
 17 18  1  0  0  0  0
 17 19  1  0  0  0  0
 17 20  1  0  0  0  0
 14 15  1  0  0  0  0
 14 16  1  0  0  0  0
 14 17  1  0  0  0  0
 11 12  1  0  0  0  0
 11 13  1  0  0  0  0
 11 14  1  0  0  0  0
  9 10  1  0  0  0  0
  9 11  1  0  0  0  0
  9 26  1  0  0  0  0
  7  8  1  0  0  0  0
  7  9  1  0  0  0  0
 30 31  1  0  0  0  0
 30 32  1  0  0  0  0
 30 33  1  0  0  0  0
 28 29  1  0  0  0  0
 28 30  1  0  0  0  0
M  END
$$$$
default_name
  -OEChem-02102213163D

 33 32  0     1  0  0  0  0  0999 V2000
   -3.8420   -3.6918    1.5562 H   0  0  0  0  0  0  0  0  0  0  0  0
   -3.8430   -2.7008    1.1032 C   0  0  0  0  0  0  0  0  0  0  0  0
   -4.5510   -2.0608    1.6242 H   0  0  0  0  0  0  0  0  0  0  0  0
   -4.1140   -2.7798    0.0522 H   0  0  0  0  0  0  0  0  0  0  0  0
   -2.4570   -2.1098    1.2172 C   0  0  0  0  0  0  0  0  0  0  0  0
   -1.5600   -2.7438    1.7572 O   0  0  0  0  0  0  0  0  0  0  0  0
   -2.2870   -0.8898    0.7102 N   0  0  0  0  0  0  0  0  0  0  0  0
   -3.0820   -0.4218    0.2992 H   0  0  0  0  0  0  0  0  0  0  0  0
   -1.0240   -0.1468    0.7262 C   0  0  1  0  0  0  0  0  0  0  0  0
   -0.3583   -0.6100    1.4558 H   0  0  0  0  0  0  0  0  0  0  0  0
   -0.3739   -0.2459   -0.6675 C   0  0  0  0  0  0  0  0  0  0  0  0
    0.4594   -0.9494   -0.6125 H   0  0  0  0  0  0  0  0  0  0  0  0
   -1.1036   -0.6372   -1.3777 H   0  0  0  0  0  0  0  0  0  0  0  0
    0.1656    1.0971   -1.1838 C   0  0  0  0  0  0  0  0  0  0  0  0
   -0.5708    1.8808   -1.0041 H   0  0  0  0  0  0  0  0  0  0  0  0
    1.0862    1.3428   -0.6512 H   0  0  0  0  0  0  0  0  0  0  0  0
    0.4562    1.0286   -2.6873 C   0  0  0  0  0  0  0  0  0  0  0  0
    1.1863    0.2430   -2.8841 H   0  0  0  0  0  0  0  0  0  0  0  0
   -0.4656    0.8069   -3.2260 H   0  0  0  0  0  0  0  0  0  0  0  0
    1.0137    2.3666   -3.1690 C   0  0  0  0  0  0  0  0  0  0  0  0
    0.2788    3.1499   -2.9905 H   0  0  0  0  0  0  0  0  0  0  0  0
    1.9247    2.5981   -2.6196 H   0  0  0  0  0  0  0  0  0  0  0  0
    1.3256    2.3282   -4.6024 N   0  0  0  0  0  0  0  0  0  0  0  0
    1.6775    3.2301   -4.8885 H   0  0  0  0  0  0  0  0  0  0  0  0
    2.0309    1.6246   -4.7693 H   0  0  0  0  0  0  0  0  0  0  0  0
   -1.2712    1.3099    1.1517 C   0  0  0  0  0  0  0  0  0  0  0  0
   -2.2039    1.9448    0.6639 O   0  0  0  0  0  0  0  0  0  0  0  0
   -0.4306    1.8354    2.0503 N   0  0  0  0  0  0  0  0  0  0  0  0
    0.3001    1.2459    2.4139 H   0  0  0  0  0  0  0  0  0  0  0  0
   -0.5192    3.2082    2.5456 C   0  0  0  0  0  0  0  0  0  0  0  0
   -1.5166    3.3903    2.9518 H   0  0  0  0  0  0  0  0  0  0  0  0
    0.2240    3.3791    3.3257 H   0  0  0  0  0  0  0  0  0  0  0  0
   -0.3477    3.9067    1.7239 H   0  0  0  0  0  0  0  0  0  0  0  0
  5  6  2  0  0  0  0
  5  7  1  0  0  0  0
  2  3  1  0  0  0  0
  2  4  1  0  0  0  0
  2  5  1  0  0  0  0
  1  2  1  0  0  0  0
 26 27  2  0  0  0  0
 26 28  1  0  0  0  0
 23 24  1  0  0  0  0
 23 25  1  0  0  0  0
 20 21  1  0  0  0  0
 20 22  1  0  0  0  0
 20 23  1  0  0  0  0
 17 18  1  0  0  0  0
 17 19  1  0  0  0  0
 17 20  1  0  0  0  0
 14 15  1  0  0  0  0
 14 16  1  0  0  0  0
 14 17  1  0  0  0  0
 11 12  1  0  0  0  0
 11 13  1  0  0  0  0
 11 14  1  0  0  0  0
  9 10  1  0  0  0  0
  9 11  1  0  0  0  0
  9 26  1  0  0  0  0
  7  8  1  0  0  0  0
  7  9  1  0  0  0  0
 30 31  1  0  0  0  0
 30 32  1  0  0  0  0
 30 33  1  0  0  0  0
 28 29  1  0  0  0  0
 28 30  1  0  0  0  0
M  END
$$$$
default_name
  -OEChem-02102213163D

 33 32  0     1  0  0  0  0  0999 V2000
   -3.8420   -3.6918    1.5562 H   0  0  0  0  0  0  0  0  0  0  0  0
   -3.8430   -2.7008    1.1032 C   0  0  0  0  0  0  0  0  0  0  0  0
   -4.5510   -2.0608    1.6242 H   0  0  0  0  0  0  0  0  0  0  0  0
   -4.1140   -2.7798    0.0522 H   0  0  0  0  0  0  0  0  0  0  0  0
   -2.4570   -2.1098    1.2172 C   0  0  0  0  0  0  0  0  0  0  0  0
   -1.5600   -2.7438    1.7572 O   0  0  0  0  0  0  0  0  0  0  0  0
   -2.2870   -0.8898    0.7102 N   0  0  0  0  0  0  0  0  0  0  0  0
   -3.0820   -0.4218    0.2992 H   0  0  0  0  0  0  0  0  0  0  0  0
   -1.0240   -0.1468    0.7262 C   0  0  1  0  0  0  0  0  0  0  0  0
   -0.3583   -0.6100    1.4558 H   0  0  0  0  0  0  0  0  0  0  0  0
   -0.3739   -0.2459   -0.6675 C   0  0  0  0  0  0  0  0  0  0  0  0
    0.4594   -0.9494   -0.6125 H   0  0  0  0  0  0  0  0  0  0  0  0
   -1.1036   -0.6372   -1.3777 H   0  0  0  0  0  0  0  0  0  0  0  0
    0.1656    1.0971   -1.1838 C   0  0  0  0  0  0  0  0  0  0  0  0
   -0.4326    1.9127   -0.7767 H   0  0  0  0  0  0  0  0  0  0  0  0
    1.2010    1.2166   -0.8594 H   0  0  0  0  0  0  0  0  0  0  0  0
    0.1068    1.1586   -2.7143 C   0  0  0  0  0  0  0  0  0  0  0  0
    0.6948    0.3433   -3.1368 H   0  0  0  0  0  0  0  0  0  0  0  0
   -0.9287    1.0636   -3.0424 H   0  0  0  0  0  0  0  0  0  0  0  0
    0.6710    2.4918   -3.2016 C   0  0  0  0  0  0  0  0  0  0  0  0
    0.0740    3.3069   -2.7959 H   0  0  0  0  0  0  0  0  0  0  0  0
    1.6994    2.5963   -2.8598 H   0  0  0  0  0  0  0  0  0  0  0  0
    0.6514    2.5745   -4.6666 N   0  0  0  0  0  0  0  0  0  0  0  0
    1.0170    3.4710   -4.9521 H   0  0  0  0  0  0  0  0  0  0  0  0
    1.2299    1.8394   -5.0477 H   0  0  0  0  0  0  0  0  0  0  0  0
   -1.2712    1.3099    1.1517 C   0  0  0  0  0  0  0  0  0  0  0  0
   -2.2039    1.9448    0.6639 O   0  0  0  0  0  0  0  0  0  0  0  0
   -0.4306    1.8354    2.0503 N   0  0  0  0  0  0  0  0  0  0  0  0
    0.3001    1.2459    2.4139 H   0  0  0  0  0  0  0  0  0  0  0  0
   -0.5192    3.2082    2.5456 C   0  0  0  0  0  0  0  0  0  0  0  0
   -1.5166    3.3903    2.9518 H   0  0  0  0  0  0  0  0  0  0  0  0
    0.2240    3.3791    3.3257 H   0  0  0  0  0  0  0  0  0  0  0  0
   -0.3477    3.9067    1.7239 H   0  0  0  0  0  0  0  0  0  0  0  0
  5  6  2  0  0  0  0
  5  7  1  0  0  0  0
  2  3  1  0  0  0  0
  2  4  1  0  0  0  0
  2  5  1  0  0  0  0
  1  2  1  0  0  0  0
 26 27  2  0  0  0  0
 26 28  1  0  0  0  0
 23 24  1  0  0  0  0
 23 25  1  0  0  0  0
 20 21  1  0  0  0  0
 20 22  1  0  0  0  0
 20 23  1  0  0  0  0
 17 18  1  0  0  0  0
 17 19  1  0  0  0  0
 17 20  1  0  0  0  0
 14 15  1  0  0  0  0
 14 16  1  0  0  0  0
 14 17  1  0  0  0  0
 11 12  1  0  0  0  0
 11 13  1  0  0  0  0
 11 14  1  0  0  0  0
  9 10  1  0  0  0  0
  9 11  1  0  0  0  0
  9 26  1  0  0  0  0
  7  8  1  0  0  0  0
  7  9  1  0  0  0  0
 30 31  1  0  0  0  0
 30 32  1  0  0  0  0
 30 33  1  0  0  0  0
 28 29  1  0  0  0  0
 28 30  1  0  0  0  0
M  END
$$$$
default_name
  -OEChem-02102213163D

 33 32  0     1  0  0  0  0  0999 V2000
   -3.8420   -3.6918    1.5562 H   0  0  0  0  0  0  0  0  0  0  0  0
   -3.8430   -2.7008    1.1032 C   0  0  0  0  0  0  0  0  0  0  0  0
   -4.5510   -2.0608    1.6242 H   0  0  0  0  0  0  0  0  0  0  0  0
   -4.1140   -2.7798    0.0522 H   0  0  0  0  0  0  0  0  0  0  0  0
   -2.4570   -2.1098    1.2172 C   0  0  0  0  0  0  0  0  0  0  0  0
   -1.5600   -2.7438    1.7572 O   0  0  0  0  0  0  0  0  0  0  0  0
   -2.2870   -0.8898    0.7102 N   0  0  0  0  0  0  0  0  0  0  0  0
   -3.0820   -0.4218    0.2992 H   0  0  0  0  0  0  0  0  0  0  0  0
   -1.0240   -0.1468    0.7262 C   0  0  1  0  0  0  0  0  0  0  0  0
   -0.3583   -0.6100    1.4558 H   0  0  0  0  0  0  0  0  0  0  0  0
   -0.3739   -0.2459   -0.6675 C   0  0  0  0  0  0  0  0  0  0  0  0
    0.4594   -0.9494   -0.6125 H   0  0  0  0  0  0  0  0  0  0  0  0
   -1.1036   -0.6372   -1.3777 H   0  0  0  0  0  0  0  0  0  0  0  0
    0.1656    1.0971   -1.1838 C   0  0  0  0  0  0  0  0  0  0  0  0
   -0.2448    1.9109   -0.5853 H   0  0  0  0  0  0  0  0  0  0  0  0
    1.2538    1.1037   -1.0979 H   0  0  0  0  0  0  0  0  0  0  0  0
   -0.2255    1.3170   -2.6495 C   0  0  0  0  0  0  0  0  0  0  0  0
    0.1716    0.5059   -3.2605 H   0  0  0  0  0  0  0  0  0  0  0  0
   -1.3123    1.3351   -2.7370 H   0  0  0  0  0  0  0  0  0  0  0  0
    0.3434    2.6454   -3.1442 C   0  0  0  0  0  0  0  0  0  0  0  0
   -0.0662    3.4588   -2.5474 H   0  0  0  0  0  0  0  0  0  0  0  0
    1.4273    2.6360   -3.0410 H   0  0  0  0  0  0  0  0  0  0  0  0
    0.0070    2.8768   -4.5537 N   0  0  0  0  0  0  0  0  0  0  0  0
    0.3856    3.7669   -4.8422 H   0  0  0  0  0  0  0  0  0  0  0  0
    0.4119    2.1418   -5.1159 H   0  0  0  0  0  0  0  0  0  0  0  0
   -1.2712    1.3099    1.1517 C   0  0  0  0  0  0  0  0  0  0  0  0
   -2.2039    1.9448    0.6639 O   0  0  0  0  0  0  0  0  0  0  0  0
   -0.4306    1.8354    2.0503 N   0  0  0  0  0  0  0  0  0  0  0  0
    0.3001    1.2459    2.4139 H   0  0  0  0  0  0  0  0  0  0  0  0
   -0.5192    3.2082    2.5456 C   0  0  0  0  0  0  0  0  0  0  0  0
   -1.5166    3.3903    2.9518 H   0  0  0  0  0  0  0  0  0  0  0  0
    0.2240    3.3791    3.3257 H   0  0  0  0  0  0  0  0  0  0  0  0
   -0.3477    3.9067    1.7239 H   0  0  0  0  0  0  0  0  0  0  0  0
  5  6  2  0  0  0  0
  5  7  1  0  0  0  0
  2  3  1  0  0  0  0
  2  4  1  0  0  0  0
  2  5  1  0  0  0  0
  1  2  1  0  0  0  0
 26 27  2  0  0  0  0
 26 28  1  0  0  0  0
 23 24  1  0  0  0  0
 23 25  1  0  0  0  0
 20 21  1  0  0  0  0
 20 22  1  0  0  0  0
 20 23  1  0  0  0  0
 17 18  1  0  0  0  0
 17 19  1  0  0  0  0
 17 20  1  0  0  0  0
 14 15  1  0  0  0  0
 14 16  1  0  0  0  0
 14 17  1  0  0  0  0
 11 12  1  0  0  0  0
 11 13  1  0  0  0  0
 11 14  1  0  0  0  0
  9 10  1  0  0  0  0
  9 11  1  0  0  0  0
  9 26  1  0  0  0  0
  7  8  1  0  0  0  0
  7  9  1  0  0  0  0
 30 31  1  0  0  0  0
 30 32  1  0  0  0  0
 30 33  1  0  0  0  0
 28 29  1  0  0  0  0
 28 30  1  0  0  0  0
M  END
$$$$
default_name
  -OEChem-02102213163D

 33 32  0     1  0  0  0  0  0999 V2000
   -3.8420   -3.6918    1.5562 H   0  0  0  0  0  0  0  0  0  0  0  0
   -3.8430   -2.7008    1.1032 C   0  0  0  0  0  0  0  0  0  0  0  0
   -4.5510   -2.0608    1.6242 H   0  0  0  0  0  0  0  0  0  0  0  0
   -4.1140   -2.7798    0.0522 H   0  0  0  0  0  0  0  0  0  0  0  0
   -2.4570   -2.1098    1.2172 C   0  0  0  0  0  0  0  0  0  0  0  0
   -1.5600   -2.7438    1.7572 O   0  0  0  0  0  0  0  0  0  0  0  0
   -2.2870   -0.8898    0.7102 N   0  0  0  0  0  0  0  0  0  0  0  0
   -3.0820   -0.4218    0.2992 H   0  0  0  0  0  0  0  0  0  0  0  0
   -1.0240   -0.1468    0.7262 C   0  0  1  0  0  0  0  0  0  0  0  0
   -0.3583   -0.6100    1.4558 H   0  0  0  0  0  0  0  0  0  0  0  0
   -0.3739   -0.2459   -0.6675 C   0  0  0  0  0  0  0  0  0  0  0  0
    0.4594   -0.9494   -0.6125 H   0  0  0  0  0  0  0  0  0  0  0  0
   -1.1036   -0.6372   -1.3777 H   0  0  0  0  0  0  0  0  0  0  0  0
    0.1656    1.0971   -1.1838 C   0  0  0  0  0  0  0  0  0  0  0  0
   -0.0203    1.8753   -0.4431 H   0  0  0  0  0  0  0  0  0  0  0  0
    1.2410    1.0118   -1.3504 H   0  0  0  0  0  0  0  0  0  0  0  0
   -0.5181    1.4930   -2.4974 C   0  0  0  0  0  0  0  0  0  0  0  0
   -0.3476    0.7197   -3.2469 H   0  0  0  0  0  0  0  0  0  0  0  0
   -1.5900    1.6029   -2.3306 H   0  0  0  0  0  0  0  0  0  0  0  0
    0.0534    2.8171   -3.0007 C   0  0  0  0  0  0  0  0  0  0  0  0
   -0.1322    3.5951   -2.2618 H   0  0  0  0  0  0  0  0  0  0  0  0
    1.1269    2.7144   -3.1508 H   0  0  0  0  0  0  0  0  0  0  0  0
   -0.5637    3.2145   -4.2713 N   0  0  0  0  0  0  0  0  0  0  0  0
   -0.1737    4.0976   -4.5664 H   0  0  0  0  0  0  0  0  0  0  0  0
   -0.3673    2.5112   -4.9693 H   0  0  0  0  0  0  0  0  0  0  0  0
   -1.2712    1.3099    1.1517 C   0  0  0  0  0  0  0  0  0  0  0  0
   -2.2039    1.9448    0.6639 O   0  0  0  0  0  0  0  0  0  0  0  0
   -0.4306    1.8354    2.0503 N   0  0  0  0  0  0  0  0  0  0  0  0
    0.3001    1.2459    2.4139 H   0  0  0  0  0  0  0  0  0  0  0  0
   -0.5192    3.2082    2.5456 C   0  0  0  0  0  0  0  0  0  0  0  0
   -1.5166    3.3903    2.9518 H   0  0  0  0  0  0  0  0  0  0  0  0
    0.2240    3.3791    3.3257 H   0  0  0  0  0  0  0  0  0  0  0  0
   -0.3477    3.9067    1.7239 H   0  0  0  0  0  0  0  0  0  0  0  0
  5  6  2  0  0  0  0
  5  7  1  0  0  0  0
  2  3  1  0  0  0  0
  2  4  1  0  0  0  0
  2  5  1  0  0  0  0
  1  2  1  0  0  0  0
 26 27  2  0  0  0  0
 26 28  1  0  0  0  0
 23 24  1  0  0  0  0
 23 25  1  0  0  0  0
 20 21  1  0  0  0  0
 20 22  1  0  0  0  0
 20 23  1  0  0  0  0
 17 18  1  0  0  0  0
 17 19  1  0  0  0  0
 17 20  1  0  0  0  0
 14 15  1  0  0  0  0
 14 16  1  0  0  0  0
 14 17  1  0  0  0  0
 11 12  1  0  0  0  0
 11 13  1  0  0  0  0
 11 14  1  0  0  0  0
  9 10  1  0  0  0  0
  9 11  1  0  0  0  0
  9 26  1  0  0  0  0
  7  8  1  0  0  0  0
  7  9  1  0  0  0  0
 30 31  1  0  0  0  0
 30 32  1  0  0  0  0
 30 33  1  0  0  0  0
 28 29  1  0  0  0  0
 28 30  1  0  0  0  0
M  END
$$$$
default_name
  -OEChem-02102213163D

 33 32  0     1  0  0  0  0  0999 V2000
   -3.8420   -3.6918    1.5562 H   0  0  0  0  0  0  0  0  0  0  0  0
   -3.8430   -2.7008    1.1032 C   0  0  0  0  0  0  0  0  0  0  0  0
   -4.5510   -2.0608    1.6242 H   0  0  0  0  0  0  0  0  0  0  0  0
   -4.1140   -2.7798    0.0522 H   0  0  0  0  0  0  0  0  0  0  0  0
   -2.4570   -2.1098    1.2172 C   0  0  0  0  0  0  0  0  0  0  0  0
   -1.5600   -2.7438    1.7572 O   0  0  0  0  0  0  0  0  0  0  0  0
   -2.2870   -0.8898    0.7102 N   0  0  0  0  0  0  0  0  0  0  0  0
   -3.0820   -0.4218    0.2992 H   0  0  0  0  0  0  0  0  0  0  0  0
   -1.0240   -0.1468    0.7262 C   0  0  1  0  0  0  0  0  0  0  0  0
   -0.3583   -0.6100    1.4558 H   0  0  0  0  0  0  0  0  0  0  0  0
   -0.3739   -0.2459   -0.6675 C   0  0  0  0  0  0  0  0  0  0  0  0
    0.4594   -0.9494   -0.6125 H   0  0  0  0  0  0  0  0  0  0  0  0
   -1.1036   -0.6372   -1.3777 H   0  0  0  0  0  0  0  0  0  0  0  0
    0.1656    1.0971   -1.1838 C   0  0  0  0  0  0  0  0  0  0  0  0
    0.2257    1.8086   -0.3598 H   0  0  0  0  0  0  0  0  0  0  0  0
    1.1635    0.9470   -1.5999 H   0  0  0  0  0  0  0  0  0  0  0  0
   -0.7509    1.6747   -2.2682 C   0  0  0  0  0  0  0  0  0  0  0  0
   -0.8274    0.9701   -3.0969 H   0  0  0  0  0  0  0  0  0  0  0  0
   -1.7431    1.8488   -1.8508 H   0  0  0  0  0  0  0  0  0  0  0  0
   -0.1794    2.9952   -2.7808 C   0  0  0  0  0  0  0  0  0  0  0  0
   -0.1194    3.7065   -1.9587 H   0  0  0  0  0  0  0  0  0  0  0  0
    0.8186    2.8263   -3.1819 H   0  0  0  0  0  0  0  0  0  0  0  0
   -1.0216    3.5647   -3.8389 N   0  0  0  0  0  0  0  0  0  0  0  0
   -0.6228    4.4407   -4.1434 H   0  0  0  0  0  0  0  0  0  0  0  0
   -1.0547    2.9225   -4.6178 H   0  0  0  0  0  0  0  0  0  0  0  0
   -1.2712    1.3099    1.1517 C   0  0  0  0  0  0  0  0  0  0  0  0
   -2.2039    1.9448    0.6639 O   0  0  0  0  0  0  0  0  0  0  0  0
   -0.4306    1.8354    2.0503 N   0  0  0  0  0  0  0  0  0  0  0  0
    0.3001    1.2459    2.4139 H   0  0  0  0  0  0  0  0  0  0  0  0
   -0.5192    3.2082    2.5456 C   0  0  0  0  0  0  0  0  0  0  0  0
   -1.5166    3.3903    2.9518 H   0  0  0  0  0  0  0  0  0  0  0  0
    0.2240    3.3791    3.3257 H   0  0  0  0  0  0  0  0  0  0  0  0
   -0.3477    3.9067    1.7239 H   0  0  0  0  0  0  0  0  0  0  0  0
  5  6  2  0  0  0  0
  5  7  1  0  0  0  0
  2  3  1  0  0  0  0
  2  4  1  0  0  0  0
  2  5  1  0  0  0  0
  1  2  1  0  0  0  0
 26 27  2  0  0  0  0
 26 28  1  0  0  0  0
 23 24  1  0  0  0  0
 23 25  1  0  0  0  0
 20 21  1  0  0  0  0
 20 22  1  0  0  0  0
 20 23  1  0  0  0  0
 17 18  1  0  0  0  0
 17 19  1  0  0  0  0
 17 20  1  0  0  0  0
 14 15  1  0  0  0  0
 14 16  1  0  0  0  0
 14 17  1  0  0  0  0
 11 12  1  0  0  0  0
 11 13  1  0  0  0  0
 11 14  1  0  0  0  0
  9 10  1  0  0  0  0
  9 11  1  0  0  0  0
  9 26  1  0  0  0  0
  7  8  1  0  0  0  0
  7  9  1  0  0  0  0
 30 31  1  0  0  0  0
 30 32  1  0  0  0  0
 30 33  1  0  0  0  0
 28 29  1  0  0  0  0
 28 30  1  0  0  0  0
M  END
$$$$
default_name
  -OEChem-02102213163D

 33 32  0     1  0  0  0  0  0999 V2000
   -3.8420   -3.6918    1.5562 H   0  0  0  0  0  0  0  0  0  0  0  0
   -3.8430   -2.7008    1.1032 C   0  0  0  0  0  0  0  0  0  0  0  0
   -4.5510   -2.0608    1.6242 H   0  0  0  0  0  0  0  0  0  0  0  0
   -4.1140   -2.7798    0.0522 H   0  0  0  0  0  0  0  0  0  0  0  0
   -2.4570   -2.1098    1.2172 C   0  0  0  0  0  0  0  0  0  0  0  0
   -1.5600   -2.7438    1.7572 O   0  0  0  0  0  0  0  0  0  0  0  0
   -2.2870   -0.8898    0.7102 N   0  0  0  0  0  0  0  0  0  0  0  0
   -3.0820   -0.4218    0.2992 H   0  0  0  0  0  0  0  0  0  0  0  0
   -1.0240   -0.1468    0.7262 C   0  0  1  0  0  0  0  0  0  0  0  0
   -0.3583   -0.6100    1.4558 H   0  0  0  0  0  0  0  0  0  0  0  0
   -0.3739   -0.2459   -0.6675 C   0  0  0  0  0  0  0  0  0  0  0  0
    0.4594   -0.9494   -0.6125 H   0  0  0  0  0  0  0  0  0  0  0  0
   -1.1036   -0.6372   -1.3777 H   0  0  0  0  0  0  0  0  0  0  0  0
    0.1656    1.0971   -1.1838 C   0  0  0  0  0  0  0  0  0  0  0  0
    0.4763    1.7151   -0.3410 H   0  0  0  0  0  0  0  0  0  0  0  0
    1.0267    0.9138   -1.8292 H   0  0  0  0  0  0  0  0  0  0  0  0
   -0.9082    1.8496   -1.9777 C   0  0  0  0  0  0  0  0  0  0  0  0
   -1.2352    1.2401   -2.8208 H   0  0  0  0  0  0  0  0  0  0  0  0
   -1.7610    2.0561   -1.3304 H   0  0  0  0  0  0  0  0  0  0  0  0
   -0.3390    3.1674   -2.4996 C   0  0  0  0  0  0  0  0  0  0  0  0
   -0.0289    3.7855   -1.6586 H   0  0  0  0  0  0  0  0  0  0  0  0
    0.5237    2.9640   -3.1320 H   0  0  0  0  0  0  0  0  0  0  0  0
   -1.3356    3.9036   -3.2858 N   0  0  0  0  0  0  0  0  0  0  0  0
   -0.9311    4.7727   -3.6020 H   0  0  0  0  0  0  0  0  0  0  0  0
   -1.6034    3.3476   -4.0855 H   0  0  0  0  0  0  0  0  0  0  0  0
   -1.2712    1.3099    1.1517 C   0  0  0  0  0  0  0  0  0  0  0  0
   -2.2039    1.9448    0.6639 O   0  0  0  0  0  0  0  0  0  0  0  0
   -0.4306    1.8354    2.0503 N   0  0  0  0  0  0  0  0  0  0  0  0
    0.3001    1.2459    2.4139 H   0  0  0  0  0  0  0  0  0  0  0  0
   -0.5192    3.2082    2.5456 C   0  0  0  0  0  0  0  0  0  0  0  0
   -1.5166    3.3903    2.9518 H   0  0  0  0  0  0  0  0  0  0  0  0
    0.2240    3.3791    3.3257 H   0  0  0  0  0  0  0  0  0  0  0  0
   -0.3477    3.9067    1.7239 H   0  0  0  0  0  0  0  0  0  0  0  0
  5  6  2  0  0  0  0
  5  7  1  0  0  0  0
  2  3  1  0  0  0  0
  2  4  1  0  0  0  0
  2  5  1  0  0  0  0
  1  2  1  0  0  0  0
 26 27  2  0  0  0  0
 26 28  1  0  0  0  0
 23 24  1  0  0  0  0
 23 25  1  0  0  0  0
 20 21  1  0  0  0  0
 20 22  1  0  0  0  0
 20 23  1  0  0  0  0
 17 18  1  0  0  0  0
 17 19  1  0  0  0  0
 17 20  1  0  0  0  0
 14 15  1  0  0  0  0
 14 16  1  0  0  0  0
 14 17  1  0  0  0  0
 11 12  1  0  0  0  0
 11 13  1  0  0  0  0
 11 14  1  0  0  0  0
  9 10  1  0  0  0  0
  9 11  1  0  0  0  0
  9 26  1  0  0  0  0
  7  8  1  0  0  0  0
  7  9  1  0  0  0  0
 30 31  1  0  0  0  0
 30 32  1  0  0  0  0
 30 33  1  0  0  0  0
 28 29  1  0  0  0  0
 28 30  1  0  0  0  0
M  END
$$$$
default_name
  -OEChem-02102213163D

 33 32  0     1  0  0  0  0  0999 V2000
   -3.8420   -3.6918    1.5562 H   0  0  0  0  0  0  0  0  0  0  0  0
   -3.8430   -2.7008    1.1032 C   0  0  0  0  0  0  0  0  0  0  0  0
   -4.5510   -2.0608    1.6242 H   0  0  0  0  0  0  0  0  0  0  0  0
   -4.1140   -2.7798    0.0522 H   0  0  0  0  0  0  0  0  0  0  0  0
   -2.4570   -2.1098    1.2172 C   0  0  0  0  0  0  0  0  0  0  0  0
   -1.5600   -2.7438    1.7572 O   0  0  0  0  0  0  0  0  0  0  0  0
   -2.2870   -0.8898    0.7102 N   0  0  0  0  0  0  0  0  0  0  0  0
   -3.0820   -0.4218    0.2992 H   0  0  0  0  0  0  0  0  0  0  0  0
   -1.0240   -0.1468    0.7262 C   0  0  1  0  0  0  0  0  0  0  0  0
   -0.3583   -0.6100    1.4558 H   0  0  0  0  0  0  0  0  0  0  0  0
   -0.3739   -0.2459   -0.6675 C   0  0  0  0  0  0  0  0  0  0  0  0
    0.4594   -0.9494   -0.6125 H   0  0  0  0  0  0  0  0  0  0  0  0
   -1.1036   -0.6372   -1.3777 H   0  0  0  0  0  0  0  0  0  0  0  0
    0.1656    1.0971   -1.1838 C   0  0  0  0  0  0  0  0  0  0  0  0
    0.7145    1.6014   -0.3880 H   0  0  0  0  0  0  0  0  0  0  0  0
    0.8397    0.9145   -2.0227 H   0  0  0  0  0  0  0  0  0  0  0  0
   -0.9793    2.0058   -1.6457 C   0  0  0  0  0  0  0  0  0  0  0  0
   -1.5431    1.5112   -2.4372 H   0  0  0  0  0  0  0  0  0  0  0  0
   -1.6426    2.2106   -0.8049 H   0  0  0  0  0  0  0  0  0  0  0  0
   -0.4146    3.3221   -2.1763 C   0  0  0  0  0  0  0  0  0  0  0  0
    0.1333    3.8266   -1.3821 H   0  0  0  0  0  0  0  0  0  0  0  0
    0.2620    3.1181   -3.0046 H   0  0  0  0  0  0  0  0  0  0  0  0
   -1.4844    4.2079   -2.6497 N   0  0  0  0  0  0  0  0  0  0  0  0
   -1.0775    5.0709   -2.9792 H   0  0  0  0  0  0  0  0  0  0  0  0
   -1.9760    3.7575   -3.4085 H   0  0  0  0  0  0  0  0  0  0  0  0
   -1.2712    1.3099    1.1517 C   0  0  0  0  0  0  0  0  0  0  0  0
   -2.2039    1.9448    0.6639 O   0  0  0  0  0  0  0  0  0  0  0  0
   -0.4306    1.8354    2.0503 N   0  0  0  0  0  0  0  0  0  0  0  0
    0.3001    1.2459    2.4139 H   0  0  0  0  0  0  0  0  0  0  0  0
   -0.5192    3.2082    2.5456 C   0  0  0  0  0  0  0  0  0  0  0  0
   -1.5166    3.3903    2.9518 H   0  0  0  0  0  0  0  0  0  0  0  0
    0.2240    3.3791    3.3257 H   0  0  0  0  0  0  0  0  0  0  0  0
   -0.3477    3.9067    1.7239 H   0  0  0  0  0  0  0  0  0  0  0  0
  5  6  2  0  0  0  0
  5  7  1  0  0  0  0
  2  3  1  0  0  0  0
  2  4  1  0  0  0  0
  2  5  1  0  0  0  0
  1  2  1  0  0  0  0
 26 27  2  0  0  0  0
 26 28  1  0  0  0  0
 23 24  1  0  0  0  0
 23 25  1  0  0  0  0
 20 21  1  0  0  0  0
 20 22  1  0  0  0  0
 20 23  1  0  0  0  0
 17 18  1  0  0  0  0
 17 19  1  0  0  0  0
 17 20  1  0  0  0  0
 14 15  1  0  0  0  0
 14 16  1  0  0  0  0
 14 17  1  0  0  0  0
 11 12  1  0  0  0  0
 11 13  1  0  0  0  0
 11 14  1  0  0  0  0
  9 10  1  0  0  0  0
  9 11  1  0  0  0  0
  9 26  1  0  0  0  0
  7  8  1  0  0  0  0
  7  9  1  0  0  0  0
 30 31  1  0  0  0  0
 30 32  1  0  0  0  0
 30 33  1  0  0  0  0
 28 29  1  0  0  0  0
 28 30  1  0  0  0  0
M  END
$$$$
default_name
  -OEChem-02102213163D

 33 32  0     1  0  0  0  0  0999 V2000
   -3.8420   -3.6918    1.5562 H   0  0  0  0  0  0  0  0  0  0  0  0
   -3.8430   -2.7008    1.1032 C   0  0  0  0  0  0  0  0  0  0  0  0
   -4.5510   -2.0608    1.6242 H   0  0  0  0  0  0  0  0  0  0  0  0
   -4.1140   -2.7798    0.0522 H   0  0  0  0  0  0  0  0  0  0  0  0
   -2.4570   -2.1098    1.2172 C   0  0  0  0  0  0  0  0  0  0  0  0
   -1.5600   -2.7438    1.7572 O   0  0  0  0  0  0  0  0  0  0  0  0
   -2.2870   -0.8898    0.7102 N   0  0  0  0  0  0  0  0  0  0  0  0
   -3.0820   -0.4218    0.2992 H   0  0  0  0  0  0  0  0  0  0  0  0
   -1.0240   -0.1468    0.7262 C   0  0  1  0  0  0  0  0  0  0  0  0
   -0.3583   -0.6100    1.4558 H   0  0  0  0  0  0  0  0  0  0  0  0
   -0.3739   -0.2459   -0.6675 C   0  0  0  0  0  0  0  0  0  0  0  0
    0.4594   -0.9494   -0.6125 H   0  0  0  0  0  0  0  0  0  0  0  0
   -1.1036   -0.6372   -1.3777 H   0  0  0  0  0  0  0  0  0  0  0  0
    0.1656    1.0971   -1.1838 C   0  0  0  0  0  0  0  0  0  0  0  0
    0.9240    1.4750   -0.4976 H   0  0  0  0  0  0  0  0  0  0  0  0
    0.6154    0.9490   -2.1673 H   0  0  0  0  0  0  0  0  0  0  0  0
   -0.9592    2.1326   -1.2947 C   0  0  0  0  0  0  0  0  0  0  0  0
   -1.7302    1.7651   -1.9725 H   0  0  0  0  0  0  0  0  0  0  0  0
   -1.3960    2.3018   -0.3100 H   0  0  0  0  0  0  0  0  0  0  0  0
   -0.4010    3.4487   -1.8328 C   0  0  0  0  0  0  0  0  0  0  0  0
    0.3562    3.8271   -1.1479 H   0  0  0  0  0  0  0  0  0  0  0  0
    0.0514    3.2782   -2.8083 H   0  0  0  0  0  0  0  0  0  0  0  0
   -1.4578    4.4570   -1.9739 N   0  0  0  0  0  0  0  0  0  0  0  0
   -1.0522    5.3152   -2.3173 H   0  0  0  0  0  0  0  0  0  0  0  0
   -2.1471    4.1244   -2.6331 H   0  0  0  0  0  0  0  0  0  0  0  0
   -1.2712    1.3099    1.1517 C   0  0  0  0  0  0  0  0  0  0  0  0
   -2.2039    1.9448    0.6639 O   0  0  0  0  0  0  0  0  0  0  0  0
   -0.4306    1.8354    2.0503 N   0  0  0  0  0  0  0  0  0  0  0  0
    0.3001    1.2459    2.4139 H   0  0  0  0  0  0  0  0  0  0  0  0
   -0.5192    3.2082    2.5456 C   0  0  0  0  0  0  0  0  0  0  0  0
   -1.5166    3.3903    2.9518 H   0  0  0  0  0  0  0  0  0  0  0  0
    0.2240    3.3791    3.3257 H   0  0  0  0  0  0  0  0  0  0  0  0
   -0.3477    3.9067    1.7239 H   0  0  0  0  0  0  0  0  0  0  0  0
  5  6  2  0  0  0  0
  5  7  1  0  0  0  0
  2  3  1  0  0  0  0
  2  4  1  0  0  0  0
  2  5  1  0  0  0  0
  1  2  1  0  0  0  0
 26 27  2  0  0  0  0
 26 28  1  0  0  0  0
 23 24  1  0  0  0  0
 23 25  1  0  0  0  0
 20 21  1  0  0  0  0
 20 22  1  0  0  0  0
 20 23  1  0  0  0  0
 17 18  1  0  0  0  0
 17 19  1  0  0  0  0
 17 20  1  0  0  0  0
 14 15  1  0  0  0  0
 14 16  1  0  0  0  0
 14 17  1  0  0  0  0
 11 12  1  0  0  0  0
 11 13  1  0  0  0  0
 11 14  1  0  0  0  0
  9 10  1  0  0  0  0
  9 11  1  0  0  0  0
  9 26  1  0  0  0  0
  7  8  1  0  0  0  0
  7  9  1  0  0  0  0
 30 31  1  0  0  0  0
 30 32  1  0  0  0  0
 30 33  1  0  0  0  0
 28 29  1  0  0  0  0
 28 30  1  0  0  0  0
M  END
$$$$
default_name
  -OEChem-02102213163D

 33 32  0     1  0  0  0  0  0999 V2000
   -3.8420   -3.6918    1.5562 H   0  0  0  0  0  0  0  0  0  0  0  0
   -3.8430   -2.7008    1.1032 C   0  0  0  0  0  0  0  0  0  0  0  0
   -4.5510   -2.0608    1.6242 H   0  0  0  0  0  0  0  0  0  0  0  0
   -4.1140   -2.7798    0.0522 H   0  0  0  0  0  0  0  0  0  0  0  0
   -2.4570   -2.1098    1.2172 C   0  0  0  0  0  0  0  0  0  0  0  0
   -1.5600   -2.7438    1.7572 O   0  0  0  0  0  0  0  0  0  0  0  0
   -2.2870   -0.8898    0.7102 N   0  0  0  0  0  0  0  0  0  0  0  0
   -3.0820   -0.4218    0.2992 H   0  0  0  0  0  0  0  0  0  0  0  0
   -1.0240   -0.1468    0.7262 C   0  0  1  0  0  0  0  0  0  0  0  0
   -0.3583   -0.6100    1.4558 H   0  0  0  0  0  0  0  0  0  0  0  0
   -0.3739   -0.2459   -0.6675 C   0  0  0  0  0  0  0  0  0  0  0  0
    0.4594   -0.9494   -0.6125 H   0  0  0  0  0  0  0  0  0  0  0  0
   -1.1036   -0.6372   -1.3777 H   0  0  0  0  0  0  0  0  0  0  0  0
    0.1656    1.0971   -1.1838 C   0  0  0  0  0  0  0  0  0  0  0  0
    1.0906    1.3448   -0.6624 H   0  0  0  0  0  0  0  0  0  0  0  0
    0.3690    1.0150   -2.2531 H   0  0  0  0  0  0  0  0  0  0  0  0
   -0.8493    2.2215   -0.9486 C   0  0  0  0  0  0  0  0  0  0  0  0
   -1.7837    1.9843   -1.4582 H   0  0  0  0  0  0  0  0  0  0  0  0
   -1.0378    2.3234    0.1205 H   0  0  0  0  0  0  0  0  0  0  0  0
   -0.2992    3.5386   -1.4925 C   0  0  0  0  0  0  0  0  0  0  0  0
    0.6244    3.7870   -0.9721 H   0  0  0  0  0  0  0  0  0  0  0  0
   -0.0936    3.4332   -2.5565 H   0  0  0  0  0  0  0  0  0  0  0  0
   -1.2575    4.6338   -1.3046 N   0  0  0  0  0  0  0  0  0  0  0  0
   -0.8567    5.4888   -1.6616 H   0  0  0  0  0  0  0  0  0  0  0  0
   -2.1051    4.4232   -1.8120 H   0  0  0  0  0  0  0  0  0  0  0  0
   -1.2712    1.3099    1.1517 C   0  0  0  0  0  0  0  0  0  0  0  0
   -2.2039    1.9448    0.6639 O   0  0  0  0  0  0  0  0  0  0  0  0
   -0.4306    1.8354    2.0503 N   0  0  0  0  0  0  0  0  0  0  0  0
    0.3001    1.2459    2.4139 H   0  0  0  0  0  0  0  0  0  0  0  0
   -0.5192    3.2082    2.5456 C   0  0  0  0  0  0  0  0  0  0  0  0
   -1.5166    3.3903    2.9518 H   0  0  0  0  0  0  0  0  0  0  0  0
    0.2240    3.3791    3.3257 H   0  0  0  0  0  0  0  0  0  0  0  0
   -0.3477    3.9067    1.7239 H   0  0  0  0  0  0  0  0  0  0  0  0
  5  6  2  0  0  0  0
  5  7  1  0  0  0  0
  2  3  1  0  0  0  0
  2  4  1  0  0  0  0
  2  5  1  0  0  0  0
  1  2  1  0  0  0  0
 26 27  2  0  0  0  0
 26 28  1  0  0  0  0
 23 24  1  0  0  0  0
 23 25  1  0  0  0  0
 20 21  1  0  0  0  0
 20 22  1  0  0  0  0
 20 23  1  0  0  0  0
 17 18  1  0  0  0  0
 17 19  1  0  0  0  0
 17 20  1  0  0  0  0
 14 15  1  0  0  0  0
 14 16  1  0  0  0  0
 14 17  1  0  0  0  0
 11 12  1  0  0  0  0
 11 13  1  0  0  0  0
 11 14  1  0  0  0  0
  9 10  1  0  0  0  0
  9 11  1  0  0  0  0
  9 26  1  0  0  0  0
  7  8  1  0  0  0  0
  7  9  1  0  0  0  0
 30 31  1  0  0  0  0
 30 32  1  0  0  0  0
 30 33  1  0  0  0  0
 28 29  1  0  0  0  0
 28 30  1  0  0  0  0
M  END
$$$$
default_name
  -OEChem-02102213163D

 33 32  0     1  0  0  0  0  0999 V2000
   -3.8420   -3.6918    1.5562 H   0  0  0  0  0  0  0  0  0  0  0  0
   -3.8430   -2.7008    1.1032 C   0  0  0  0  0  0  0  0  0  0  0  0
   -4.5510   -2.0608    1.6242 H   0  0  0  0  0  0  0  0  0  0  0  0
   -4.1140   -2.7798    0.0522 H   0  0  0  0  0  0  0  0  0  0  0  0
   -2.4570   -2.1098    1.2172 C   0  0  0  0  0  0  0  0  0  0  0  0
   -1.5600   -2.7438    1.7572 O   0  0  0  0  0  0  0  0  0  0  0  0
   -2.2870   -0.8898    0.7102 N   0  0  0  0  0  0  0  0  0  0  0  0
   -3.0820   -0.4218    0.2992 H   0  0  0  0  0  0  0  0  0  0  0  0
   -1.0240   -0.1468    0.7262 C   0  0  1  0  0  0  0  0  0  0  0  0
   -0.3583   -0.6100    1.4558 H   0  0  0  0  0  0  0  0  0  0  0  0
   -0.3739   -0.2459   -0.6675 C   0  0  0  0  0  0  0  0  0  0  0  0
    0.4594   -0.9494   -0.6125 H   0  0  0  0  0  0  0  0  0  0  0  0
   -1.1036   -0.6372   -1.3777 H   0  0  0  0  0  0  0  0  0  0  0  0
    0.1656    1.0971   -1.1838 C   0  0  0  0  0  0  0  0  0  0  0  0
    1.2030    1.2194   -0.8711 H   0  0  0  0  0  0  0  0  0  0  0  0
    0.1174    1.1080   -2.2742 H   0  0  0  0  0  0  0  0  0  0  0  0
   -0.6572    2.2664   -0.6311 C   0  0  0  0  0  0  0  0  0  0  0  0
   -1.7000    2.1540   -0.9293 H   0  0  0  0  0  0  0  0  0  0  0  0
   -0.5926    2.2740    0.4573 H   0  0  0  0  0  0  0  0  0  0  0  0
   -0.1160    3.5856   -1.1788 C   0  0  0  0  0  0  0  0  0  0  0  0
    0.9198    3.7089   -0.8666 H   0  0  0  0  0  0  0  0  0  0  0  0
   -0.1633    3.5727   -2.2664 H   0  0  0  0  0  0  0  0  0  0  0  0
   -0.8973    4.7264   -0.6873 N   0  0  0  0  0  0  0  0  0  0  0  0
   -0.5045    5.5798   -1.0567 H   0  0  0  0  0  0  0  0  0  0  0  0
   -1.8528    4.6335   -1.0013 H   0  0  0  0  0  0  0  0  0  0  0  0
   -1.2712    1.3099    1.1517 C   0  0  0  0  0  0  0  0  0  0  0  0
   -2.2039    1.9448    0.6639 O   0  0  0  0  0  0  0  0  0  0  0  0
   -0.4306    1.8354    2.0503 N   0  0  0  0  0  0  0  0  0  0  0  0
    0.3001    1.2459    2.4139 H   0  0  0  0  0  0  0  0  0  0  0  0
   -0.5192    3.2082    2.5456 C   0  0  0  0  0  0  0  0  0  0  0  0
   -1.5166    3.3903    2.9518 H   0  0  0  0  0  0  0  0  0  0  0  0
    0.2240    3.3791    3.3257 H   0  0  0  0  0  0  0  0  0  0  0  0
   -0.3477    3.9067    1.7239 H   0  0  0  0  0  0  0  0  0  0  0  0
  5  6  2  0  0  0  0
  5  7  1  0  0  0  0
  2  3  1  0  0  0  0
  2  4  1  0  0  0  0
  2  5  1  0  0  0  0
  1  2  1  0  0  0  0
 26 27  2  0  0  0  0
 26 28  1  0  0  0  0
 23 24  1  0  0  0  0
 23 25  1  0  0  0  0
 20 21  1  0  0  0  0
 20 22  1  0  0  0  0
 20 23  1  0  0  0  0
 17 18  1  0  0  0  0
 17 19  1  0  0  0  0
 17 20  1  0  0  0  0
 14 15  1  0  0  0  0
 14 16  1  0  0  0  0
 14 17  1  0  0  0  0
 11 12  1  0  0  0  0
 11 13  1  0  0  0  0
 11 14  1  0  0  0  0
  9 10  1  0  0  0  0
  9 11  1  0  0  0  0
  9 26  1  0  0  0  0
  7  8  1  0  0  0  0
  7  9  1  0  0  0  0
 30 31  1  0  0  0  0
 30 32  1  0  0  0  0
 30 33  1  0  0  0  0
 28 29  1  0  0  0  0
 28 30  1  0  0  0  0
M  END
$$$$
default_name
  -OEChem-02102213163D

 33 32  0     1  0  0  0  0  0999 V2000
   -3.8420   -3.6918    1.5562 H   0  0  0  0  0  0  0  0  0  0  0  0
   -3.8430   -2.7008    1.1032 C   0  0  0  0  0  0  0  0  0  0  0  0
   -4.5510   -2.0608    1.6242 H   0  0  0  0  0  0  0  0  0  0  0  0
   -4.1140   -2.7798    0.0522 H   0  0  0  0  0  0  0  0  0  0  0  0
   -2.4570   -2.1098    1.2172 C   0  0  0  0  0  0  0  0  0  0  0  0
   -1.5600   -2.7438    1.7572 O   0  0  0  0  0  0  0  0  0  0  0  0
   -2.2870   -0.8898    0.7102 N   0  0  0  0  0  0  0  0  0  0  0  0
   -3.0820   -0.4218    0.2992 H   0  0  0  0  0  0  0  0  0  0  0  0
   -1.0240   -0.1468    0.7262 C   0  0  1  0  0  0  0  0  0  0  0  0
   -0.3583   -0.6100    1.4558 H   0  0  0  0  0  0  0  0  0  0  0  0
   -0.3739   -0.2459   -0.6675 C   0  0  0  0  0  0  0  0  0  0  0  0
    0.4594   -0.9494   -0.6125 H   0  0  0  0  0  0  0  0  0  0  0  0
   -1.1036   -0.6372   -1.3777 H   0  0  0  0  0  0  0  0  0  0  0  0
    0.1656    1.0971   -1.1838 C   0  0  0  0  0  0  0  0  0  0  0  0
    1.2534    1.1075   -1.1095 H   0  0  0  0  0  0  0  0  0  0  0  0
   -0.1224    1.2216   -2.2293 H   0  0  0  0  0  0  0  0  0  0  0  0
   -0.3959    2.2642   -0.3638 C   0  0  0  0  0  0  0  0  0  0  0  0
   -1.4848    2.2625   -0.4221 H   0  0  0  0  0  0  0  0  0  0  0  0
   -0.0907    2.1570    0.6774 H   0  0  0  0  0  0  0  0  0  0  0  0
    0.1359    3.5866   -0.9128 C   0  0  0  0  0  0  0  0  0  0  0  0
    1.2222    3.5981   -0.8386 H   0  0  0  0  0  0  0  0  0  0  0  0
   -0.1528    3.6872   -1.9578 H   0  0  0  0  0  0  0  0  0  0  0  0
   -0.4017    4.7284   -0.1641 N   0  0  0  0  0  0  0  0  0  0  0  0
   -0.0196    5.5822   -0.5437 H   0  0  0  0  0  0  0  0  0  0  0  0
   -1.4075    4.7410   -0.2561 H   0  0  0  0  0  0  0  0  0  0  0  0
   -1.2712    1.3099    1.1517 C   0  0  0  0  0  0  0  0  0  0  0  0
   -2.2039    1.9448    0.6639 O   0  0  0  0  0  0  0  0  0  0  0  0
   -0.4306    1.8354    2.0503 N   0  0  0  0  0  0  0  0  0  0  0  0
    0.3001    1.2459    2.4139 H   0  0  0  0  0  0  0  0  0  0  0  0
   -0.5192    3.2082    2.5456 C   0  0  0  0  0  0  0  0  0  0  0  0
   -1.5166    3.3903    2.9518 H   0  0  0  0  0  0  0  0  0  0  0  0
    0.2240    3.3791    3.3257 H   0  0  0  0  0  0  0  0  0  0  0  0
   -0.3477    3.9067    1.7239 H   0  0  0  0  0  0  0  0  0  0  0  0
  5  6  2  0  0  0  0
  5  7  1  0  0  0  0
  2  3  1  0  0  0  0
  2  4  1  0  0  0  0
  2  5  1  0  0  0  0
  1  2  1  0  0  0  0
 26 27  2  0  0  0  0
 26 28  1  0  0  0  0
 23 24  1  0  0  0  0
 23 25  1  0  0  0  0
 20 21  1  0  0  0  0
 20 22  1  0  0  0  0
 20 23  1  0  0  0  0
 17 18  1  0  0  0  0
 17 19  1  0  0  0  0
 17 20  1  0  0  0  0
 14 15  1  0  0  0  0
 14 16  1  0  0  0  0
 14 17  1  0  0  0  0
 11 12  1  0  0  0  0
 11 13  1  0  0  0  0
 11 14  1  0  0  0  0
  9 10  1  0  0  0  0
  9 11  1  0  0  0  0
  9 26  1  0  0  0  0
  7  8  1  0  0  0  0
  7  9  1  0  0  0  0
 30 31  1  0  0  0  0
 30 32  1  0  0  0  0
 30 33  1  0  0  0  0
 28 29  1  0  0  0  0
 28 30  1  0  0  0  0
M  END
$$$$
default_name
  -OEChem-02102213163D

 33 32  0     1  0  0  0  0  0999 V2000
   -3.8420   -3.6918    1.5562 H   0  0  0  0  0  0  0  0  0  0  0  0
   -3.8430   -2.7008    1.1032 C   0  0  0  0  0  0  0  0  0  0  0  0
   -4.5510   -2.0608    1.6242 H   0  0  0  0  0  0  0  0  0  0  0  0
   -4.1140   -2.7798    0.0522 H   0  0  0  0  0  0  0  0  0  0  0  0
   -2.4570   -2.1098    1.2172 C   0  0  0  0  0  0  0  0  0  0  0  0
   -1.5600   -2.7438    1.7572 O   0  0  0  0  0  0  0  0  0  0  0  0
   -2.2870   -0.8898    0.7102 N   0  0  0  0  0  0  0  0  0  0  0  0
   -3.0820   -0.4218    0.2992 H   0  0  0  0  0  0  0  0  0  0  0  0
   -1.0240   -0.1468    0.7262 C   0  0  1  0  0  0  0  0  0  0  0  0
   -0.3583   -0.6100    1.4558 H   0  0  0  0  0  0  0  0  0  0  0  0
   -0.3739   -0.2459   -0.6675 C   0  0  0  0  0  0  0  0  0  0  0  0
    0.4594   -0.9494   -0.6125 H   0  0  0  0  0  0  0  0  0  0  0  0
   -1.1036   -0.6372   -1.3777 H   0  0  0  0  0  0  0  0  0  0  0  0
    0.1656    1.0971   -1.1838 C   0  0  0  0  0  0  0  0  0  0  0  0
    1.2384    1.0167   -1.3613 H   0  0  0  0  0  0  0  0  0  0  0  0
   -0.3340    1.3481   -2.1213 H   0  0  0  0  0  0  0  0  0  0  0  0
   -0.0833    2.2150   -0.1650 C   0  0  0  0  0  0  0  0  0  0  0  0
   -1.1527    2.3026    0.0291 H   0  0  0  0  0  0  0  0  0  0  0  0
    0.4338    1.9803    0.7659 H   0  0  0  0  0  0  0  0  0  0  0  0
    0.4396    3.5415   -0.7129 C   0  0  0  0  0  0  0  0  0  0  0  0
    1.5109    3.4624   -0.8900 H   0  0  0  0  0  0  0  0  0  0  0  0
   -0.0630    3.7688   -1.6516 H   0  0  0  0  0  0  0  0  0  0  0  0
    0.1956    4.6398    0.2293 N   0  0  0  0  0  0  0  0  0  0  0  0
    0.5651    5.4957   -0.1577 H   0  0  0  0  0  0  0  0  0  0  0  0
   -0.7994    4.7385    0.3727 H   0  0  0  0  0  0  0  0  0  0  0  0
   -1.2712    1.3099    1.1517 C   0  0  0  0  0  0  0  0  0  0  0  0
   -2.2039    1.9448    0.6639 O   0  0  0  0  0  0  0  0  0  0  0  0
   -0.4306    1.8354    2.0503 N   0  0  0  0  0  0  0  0  0  0  0  0
    0.3001    1.2459    2.4139 H   0  0  0  0  0  0  0  0  0  0  0  0
   -0.5192    3.2082    2.5456 C   0  0  0  0  0  0  0  0  0  0  0  0
   -1.5166    3.3903    2.9518 H   0  0  0  0  0  0  0  0  0  0  0  0
    0.2240    3.3791    3.3257 H   0  0  0  0  0  0  0  0  0  0  0  0
   -0.3477    3.9067    1.7239 H   0  0  0  0  0  0  0  0  0  0  0  0
  5  6  2  0  0  0  0
  5  7  1  0  0  0  0
  2  3  1  0  0  0  0
  2  4  1  0  0  0  0
  2  5  1  0  0  0  0
  1  2  1  0  0  0  0
 26 27  2  0  0  0  0
 26 28  1  0  0  0  0
 23 24  1  0  0  0  0
 23 25  1  0  0  0  0
 20 21  1  0  0  0  0
 20 22  1  0  0  0  0
 20 23  1  0  0  0  0
 17 18  1  0  0  0  0
 17 19  1  0  0  0  0
 17 20  1  0  0  0  0
 14 15  1  0  0  0  0
 14 16  1  0  0  0  0
 14 17  1  0  0  0  0
 11 12  1  0  0  0  0
 11 13  1  0  0  0  0
 11 14  1  0  0  0  0
  9 10  1  0  0  0  0
  9 11  1  0  0  0  0
  9 26  1  0  0  0  0
  7  8  1  0  0  0  0
  7  9  1  0  0  0  0
 30 31  1  0  0  0  0
 30 32  1  0  0  0  0
 30 33  1  0  0  0  0
 28 29  1  0  0  0  0
 28 30  1  0  0  0  0
M  END
$$$$
default_name
  -OEChem-02102213163D

 33 32  0     1  0  0  0  0  0999 V2000
   -3.8420   -3.6918    1.5562 H   0  0  0  0  0  0  0  0  0  0  0  0
   -3.8430   -2.7008    1.1032 C   0  0  0  0  0  0  0  0  0  0  0  0
   -4.5510   -2.0608    1.6242 H   0  0  0  0  0  0  0  0  0  0  0  0
   -4.1140   -2.7798    0.0522 H   0  0  0  0  0  0  0  0  0  0  0  0
   -2.4570   -2.1098    1.2172 C   0  0  0  0  0  0  0  0  0  0  0  0
   -1.5600   -2.7438    1.7572 O   0  0  0  0  0  0  0  0  0  0  0  0
   -2.2870   -0.8898    0.7102 N   0  0  0  0  0  0  0  0  0  0  0  0
   -3.0820   -0.4218    0.2992 H   0  0  0  0  0  0  0  0  0  0  0  0
   -1.0240   -0.1468    0.7262 C   0  0  1  0  0  0  0  0  0  0  0  0
   -0.3583   -0.6100    1.4558 H   0  0  0  0  0  0  0  0  0  0  0  0
   -0.3739   -0.2459   -0.6675 C   0  0  0  0  0  0  0  0  0  0  0  0
    0.4594   -0.9494   -0.6125 H   0  0  0  0  0  0  0  0  0  0  0  0
   -1.1036   -0.6372   -1.3777 H   0  0  0  0  0  0  0  0  0  0  0  0
    0.1656    1.0971   -1.1838 C   0  0  0  0  0  0  0  0  0  0  0  0
    1.1591    0.9532   -1.6094 H   0  0  0  0  0  0  0  0  0  0  0  0
   -0.5029    1.4789   -1.9576 H   0  0  0  0  0  0  0  0  0  0  0  0
    0.2594    2.1223   -0.0481 C   0  0  0  0  0  0  0  0  0  0  0  0
   -0.7264    2.2714    0.3934 H   0  0  0  0  0  0  0  0  0  0  0  0
    0.9450    1.7560    0.7167 H   0  0  0  0  0  0  0  0  0  0  0  0
    0.7741    3.4534   -0.5925 C   0  0  0  0  0  0  0  0  0  0  0  0
    1.7664    3.3108   -1.0173 H   0  0  0  0  0  0  0  0  0  0  0  0
    0.1002    3.8120   -1.3688 H   0  0  0  0  0  0  0  0  0  0  0  0
    0.8538    4.4664    0.4662 N   0  0  0  0  0  0  0  0  0  0  0  0
    1.2097    5.3262    0.0750 H   0  0  0  0  0  0  0  0  0  0  0  0
   -0.0700    4.6260    0.8423 H   0  0  0  0  0  0  0  0  0  0  0  0
   -1.2712    1.3099    1.1517 C   0  0  0  0  0  0  0  0  0  0  0  0
   -2.2039    1.9448    0.6639 O   0  0  0  0  0  0  0  0  0  0  0  0
   -0.4306    1.8354    2.0503 N   0  0  0  0  0  0  0  0  0  0  0  0
    0.3001    1.2459    2.4139 H   0  0  0  0  0  0  0  0  0  0  0  0
   -0.5192    3.2082    2.5456 C   0  0  0  0  0  0  0  0  0  0  0  0
   -1.5166    3.3903    2.9518 H   0  0  0  0  0  0  0  0  0  0  0  0
    0.2240    3.3791    3.3257 H   0  0  0  0  0  0  0  0  0  0  0  0
   -0.3477    3.9067    1.7239 H   0  0  0  0  0  0  0  0  0  0  0  0
  5  6  2  0  0  0  0
  5  7  1  0  0  0  0
  2  3  1  0  0  0  0
  2  4  1  0  0  0  0
  2  5  1  0  0  0  0
  1  2  1  0  0  0  0
 26 27  2  0  0  0  0
 26 28  1  0  0  0  0
 23 24  1  0  0  0  0
 23 25  1  0  0  0  0
 20 21  1  0  0  0  0
 20 22  1  0  0  0  0
 20 23  1  0  0  0  0
 17 18  1  0  0  0  0
 17 19  1  0  0  0  0
 17 20  1  0  0  0  0
 14 15  1  0  0  0  0
 14 16  1  0  0  0  0
 14 17  1  0  0  0  0
 11 12  1  0  0  0  0
 11 13  1  0  0  0  0
 11 14  1  0  0  0  0
  9 10  1  0  0  0  0
  9 11  1  0  0  0  0
  9 26  1  0  0  0  0
  7  8  1  0  0  0  0
  7  9  1  0  0  0  0
 30 31  1  0  0  0  0
 30 32  1  0  0  0  0
 30 33  1  0  0  0  0
 28 29  1  0  0  0  0
 28 30  1  0  0  0  0
M  END
$$$$
default_name
  -OEChem-02102213163D

 33 32  0     1  0  0  0  0  0999 V2000
   -3.8420   -3.6918    1.5562 H   0  0  0  0  0  0  0  0  0  0  0  0
   -3.8430   -2.7008    1.1032 C   0  0  0  0  0  0  0  0  0  0  0  0
   -4.5510   -2.0608    1.6242 H   0  0  0  0  0  0  0  0  0  0  0  0
   -4.1140   -2.7798    0.0522 H   0  0  0  0  0  0  0  0  0  0  0  0
   -2.4570   -2.1098    1.2172 C   0  0  0  0  0  0  0  0  0  0  0  0
   -1.5600   -2.7438    1.7572 O   0  0  0  0  0  0  0  0  0  0  0  0
   -2.2870   -0.8898    0.7102 N   0  0  0  0  0  0  0  0  0  0  0  0
   -3.0820   -0.4218    0.2992 H   0  0  0  0  0  0  0  0  0  0  0  0
   -1.0240   -0.1468    0.7262 C   0  0  1  0  0  0  0  0  0  0  0  0
   -0.3583   -0.6100    1.4558 H   0  0  0  0  0  0  0  0  0  0  0  0
   -0.3739   -0.2459   -0.6675 C   0  0  0  0  0  0  0  0  0  0  0  0
    0.4594   -0.9494   -0.6125 H   0  0  0  0  0  0  0  0  0  0  0  0
   -1.1036   -0.6372   -1.3777 H   0  0  0  0  0  0  0  0  0  0  0  0
    0.1656    1.0971   -1.1838 C   0  0  0  0  0  0  0  0  0  0  0  0
    1.0208    0.9213   -1.8369 H   0  0  0  0  0  0  0  0  0  0  0  0
   -0.6176    1.6050   -1.7495 H   0  0  0  0  0  0  0  0  0  0  0  0
    0.6088    1.9923   -0.0211 C   0  0  0  0  0  0  0  0  0  0  0  0
   -0.2349    2.1711    0.6461 H   0  0  0  0  0  0  0  0  0  0  0  0
    1.4081    1.4994    0.5331 H   0  0  0  0  0  0  0  0  0  0  0  0
    1.1169    3.3282   -0.5599 C   0  0  0  0  0  0  0  0  0  0  0  0
    1.9713    3.1537   -1.2119 H   0  0  0  0  0  0  0  0  0  0  0  0
    0.3255    3.8138   -1.1286 H   0  0  0  0  0  0  0  0  0  0  0  0
    1.5281    4.2202    0.5304 N   0  0  0  0  0  0  0  0  0  0  0  0
    1.8701    5.0854    0.1386 H   0  0  0  0  0  0  0  0  0  0  0  0
    0.7310    4.4112    1.1207 H   0  0  0  0  0  0  0  0  0  0  0  0
   -1.2712    1.3099    1.1517 C   0  0  0  0  0  0  0  0  0  0  0  0
   -2.2039    1.9448    0.6639 O   0  0  0  0  0  0  0  0  0  0  0  0
   -0.4306    1.8354    2.0503 N   0  0  0  0  0  0  0  0  0  0  0  0
    0.3001    1.2459    2.4139 H   0  0  0  0  0  0  0  0  0  0  0  0
   -0.5192    3.2082    2.5456 C   0  0  0  0  0  0  0  0  0  0  0  0
   -1.5166    3.3903    2.9518 H   0  0  0  0  0  0  0  0  0  0  0  0
    0.2240    3.3791    3.3257 H   0  0  0  0  0  0  0  0  0  0  0  0
   -0.3477    3.9067    1.7239 H   0  0  0  0  0  0  0  0  0  0  0  0
  5  6  2  0  0  0  0
  5  7  1  0  0  0  0
  2  3  1  0  0  0  0
  2  4  1  0  0  0  0
  2  5  1  0  0  0  0
  1  2  1  0  0  0  0
 26 27  2  0  0  0  0
 26 28  1  0  0  0  0
 23 24  1  0  0  0  0
 23 25  1  0  0  0  0
 20 21  1  0  0  0  0
 20 22  1  0  0  0  0
 20 23  1  0  0  0  0
 17 18  1  0  0  0  0
 17 19  1  0  0  0  0
 17 20  1  0  0  0  0
 14 15  1  0  0  0  0
 14 16  1  0  0  0  0
 14 17  1  0  0  0  0
 11 12  1  0  0  0  0
 11 13  1  0  0  0  0
 11 14  1  0  0  0  0
  9 10  1  0  0  0  0
  9 11  1  0  0  0  0
  9 26  1  0  0  0  0
  7  8  1  0  0  0  0
  7  9  1  0  0  0  0
 30 31  1  0  0  0  0
 30 32  1  0  0  0  0
 30 33  1  0  0  0  0
 28 29  1  0  0  0  0
 28 30  1  0  0  0  0
M  END
$$$$
default_name
  -OEChem-02102213163D

 33 32  0     1  0  0  0  0  0999 V2000
   -3.8420   -3.6918    1.5562 H   0  0  0  0  0  0  0  0  0  0  0  0
   -3.8430   -2.7008    1.1032 C   0  0  0  0  0  0  0  0  0  0  0  0
   -4.5510   -2.0608    1.6242 H   0  0  0  0  0  0  0  0  0  0  0  0
   -4.1140   -2.7798    0.0522 H   0  0  0  0  0  0  0  0  0  0  0  0
   -2.4570   -2.1098    1.2172 C   0  0  0  0  0  0  0  0  0  0  0  0
   -1.5600   -2.7438    1.7572 O   0  0  0  0  0  0  0  0  0  0  0  0
   -2.2870   -0.8898    0.7102 N   0  0  0  0  0  0  0  0  0  0  0  0
   -3.0820   -0.4218    0.2992 H   0  0  0  0  0  0  0  0  0  0  0  0
   -1.0240   -0.1468    0.7262 C   0  0  1  0  0  0  0  0  0  0  0  0
   -0.3583   -0.6100    1.4558 H   0  0  0  0  0  0  0  0  0  0  0  0
   -0.3739   -0.2459   -0.6675 C   0  0  0  0  0  0  0  0  0  0  0  0
    0.4594   -0.9494   -0.6125 H   0  0  0  0  0  0  0  0  0  0  0  0
   -1.1036   -0.6372   -1.3777 H   0  0  0  0  0  0  0  0  0  0  0  0
    0.1656    1.0971   -1.1838 C   0  0  0  0  0  0  0  0  0  0  0  0
    0.8330    0.9231   -2.0283 H   0  0  0  0  0  0  0  0  0  0  0  0
   -0.6704    1.7179   -1.5110 H   0  0  0  0  0  0  0  0  0  0  0  0
    0.9411    1.8339   -0.0859 C   0  0  0  0  0  0  0  0  0  0  0  0
    0.2882    2.0085    0.7698 H   0  0  0  0  0  0  0  0  0  0  0  0
    1.7917    1.2279    0.2277 H   0  0  0  0  0  0  0  0  0  0  0  0
    1.4444    3.1746   -0.6173 C   0  0  0  0  0  0  0  0  0  0  0  0
    2.1114    3.0018   -1.4604 H   0  0  0  0  0  0  0  0  0  0  0  0
    0.5977    3.7741   -0.9474 H   0  0  0  0  0  0  0  0  0  0  0  0
    2.1725    3.9179    0.4174 N   0  0  0  0  0  0  0  0  0  0  0  0
    2.5016    4.7894    0.0287 H   0  0  0  0  0  0  0  0  0  0  0  0
    1.5489    4.1088    1.1888 H   0  0  0  0  0  0  0  0  0  0  0  0
   -1.2712    1.3099    1.1517 C   0  0  0  0  0  0  0  0  0  0  0  0
   -2.2039    1.9448    0.6639 O   0  0  0  0  0  0  0  0  0  0  0  0
   -0.4306    1.8354    2.0503 N   0  0  0  0  0  0  0  0  0  0  0  0
    0.3001    1.2459    2.4139 H   0  0  0  0  0  0  0  0  0  0  0  0
   -0.5192    3.2082    2.5456 C   0  0  0  0  0  0  0  0  0  0  0  0
   -1.5166    3.3903    2.9518 H   0  0  0  0  0  0  0  0  0  0  0  0
    0.2240    3.3791    3.3257 H   0  0  0  0  0  0  0  0  0  0  0  0
   -0.3477    3.9067    1.7239 H   0  0  0  0  0  0  0  0  0  0  0  0
  5  6  2  0  0  0  0
  5  7  1  0  0  0  0
  2  3  1  0  0  0  0
  2  4  1  0  0  0  0
  2  5  1  0  0  0  0
  1  2  1  0  0  0  0
 26 27  2  0  0  0  0
 26 28  1  0  0  0  0
 23 24  1  0  0  0  0
 23 25  1  0  0  0  0
 20 21  1  0  0  0  0
 20 22  1  0  0  0  0
 20 23  1  0  0  0  0
 17 18  1  0  0  0  0
 17 19  1  0  0  0  0
 17 20  1  0  0  0  0
 14 15  1  0  0  0  0
 14 16  1  0  0  0  0
 14 17  1  0  0  0  0
 11 12  1  0  0  0  0
 11 13  1  0  0  0  0
 11 14  1  0  0  0  0
  9 10  1  0  0  0  0
  9 11  1  0  0  0  0
  9 26  1  0  0  0  0
  7  8  1  0  0  0  0
  7  9  1  0  0  0  0
 30 31  1  0  0  0  0
 30 32  1  0  0  0  0
 30 33  1  0  0  0  0
 28 29  1  0  0  0  0
 28 30  1  0  0  0  0
M  END
$$$$
default_name
  -OEChem-02102213163D

 33 32  0     1  0  0  0  0  0999 V2000
   -3.8420   -3.6918    1.5562 H   0  0  0  0  0  0  0  0  0  0  0  0
   -3.8430   -2.7008    1.1032 C   0  0  0  0  0  0  0  0  0  0  0  0
   -4.5510   -2.0608    1.6242 H   0  0  0  0  0  0  0  0  0  0  0  0
   -4.1140   -2.7798    0.0522 H   0  0  0  0  0  0  0  0  0  0  0  0
   -2.4570   -2.1098    1.2172 C   0  0  0  0  0  0  0  0  0  0  0  0
   -1.5600   -2.7438    1.7572 O   0  0  0  0  0  0  0  0  0  0  0  0
   -2.2870   -0.8898    0.7102 N   0  0  0  0  0  0  0  0  0  0  0  0
   -3.0820   -0.4218    0.2992 H   0  0  0  0  0  0  0  0  0  0  0  0
   -1.0240   -0.1468    0.7262 C   0  0  1  0  0  0  0  0  0  0  0  0
   -0.3583   -0.6100    1.4558 H   0  0  0  0  0  0  0  0  0  0  0  0
   -0.3739   -0.2459   -0.6675 C   0  0  0  0  0  0  0  0  0  0  0  0
    0.4594   -0.9494   -0.6125 H   0  0  0  0  0  0  0  0  0  0  0  0
   -1.1036   -0.6372   -1.3777 H   0  0  0  0  0  0  0  0  0  0  0  0
    0.1656    1.0971   -1.1838 C   0  0  0  0  0  0  0  0  0  0  0  0
    0.6085    0.9587   -2.1705 H   0  0  0  0  0  0  0  0  0  0  0  0
   -0.6577    1.8099   -1.2584 H   0  0  0  0  0  0  0  0  0  0  0  0
    1.2337    1.6579   -0.2380 C   0  0  0  0  0  0  0  0  0  0  0  0
    0.8074    1.7947    0.7563 H   0  0  0  0  0  0  0  0  0  0  0  0
    2.0694    0.9600   -0.1788 H   0  0  0  0  0  0  0  0  0  0  0  0
    1.7345    3.0029   -0.7609 C   0  0  0  0  0  0  0  0  0  0  0  0
    2.1774    2.8655   -1.7460 H   0  0  0  0  0  0  0  0  0  0  0  0
    0.8981    3.6957   -0.8375 H   0  0  0  0  0  0  0  0  0  0  0  0
    2.7431    3.5801    0.1351 N   0  0  0  0  0  0  0  0  0  0  0  0
    3.0609    4.4587   -0.2471 H   0  0  0  0  0  0  0  0  0  0  0  0
    2.3282    3.7394    1.0422 H   0  0  0  0  0  0  0  0  0  0  0  0
   -1.2712    1.3099    1.1517 C   0  0  0  0  0  0  0  0  0  0  0  0
   -2.2039    1.9448    0.6639 O   0  0  0  0  0  0  0  0  0  0  0  0
   -0.4306    1.8354    2.0503 N   0  0  0  0  0  0  0  0  0  0  0  0
    0.3001    1.2459    2.4139 H   0  0  0  0  0  0  0  0  0  0  0  0
   -0.5192    3.2082    2.5456 C   0  0  0  0  0  0  0  0  0  0  0  0
   -1.5166    3.3903    2.9518 H   0  0  0  0  0  0  0  0  0  0  0  0
    0.2240    3.3791    3.3257 H   0  0  0  0  0  0  0  0  0  0  0  0
   -0.3477    3.9067    1.7239 H   0  0  0  0  0  0  0  0  0  0  0  0
  5  6  2  0  0  0  0
  5  7  1  0  0  0  0
  2  3  1  0  0  0  0
  2  4  1  0  0  0  0
  2  5  1  0  0  0  0
  1  2  1  0  0  0  0
 26 27  2  0  0  0  0
 26 28  1  0  0  0  0
 23 24  1  0  0  0  0
 23 25  1  0  0  0  0
 20 21  1  0  0  0  0
 20 22  1  0  0  0  0
 20 23  1  0  0  0  0
 17 18  1  0  0  0  0
 17 19  1  0  0  0  0
 17 20  1  0  0  0  0
 14 15  1  0  0  0  0
 14 16  1  0  0  0  0
 14 17  1  0  0  0  0
 11 12  1  0  0  0  0
 11 13  1  0  0  0  0
 11 14  1  0  0  0  0
  9 10  1  0  0  0  0
  9 11  1  0  0  0  0
  9 26  1  0  0  0  0
  7  8  1  0  0  0  0
  7  9  1  0  0  0  0
 30 31  1  0  0  0  0
 30 32  1  0  0  0  0
 30 33  1  0  0  0  0
 28 29  1  0  0  0  0
 28 30  1  0  0  0  0
M  END
$$$$
default_name
  -OEChem-02102213163D

 33 32  0     1  0  0  0  0  0999 V2000
   -3.8420   -3.6918    1.5562 H   0  0  0  0  0  0  0  0  0  0  0  0
   -3.8430   -2.7008    1.1032 C   0  0  0  0  0  0  0  0  0  0  0  0
   -4.5510   -2.0608    1.6242 H   0  0  0  0  0  0  0  0  0  0  0  0
   -4.1140   -2.7798    0.0522 H   0  0  0  0  0  0  0  0  0  0  0  0
   -2.4570   -2.1098    1.2172 C   0  0  0  0  0  0  0  0  0  0  0  0
   -1.5600   -2.7438    1.7572 O   0  0  0  0  0  0  0  0  0  0  0  0
   -2.2870   -0.8898    0.7102 N   0  0  0  0  0  0  0  0  0  0  0  0
   -3.0820   -0.4218    0.2992 H   0  0  0  0  0  0  0  0  0  0  0  0
   -1.0240   -0.1468    0.7262 C   0  0  1  0  0  0  0  0  0  0  0  0
   -0.3583   -0.6100    1.4558 H   0  0  0  0  0  0  0  0  0  0  0  0
   -0.3739   -0.2459   -0.6675 C   0  0  0  0  0  0  0  0  0  0  0  0
    0.4594   -0.9494   -0.6125 H   0  0  0  0  0  0  0  0  0  0  0  0
   -1.1036   -0.6372   -1.3777 H   0  0  0  0  0  0  0  0  0  0  0  0
    0.1656    1.0971   -1.1838 C   0  0  0  0  0  0  0  0  0  0  0  0
    0.3626    1.0254   -2.2538 H   0  0  0  0  0  0  0  0  0  0  0  0
   -0.5802    1.8747   -1.0090 H   0  0  0  0  0  0  0  0  0  0  0  0
    1.4666    1.4763   -0.4672 C   0  0  0  0  0  0  0  0  0  0  0  0
    1.2872    1.5442    0.6063 H   0  0  0  0  0  0  0  0  0  0  0  0
    2.2225    0.7141   -0.6585 H   0  0  0  0  0  0  0  0  0  0  0  0
    1.9672    2.8248   -0.9807 C   0  0  0  0  0  0  0  0  0  0  0  0
    2.1647    2.7541   -2.0491 H   0  0  0  0  0  0  0  0  0  0  0  0
    1.2063    3.5838   -0.8065 H   0  0  0  0  0  0  0  0  0  0  0  0
    3.2010    3.2299   -0.2973 N   0  0  0  0  0  0  0  0  0  0  0  0
    3.5100    4.1157   -0.6701 H   0  0  0  0  0  0  0  0  0  0  0  0
    3.0155    3.3282    0.6907 H   0  0  0  0  0  0  0  0  0  0  0  0
   -1.2712    1.3099    1.1517 C   0  0  0  0  0  0  0  0  0  0  0  0
   -2.2039    1.9448    0.6639 O   0  0  0  0  0  0  0  0  0  0  0  0
   -0.4306    1.8354    2.0503 N   0  0  0  0  0  0  0  0  0  0  0  0
    0.3001    1.2459    2.4139 H   0  0  0  0  0  0  0  0  0  0  0  0
   -0.5192    3.2082    2.5456 C   0  0  0  0  0  0  0  0  0  0  0  0
   -1.5166    3.3903    2.9518 H   0  0  0  0  0  0  0  0  0  0  0  0
    0.2240    3.3791    3.3257 H   0  0  0  0  0  0  0  0  0  0  0  0
   -0.3477    3.9067    1.7239 H   0  0  0  0  0  0  0  0  0  0  0  0
  5  6  2  0  0  0  0
  5  7  1  0  0  0  0
  2  3  1  0  0  0  0
  2  4  1  0  0  0  0
  2  5  1  0  0  0  0
  1  2  1  0  0  0  0
 26 27  2  0  0  0  0
 26 28  1  0  0  0  0
 23 24  1  0  0  0  0
 23 25  1  0  0  0  0
 20 21  1  0  0  0  0
 20 22  1  0  0  0  0
 20 23  1  0  0  0  0
 17 18  1  0  0  0  0
 17 19  1  0  0  0  0
 17 20  1  0  0  0  0
 14 15  1  0  0  0  0
 14 16  1  0  0  0  0
 14 17  1  0  0  0  0
 11 12  1  0  0  0  0
 11 13  1  0  0  0  0
 11 14  1  0  0  0  0
  9 10  1  0  0  0  0
  9 11  1  0  0  0  0
  9 26  1  0  0  0  0
  7  8  1  0  0  0  0
  7  9  1  0  0  0  0
 30 31  1  0  0  0  0
 30 32  1  0  0  0  0
 30 33  1  0  0  0  0
 28 29  1  0  0  0  0
 28 30  1  0  0  0  0
M  END
$$$$
default_name
  -OEChem-02102213163D

 33 32  0     1  0  0  0  0  0999 V2000
   -3.8420   -3.6918    1.5562 H   0  0  0  0  0  0  0  0  0  0  0  0
   -3.8430   -2.7008    1.1032 C   0  0  0  0  0  0  0  0  0  0  0  0
   -4.5510   -2.0608    1.6242 H   0  0  0  0  0  0  0  0  0  0  0  0
   -4.1140   -2.7798    0.0522 H   0  0  0  0  0  0  0  0  0  0  0  0
   -2.4570   -2.1098    1.2172 C   0  0  0  0  0  0  0  0  0  0  0  0
   -1.5600   -2.7438    1.7572 O   0  0  0  0  0  0  0  0  0  0  0  0
   -2.2870   -0.8898    0.7102 N   0  0  0  0  0  0  0  0  0  0  0  0
   -3.0820   -0.4218    0.2992 H   0  0  0  0  0  0  0  0  0  0  0  0
   -1.0240   -0.1468    0.7262 C   0  0  1  0  0  0  0  0  0  0  0  0
   -0.3583   -0.6100    1.4558 H   0  0  0  0  0  0  0  0  0  0  0  0
   -0.3739   -0.2459   -0.6675 C   0  0  0  0  0  0  0  0  0  0  0  0
    0.4594   -0.9494   -0.6125 H   0  0  0  0  0  0  0  0  0  0  0  0
   -1.1036   -0.6372   -1.3777 H   0  0  0  0  0  0  0  0  0  0  0  0
    0.1656    1.0971   -1.1838 C   0  0  0  0  0  0  0  0  0  0  0  0
    0.1120    1.1189   -2.2726 H   0  0  0  0  0  0  0  0  0  0  0  0
   -0.4433    1.9078   -0.7797 H   0  0  0  0  0  0  0  0  0  0  0  0
    1.6238    1.3014   -0.7577 C   0  0  0  0  0  0  0  0  0  0  0  0
    1.6950    1.2743    0.3301 H   0  0  0  0  0  0  0  0  0  0  0  0
    2.2404    0.5068   -1.1789 H   0  0  0  0  0  0  0  0  0  0  0  0
    2.1268    2.6526   -1.2619 C   0  0  0  0  0  0  0  0  0  0  0  0
    2.0741    2.6751   -2.3492 H   0  0  0  0  0  0  0  0  0  0  0  0
    1.5013    3.4461   -0.8564 H   0  0  0  0  0  0  0  0  0  0  0  0
    3.5151    2.8911   -0.8504 N   0  0  0  0  0  0  0  0  0  0  0  0
    3.8183    3.7837   -1.2115 H   0  0  0  0  0  0  0  0  0  0  0  0
    3.5642    2.9031    0.1584 H   0  0  0  0  0  0  0  0  0  0  0  0
   -1.2712    1.3099    1.1517 C   0  0  0  0  0  0  0  0  0  0  0  0
   -2.2039    1.9448    0.6639 O   0  0  0  0  0  0  0  0  0  0  0  0
   -0.4306    1.8354    2.0503 N   0  0  0  0  0  0  0  0  0  0  0  0
    0.3001    1.2459    2.4139 H   0  0  0  0  0  0  0  0  0  0  0  0
   -0.5192    3.2082    2.5456 C   0  0  0  0  0  0  0  0  0  0  0  0
   -1.5166    3.3903    2.9518 H   0  0  0  0  0  0  0  0  0  0  0  0
    0.2240    3.3791    3.3257 H   0  0  0  0  0  0  0  0  0  0  0  0
   -0.3477    3.9067    1.7239 H   0  0  0  0  0  0  0  0  0  0  0  0
  5  6  2  0  0  0  0
  5  7  1  0  0  0  0
  2  3  1  0  0  0  0
  2  4  1  0  0  0  0
  2  5  1  0  0  0  0
  1  2  1  0  0  0  0
 26 27  2  0  0  0  0
 26 28  1  0  0  0  0
 23 24  1  0  0  0  0
 23 25  1  0  0  0  0
 20 21  1  0  0  0  0
 20 22  1  0  0  0  0
 20 23  1  0  0  0  0
 17 18  1  0  0  0  0
 17 19  1  0  0  0  0
 17 20  1  0  0  0  0
 14 15  1  0  0  0  0
 14 16  1  0  0  0  0
 14 17  1  0  0  0  0
 11 12  1  0  0  0  0
 11 13  1  0  0  0  0
 11 14  1  0  0  0  0
  9 10  1  0  0  0  0
  9 11  1  0  0  0  0
  9 26  1  0  0  0  0
  7  8  1  0  0  0  0
  7  9  1  0  0  0  0
 30 31  1  0  0  0  0
 30 32  1  0  0  0  0
 30 33  1  0  0  0  0
 28 29  1  0  0  0  0
 28 30  1  0  0  0  0
M  END
$$$$
default_name
  -OEChem-02102213163D

 33 32  0     1  0  0  0  0  0999 V2000
   -3.8420   -3.6918    1.5562 H   0  0  0  0  0  0  0  0  0  0  0  0
   -3.8430   -2.7008    1.1032 C   0  0  0  0  0  0  0  0  0  0  0  0
   -4.5510   -2.0608    1.6242 H   0  0  0  0  0  0  0  0  0  0  0  0
   -4.1140   -2.7798    0.0522 H   0  0  0  0  0  0  0  0  0  0  0  0
   -2.4570   -2.1098    1.2172 C   0  0  0  0  0  0  0  0  0  0  0  0
   -1.5600   -2.7438    1.7572 O   0  0  0  0  0  0  0  0  0  0  0  0
   -2.2870   -0.8898    0.7102 N   0  0  0  0  0  0  0  0  0  0  0  0
   -3.0820   -0.4218    0.2992 H   0  0  0  0  0  0  0  0  0  0  0  0
   -1.0240   -0.1468    0.7262 C   0  0  1  0  0  0  0  0  0  0  0  0
   -0.3583   -0.6100    1.4558 H   0  0  0  0  0  0  0  0  0  0  0  0
   -0.3739   -0.2459   -0.6675 C   0  0  0  0  0  0  0  0  0  0  0  0
    0.4594   -0.9494   -0.6125 H   0  0  0  0  0  0  0  0  0  0  0  0
   -1.1036   -0.6372   -1.3777 H   0  0  0  0  0  0  0  0  0  0  0  0
    0.1656    1.0971   -1.1838 C   0  0  0  0  0  0  0  0  0  0  0  0
   -0.1262    1.2326   -2.2256 H   0  0  0  0  0  0  0  0  0  0  0  0
   -0.2564    1.9071   -0.5861 H   0  0  0  0  0  0  0  0  0  0  0  0
    1.6949    1.1452   -1.0897 C   0  0  0  0  0  0  0  0  0  0  0  0
    2.0029    1.0031   -0.0534 H   0  0  0  0  0  0  0  0  0  0  0  0
    2.1220    0.3523   -1.7045 H   0  0  0  0  0  0  0  0  0  0  0  0
    2.2024    2.4979   -1.5853 C   0  0  0  0  0  0  0  0  0  0  0  0
    1.9119    2.6340   -2.6257 H   0  0  0  0  0  0  0  0  0  0  0  0
    1.7630    3.2920   -0.9838 H   0  0  0  0  0  0  0  0  0  0  0  0
    3.6638    2.5868   -1.4866 N   0  0  0  0  0  0  0  0  0  0  0  0
    3.9647    3.4854   -1.8343 H   0  0  0  0  0  0  0  0  0  0  0  0
    3.9369    2.4931   -0.5186 H   0  0  0  0  0  0  0  0  0  0  0  0
   -1.2712    1.3099    1.1517 C   0  0  0  0  0  0  0  0  0  0  0  0
   -2.2039    1.9448    0.6639 O   0  0  0  0  0  0  0  0  0  0  0  0
   -0.4306    1.8354    2.0503 N   0  0  0  0  0  0  0  0  0  0  0  0
    0.3001    1.2459    2.4139 H   0  0  0  0  0  0  0  0  0  0  0  0
   -0.5192    3.2082    2.5456 C   0  0  0  0  0  0  0  0  0  0  0  0
   -1.5166    3.3903    2.9518 H   0  0  0  0  0  0  0  0  0  0  0  0
    0.2240    3.3791    3.3257 H   0  0  0  0  0  0  0  0  0  0  0  0
   -0.3477    3.9067    1.7239 H   0  0  0  0  0  0  0  0  0  0  0  0
  5  6  2  0  0  0  0
  5  7  1  0  0  0  0
  2  3  1  0  0  0  0
  2  4  1  0  0  0  0
  2  5  1  0  0  0  0
  1  2  1  0  0  0  0
 26 27  2  0  0  0  0
 26 28  1  0  0  0  0
 23 24  1  0  0  0  0
 23 25  1  0  0  0  0
 20 21  1  0  0  0  0
 20 22  1  0  0  0  0
 20 23  1  0  0  0  0
 17 18  1  0  0  0  0
 17 19  1  0  0  0  0
 17 20  1  0  0  0  0
 14 15  1  0  0  0  0
 14 16  1  0  0  0  0
 14 17  1  0  0  0  0
 11 12  1  0  0  0  0
 11 13  1  0  0  0  0
 11 14  1  0  0  0  0
  9 10  1  0  0  0  0
  9 11  1  0  0  0  0
  9 26  1  0  0  0  0
  7  8  1  0  0  0  0
  7  9  1  0  0  0  0
 30 31  1  0  0  0  0
 30 32  1  0  0  0  0
 30 33  1  0  0  0  0
 28 29  1  0  0  0  0
 28 30  1  0  0  0  0
M  END
$$$$
default_name
  -OEChem-02102213163D

 33 32  0     1  0  0  0  0  0999 V2000
   -3.8420   -3.6918    1.5562 H   0  0  0  0  0  0  0  0  0  0  0  0
   -3.8430   -2.7008    1.1032 C   0  0  0  0  0  0  0  0  0  0  0  0
   -4.5510   -2.0608    1.6242 H   0  0  0  0  0  0  0  0  0  0  0  0
   -4.1140   -2.7798    0.0522 H   0  0  0  0  0  0  0  0  0  0  0  0
   -2.4570   -2.1098    1.2172 C   0  0  0  0  0  0  0  0  0  0  0  0
   -1.5600   -2.7438    1.7572 O   0  0  0  0  0  0  0  0  0  0  0  0
   -2.2870   -0.8898    0.7102 N   0  0  0  0  0  0  0  0  0  0  0  0
   -3.0820   -0.4218    0.2992 H   0  0  0  0  0  0  0  0  0  0  0  0
   -1.0240   -0.1468    0.7262 C   0  0  1  0  0  0  0  0  0  0  0  0
   -0.3583   -0.6100    1.4558 H   0  0  0  0  0  0  0  0  0  0  0  0
   -0.3739   -0.2459   -0.6675 C   0  0  0  0  0  0  0  0  0  0  0  0
    0.4594   -0.9494   -0.6125 H   0  0  0  0  0  0  0  0  0  0  0  0
   -1.1036   -0.6372   -1.3777 H   0  0  0  0  0  0  0  0  0  0  0  0
    0.1656    1.0971   -1.1838 C   0  0  0  0  0  0  0  0  0  0  0  0
   -0.3357    1.3590   -2.1160 H   0  0  0  0  0  0  0  0  0  0  0  0
   -0.0321    1.8726   -0.4415 H   0  0  0  0  0  0  0  0  0  0  0  0
    1.6748    1.0183   -1.4408 C   0  0  0  0  0  0  0  0  0  0  0  0
    2.1900    0.7493   -0.5182 H   0  0  0  0  0  0  0  0  0  0  0  0
    1.8753    0.2612   -2.1994 H   0  0  0  0  0  0  0  0  0  0  0  0
    2.1889    2.3713   -1.9288 C   0  0  0  0  0  0  0  0  0  0  0  0
    1.6891    2.6335   -2.8599 H   0  0  0  0  0  0  0  0  0  0  0  0
    1.9735    3.1319   -1.1801 H   0  0  0  0  0  0  0  0  0  0  0  0
    3.6372    2.3377   -2.1623 N   0  0  0  0  0  0  0  0  0  0  0  0
    3.9393    3.2412   -2.4961 H   0  0  0  0  0  0  0  0  0  0  0  0
    4.1080    2.1262   -1.2940 H   0  0  0  0  0  0  0  0  0  0  0  0
   -1.2712    1.3099    1.1517 C   0  0  0  0  0  0  0  0  0  0  0  0
   -2.2039    1.9448    0.6639 O   0  0  0  0  0  0  0  0  0  0  0  0
   -0.4306    1.8354    2.0503 N   0  0  0  0  0  0  0  0  0  0  0  0
    0.3001    1.2459    2.4139 H   0  0  0  0  0  0  0  0  0  0  0  0
   -0.5192    3.2082    2.5456 C   0  0  0  0  0  0  0  0  0  0  0  0
   -1.5166    3.3903    2.9518 H   0  0  0  0  0  0  0  0  0  0  0  0
    0.2240    3.3791    3.3257 H   0  0  0  0  0  0  0  0  0  0  0  0
   -0.3477    3.9067    1.7239 H   0  0  0  0  0  0  0  0  0  0  0  0
  5  6  2  0  0  0  0
  5  7  1  0  0  0  0
  2  3  1  0  0  0  0
  2  4  1  0  0  0  0
  2  5  1  0  0  0  0
  1  2  1  0  0  0  0
 26 27  2  0  0  0  0
 26 28  1  0  0  0  0
 23 24  1  0  0  0  0
 23 25  1  0  0  0  0
 20 21  1  0  0  0  0
 20 22  1  0  0  0  0
 20 23  1  0  0  0  0
 17 18  1  0  0  0  0
 17 19  1  0  0  0  0
 17 20  1  0  0  0  0
 14 15  1  0  0  0  0
 14 16  1  0  0  0  0
 14 17  1  0  0  0  0
 11 12  1  0  0  0  0
 11 13  1  0  0  0  0
 11 14  1  0  0  0  0
  9 10  1  0  0  0  0
  9 11  1  0  0  0  0
  9 26  1  0  0  0  0
  7  8  1  0  0  0  0
  7  9  1  0  0  0  0
 30 31  1  0  0  0  0
 30 32  1  0  0  0  0
 30 33  1  0  0  0  0
 28 29  1  0  0  0  0
 28 30  1  0  0  0  0
M  END
$$$$
default_name
  -OEChem-02102213163D

 33 32  0     1  0  0  0  0  0999 V2000
   -3.8420   -3.6918    1.5562 H   0  0  0  0  0  0  0  0  0  0  0  0
   -3.8430   -2.7008    1.1032 C   0  0  0  0  0  0  0  0  0  0  0  0
   -4.5510   -2.0608    1.6242 H   0  0  0  0  0  0  0  0  0  0  0  0
   -4.1140   -2.7798    0.0522 H   0  0  0  0  0  0  0  0  0  0  0  0
   -2.4570   -2.1098    1.2172 C   0  0  0  0  0  0  0  0  0  0  0  0
   -1.5600   -2.7438    1.7572 O   0  0  0  0  0  0  0  0  0  0  0  0
   -2.2870   -0.8898    0.7102 N   0  0  0  0  0  0  0  0  0  0  0  0
   -3.0820   -0.4218    0.2992 H   0  0  0  0  0  0  0  0  0  0  0  0
   -1.0240   -0.1468    0.7262 C   0  0  1  0  0  0  0  0  0  0  0  0
   -0.3583   -0.6100    1.4558 H   0  0  0  0  0  0  0  0  0  0  0  0
   -0.3739   -0.2459   -0.6675 C   0  0  0  0  0  0  0  0  0  0  0  0
    0.4594   -0.9494   -0.6125 H   0  0  0  0  0  0  0  0  0  0  0  0
   -1.1036   -0.6372   -1.3777 H   0  0  0  0  0  0  0  0  0  0  0  0
    0.1656    1.0971   -1.1838 C   0  0  0  0  0  0  0  0  0  0  0  0
   -0.5024    1.4893   -1.9512 H   0  0  0  0  0  0  0  0  0  0  0  0
    0.2143    1.8066   -0.3557 H   0  0  0  0  0  0  0  0  0  0  0  0
    1.5649    0.9294   -1.7868 C   0  0  0  0  0  0  0  0  0  0  0  0
    2.2436    0.5300   -1.0325 H   0  0  0  0  0  0  0  0  0  0  0  0
    1.5172    0.2396   -2.6299 H   0  0  0  0  0  0  0  0  0  0  0  0
    2.0870    2.2814   -2.2690 C   0  0  0  0  0  0  0  0  0  0  0  0
    1.4208    2.6737   -3.0357 H   0  0  0  0  0  0  0  0  0  0  0  0
    2.1185    2.9769   -1.4319 H   0  0  0  0  0  0  0  0  0  0  0  0
    3.4369    2.1608   -2.8316 N   0  0  0  0  0  0  0  0  0  0  0  0
    3.7439    3.0676   -3.1519 H   0  0  0  0  0  0  0  0  0  0  0  0
    4.0660    1.8275   -2.1151 H   0  0  0  0  0  0  0  0  0  0  0  0
   -1.2712    1.3099    1.1517 C   0  0  0  0  0  0  0  0  0  0  0  0
   -2.2039    1.9448    0.6639 O   0  0  0  0  0  0  0  0  0  0  0  0
   -0.4306    1.8354    2.0503 N   0  0  0  0  0  0  0  0  0  0  0  0
    0.3001    1.2459    2.4139 H   0  0  0  0  0  0  0  0  0  0  0  0
   -0.5192    3.2082    2.5456 C   0  0  0  0  0  0  0  0  0  0  0  0
   -1.5166    3.3903    2.9518 H   0  0  0  0  0  0  0  0  0  0  0  0
    0.2240    3.3791    3.3257 H   0  0  0  0  0  0  0  0  0  0  0  0
   -0.3477    3.9067    1.7239 H   0  0  0  0  0  0  0  0  0  0  0  0
  5  6  2  0  0  0  0
  5  7  1  0  0  0  0
  2  3  1  0  0  0  0
  2  4  1  0  0  0  0
  2  5  1  0  0  0  0
  1  2  1  0  0  0  0
 26 27  2  0  0  0  0
 26 28  1  0  0  0  0
 23 24  1  0  0  0  0
 23 25  1  0  0  0  0
 20 21  1  0  0  0  0
 20 22  1  0  0  0  0
 20 23  1  0  0  0  0
 17 18  1  0  0  0  0
 17 19  1  0  0  0  0
 17 20  1  0  0  0  0
 14 15  1  0  0  0  0
 14 16  1  0  0  0  0
 14 17  1  0  0  0  0
 11 12  1  0  0  0  0
 11 13  1  0  0  0  0
 11 14  1  0  0  0  0
  9 10  1  0  0  0  0
  9 11  1  0  0  0  0
  9 26  1  0  0  0  0
  7  8  1  0  0  0  0
  7  9  1  0  0  0  0
 30 31  1  0  0  0  0
 30 32  1  0  0  0  0
 30 33  1  0  0  0  0
 28 29  1  0  0  0  0
 28 30  1  0  0  0  0
M  END
$$$$
default_name
  -OEChem-02102213163D

 33 32  0     1  0  0  0  0  0999 V2000
   -3.8420   -3.6918    1.5562 H   0  0  0  0  0  0  0  0  0  0  0  0
   -3.8430   -2.7008    1.1032 C   0  0  0  0  0  0  0  0  0  0  0  0
   -4.5510   -2.0608    1.6242 H   0  0  0  0  0  0  0  0  0  0  0  0
   -4.1140   -2.7798    0.0522 H   0  0  0  0  0  0  0  0  0  0  0  0
   -2.4570   -2.1098    1.2172 C   0  0  0  0  0  0  0  0  0  0  0  0
   -1.5600   -2.7438    1.7572 O   0  0  0  0  0  0  0  0  0  0  0  0
   -2.2870   -0.8898    0.7102 N   0  0  0  0  0  0  0  0  0  0  0  0
   -3.0820   -0.4218    0.2992 H   0  0  0  0  0  0  0  0  0  0  0  0
   -1.0240   -0.1468    0.7262 C   0  0  1  0  0  0  0  0  0  0  0  0
   -0.3583   -0.6100    1.4558 H   0  0  0  0  0  0  0  0  0  0  0  0
   -0.3739   -0.2459   -0.6675 C   0  0  0  0  0  0  0  0  0  0  0  0
    0.4594   -0.9494   -0.6125 H   0  0  0  0  0  0  0  0  0  0  0  0
   -1.1036   -0.6372   -1.3777 H   0  0  0  0  0  0  0  0  0  0  0  0
    0.1656    1.0971   -1.1838 C   0  0  0  0  0  0  0  0  0  0  0  0
   -0.6147    1.6146   -1.7425 H   0  0  0  0  0  0  0  0  0  0  0  0
    0.4660    1.7136   -0.3346 H   0  0  0  0  0  0  0  0  0  0  0  0
    1.3728    0.8845   -2.1043 C   0  0  0  0  0  0  0  0  0  0  0  0
    2.1599    0.3604   -1.5613 H   0  0  0  0  0  0  0  0  0  0  0  0
    1.0720    0.2889   -2.9667 H   0  0  0  0  0  0  0  0  0  0  0  0
    1.9039    2.2344   -2.5828 C   0  0  0  0  0  0  0  0  0  0  0  0
    1.1255    2.7518   -3.1412 H   0  0  0  0  0  0  0  0  0  0  0  0
    2.1882    2.8374   -1.7219 H   0  0  0  0  0  0  0  0  0  0  0  0
    3.0767    2.0682   -3.4489 N   0  0  0  0  0  0  0  0  0  0  0  0
    3.3917    2.9765   -3.7568 H   0  0  0  0  0  0  0  0  0  0  0  0
    3.8137    1.6171   -2.9258 H   0  0  0  0  0  0  0  0  0  0  0  0
   -1.2712    1.3099    1.1517 C   0  0  0  0  0  0  0  0  0  0  0  0
   -2.2039    1.9448    0.6639 O   0  0  0  0  0  0  0  0  0  0  0  0
   -0.4306    1.8354    2.0503 N   0  0  0  0  0  0  0  0  0  0  0  0
    0.3001    1.2459    2.4139 H   0  0  0  0  0  0  0  0  0  0  0  0
   -0.5192    3.2082    2.5456 C   0  0  0  0  0  0  0  0  0  0  0  0
   -1.5166    3.3903    2.9518 H   0  0  0  0  0  0  0  0  0  0  0  0
    0.2240    3.3791    3.3257 H   0  0  0  0  0  0  0  0  0  0  0  0
   -0.3477    3.9067    1.7239 H   0  0  0  0  0  0  0  0  0  0  0  0
  5  6  2  0  0  0  0
  5  7  1  0  0  0  0
  2  3  1  0  0  0  0
  2  4  1  0  0  0  0
  2  5  1  0  0  0  0
  1  2  1  0  0  0  0
 26 27  2  0  0  0  0
 26 28  1  0  0  0  0
 23 24  1  0  0  0  0
 23 25  1  0  0  0  0
 20 21  1  0  0  0  0
 20 22  1  0  0  0  0
 20 23  1  0  0  0  0
 17 18  1  0  0  0  0
 17 19  1  0  0  0  0
 17 20  1  0  0  0  0
 14 15  1  0  0  0  0
 14 16  1  0  0  0  0
 14 17  1  0  0  0  0
 11 12  1  0  0  0  0
 11 13  1  0  0  0  0
 11 14  1  0  0  0  0
  9 10  1  0  0  0  0
  9 11  1  0  0  0  0
  9 26  1  0  0  0  0
  7  8  1  0  0  0  0
  7  9  1  0  0  0  0
 30 31  1  0  0  0  0
 30 32  1  0  0  0  0
 30 33  1  0  0  0  0
 28 29  1  0  0  0  0
 28 30  1  0  0  0  0
M  END
$$$$
default_name
  -OEChem-02102213163D

 33 32  0     1  0  0  0  0  0999 V2000
   -3.8420   -3.6918    1.5562 H   0  0  0  0  0  0  0  0  0  0  0  0
   -3.8430   -2.7008    1.1032 C   0  0  0  0  0  0  0  0  0  0  0  0
   -4.5510   -2.0608    1.6242 H   0  0  0  0  0  0  0  0  0  0  0  0
   -4.1140   -2.7798    0.0522 H   0  0  0  0  0  0  0  0  0  0  0  0
   -2.4570   -2.1098    1.2172 C   0  0  0  0  0  0  0  0  0  0  0  0
   -1.5600   -2.7438    1.7572 O   0  0  0  0  0  0  0  0  0  0  0  0
   -2.2870   -0.8898    0.7102 N   0  0  0  0  0  0  0  0  0  0  0  0
   -3.0820   -0.4218    0.2992 H   0  0  0  0  0  0  0  0  0  0  0  0
   -1.0240   -0.1468    0.7262 C   0  0  1  0  0  0  0  0  0  0  0  0
   -0.3583   -0.6100    1.4558 H   0  0  0  0  0  0  0  0  0  0  0  0
   -0.3739   -0.2459   -0.6675 C   0  0  0  0  0  0  0  0  0  0  0  0
    0.4594   -0.9494   -0.6125 H   0  0  0  0  0  0  0  0  0  0  0  0
   -1.1036   -0.6372   -1.3777 H   0  0  0  0  0  0  0  0  0  0  0  0
    0.1656    1.0971   -1.1838 C   0  0  0  0  0  0  0  0  0  0  0  0
   -0.6651    1.7265   -1.5041 H   0  0  0  0  0  0  0  0  0  0  0  0
    0.7057    1.6000   -0.3796 H   0  0  0  0  0  0  0  0  0  0  0  0
    1.1115    0.8867   -2.3716 C   0  0  0  0  0  0  0  0  0  0  0  0
    1.9446    0.2518   -2.0686 H   0  0  0  0  0  0  0  0  0  0  0  0
    0.5701    0.4060   -3.1868 H   0  0  0  0  0  0  0  0  0  0  0  0
    1.6519    2.2334   -2.8487 C   0  0  0  0  0  0  0  0  0  0  0  0
    0.8231    2.8625   -3.1692 H   0  0  0  0  0  0  0  0  0  0  0  0
    2.1777    2.7229   -2.0306 H   0  0  0  0  0  0  0  0  0  0  0  0
    2.5811    2.0662   -3.9721 N   0  0  0  0  0  0  0  0  0  0  0  0
    2.9067    2.9741   -4.2698 H   0  0  0  0  0  0  0  0  0  0  0  0
    3.3684    1.5096   -3.6710 H   0  0  0  0  0  0  0  0  0  0  0  0
   -1.2712    1.3099    1.1517 C   0  0  0  0  0  0  0  0  0  0  0  0
   -2.2039    1.9448    0.6639 O   0  0  0  0  0  0  0  0  0  0  0  0
   -0.4306    1.8354    2.0503 N   0  0  0  0  0  0  0  0  0  0  0  0
    0.3001    1.2459    2.4139 H   0  0  0  0  0  0  0  0  0  0  0  0
   -0.5192    3.2082    2.5456 C   0  0  0  0  0  0  0  0  0  0  0  0
   -1.5166    3.3903    2.9518 H   0  0  0  0  0  0  0  0  0  0  0  0
    0.2240    3.3791    3.3257 H   0  0  0  0  0  0  0  0  0  0  0  0
   -0.3477    3.9067    1.7239 H   0  0  0  0  0  0  0  0  0  0  0  0
  5  6  2  0  0  0  0
  5  7  1  0  0  0  0
  2  3  1  0  0  0  0
  2  4  1  0  0  0  0
  2  5  1  0  0  0  0
  1  2  1  0  0  0  0
 26 27  2  0  0  0  0
 26 28  1  0  0  0  0
 23 24  1  0  0  0  0
 23 25  1  0  0  0  0
 20 21  1  0  0  0  0
 20 22  1  0  0  0  0
 20 23  1  0  0  0  0
 17 18  1  0  0  0  0
 17 19  1  0  0  0  0
 17 20  1  0  0  0  0
 14 15  1  0  0  0  0
 14 16  1  0  0  0  0
 14 17  1  0  0  0  0
 11 12  1  0  0  0  0
 11 13  1  0  0  0  0
 11 14  1  0  0  0  0
  9 10  1  0  0  0  0
  9 11  1  0  0  0  0
  9 26  1  0  0  0  0
  7  8  1  0  0  0  0
  7  9  1  0  0  0  0
 30 31  1  0  0  0  0
 30 32  1  0  0  0  0
 30 33  1  0  0  0  0
 28 29  1  0  0  0  0
 28 30  1  0  0  0  0
M  END
$$$$
default_name
  -OEChem-02102213163D

 33 32  0     1  0  0  0  0  0999 V2000
   -3.8420   -3.6918    1.5562 H   0  0  0  0  0  0  0  0  0  0  0  0
   -3.8430   -2.7008    1.1032 C   0  0  0  0  0  0  0  0  0  0  0  0
   -4.5510   -2.0608    1.6242 H   0  0  0  0  0  0  0  0  0  0  0  0
   -4.1140   -2.7798    0.0522 H   0  0  0  0  0  0  0  0  0  0  0  0
   -2.4570   -2.1098    1.2172 C   0  0  0  0  0  0  0  0  0  0  0  0
   -1.5600   -2.7438    1.7572 O   0  0  0  0  0  0  0  0  0  0  0  0
   -2.2870   -0.8898    0.7102 N   0  0  0  0  0  0  0  0  0  0  0  0
   -3.0820   -0.4218    0.2992 H   0  0  0  0  0  0  0  0  0  0  0  0
   -1.0240   -0.1468    0.7262 C   0  0  1  0  0  0  0  0  0  0  0  0
   -0.3583   -0.6100    1.4558 H   0  0  0  0  0  0  0  0  0  0  0  0
   -0.3739   -0.2459   -0.6675 C   0  0  0  0  0  0  0  0  0  0  0  0
    0.2704   -1.1273   -0.6880 H   0  0  0  0  0  0  0  0  0  0  0  0
   -1.1533   -0.3763   -1.4195 H   0  0  0  0  0  0  0  0  0  0  0  0
    0.4789    0.9801   -1.0293 C   0  0  0  0  0  0  0  0  0  0  0  0
   -0.1440    1.8749   -1.0203 H   0  0  0  0  0  0  0  0  0  0  0  0
    1.2767    1.0925   -0.2928 H   0  0  0  0  0  0  0  0  0  0  0  0
    1.0980    0.8242   -2.4230 C   0  0  0  0  0  0  0  0  0  0  0  0
    1.7185   -0.0720   -2.4502 H   0  0  0  0  0  0  0  0  0  0  0  0
    0.3044    0.7355   -3.1654 H   0  0  0  0  0  0  0  0  0  0  0  0
    1.9592    2.0434   -2.7470 C   0  0  0  0  0  0  0  0  0  0  0  0
    1.3379    2.9374   -2.7386 H   0  0  0  0  0  0  0  0  0  0  0  0
    2.7416    2.1438   -1.9964 H   0  0  0  0  0  0  0  0  0  0  0  0
    2.5872    1.9158   -4.0671 N   0  0  0  0  0  0  0  0  0  0  0  0
    3.1357    2.7424   -4.2536 H   0  0  0  0  0  0  0  0  0  0  0  0
    3.1901    1.1053   -4.0703 H   0  0  0  0  0  0  0  0  0  0  0  0
   -1.2712    1.3099    1.1517 C   0  0  0  0  0  0  0  0  0  0  0  0
   -2.2039    1.9448    0.6639 O   0  0  0  0  0  0  0  0  0  0  0  0
   -0.4306    1.8354    2.0503 N   0  0  0  0  0  0  0  0  0  0  0  0
    0.3001    1.2459    2.4139 H   0  0  0  0  0  0  0  0  0  0  0  0
   -0.5192    3.2082    2.5456 C   0  0  0  0  0  0  0  0  0  0  0  0
   -1.5166    3.3903    2.9518 H   0  0  0  0  0  0  0  0  0  0  0  0
    0.2240    3.3791    3.3257 H   0  0  0  0  0  0  0  0  0  0  0  0
   -0.3477    3.9067    1.7239 H   0  0  0  0  0  0  0  0  0  0  0  0
  5  6  2  0  0  0  0
  5  7  1  0  0  0  0
  2  3  1  0  0  0  0
  2  4  1  0  0  0  0
  2  5  1  0  0  0  0
  1  2  1  0  0  0  0
 26 27  2  0  0  0  0
 26 28  1  0  0  0  0
 23 24  1  0  0  0  0
 23 25  1  0  0  0  0
 20 21  1  0  0  0  0
 20 22  1  0  0  0  0
 20 23  1  0  0  0  0
 17 18  1  0  0  0  0
 17 19  1  0  0  0  0
 17 20  1  0  0  0  0
 14 15  1  0  0  0  0
 14 16  1  0  0  0  0
 14 17  1  0  0  0  0
 11 12  1  0  0  0  0
 11 13  1  0  0  0  0
 11 14  1  0  0  0  0
  9 10  1  0  0  0  0
  9 11  1  0  0  0  0
  9 26  1  0  0  0  0
  7  8  1  0  0  0  0
  7  9  1  0  0  0  0
 30 31  1  0  0  0  0
 30 32  1  0  0  0  0
 30 33  1  0  0  0  0
 28 29  1  0  0  0  0
 28 30  1  0  0  0  0
M  END
$$$$
default_name
  -OEChem-02102213163D

 33 32  0     1  0  0  0  0  0999 V2000
   -3.8420   -3.6918    1.5562 H   0  0  0  0  0  0  0  0  0  0  0  0
   -3.8430   -2.7008    1.1032 C   0  0  0  0  0  0  0  0  0  0  0  0
   -4.5510   -2.0608    1.6242 H   0  0  0  0  0  0  0  0  0  0  0  0
   -4.1140   -2.7798    0.0522 H   0  0  0  0  0  0  0  0  0  0  0  0
   -2.4570   -2.1098    1.2172 C   0  0  0  0  0  0  0  0  0  0  0  0
   -1.5600   -2.7438    1.7572 O   0  0  0  0  0  0  0  0  0  0  0  0
   -2.2870   -0.8898    0.7102 N   0  0  0  0  0  0  0  0  0  0  0  0
   -3.0820   -0.4218    0.2992 H   0  0  0  0  0  0  0  0  0  0  0  0
   -1.0240   -0.1468    0.7262 C   0  0  1  0  0  0  0  0  0  0  0  0
   -0.3583   -0.6100    1.4558 H   0  0  0  0  0  0  0  0  0  0  0  0
   -0.3739   -0.2459   -0.6675 C   0  0  0  0  0  0  0  0  0  0  0  0
    0.2704   -1.1273   -0.6880 H   0  0  0  0  0  0  0  0  0  0  0  0
   -1.1533   -0.3763   -1.4195 H   0  0  0  0  0  0  0  0  0  0  0  0
    0.4789    0.9801   -1.0293 C   0  0  0  0  0  0  0  0  0  0  0  0
   -0.0595    1.8910   -0.7664 H   0  0  0  0  0  0  0  0  0  0  0  0
    1.4152    0.9440   -0.4694 H   0  0  0  0  0  0  0  0  0  0  0  0
    0.7900    1.0068   -2.5301 C   0  0  0  0  0  0  0  0  0  0  0  0
    1.3223    0.0974   -2.8103 H   0  0  0  0  0  0  0  0  0  0  0  0
   -0.1417    1.0670   -3.0934 H   0  0  0  0  0  0  0  0  0  0  0  0
    1.6581    2.2200   -2.8580 C   0  0  0  0  0  0  0  0  0  0  0  0
    1.1211    3.1303   -2.5962 H   0  0  0  0  0  0  0  0  0  0  0  0
    2.5813    2.1707   -2.2829 H   0  0  0  0  0  0  0  0  0  0  0  0
    1.9949    2.2633   -4.2856 N   0  0  0  0  0  0  0  0  0  0  0  0
    2.5556    3.0826   -4.4684 H   0  0  0  0  0  0  0  0  0  0  0  0
    2.5213    1.4358   -4.5272 H   0  0  0  0  0  0  0  0  0  0  0  0
   -1.2712    1.3099    1.1517 C   0  0  0  0  0  0  0  0  0  0  0  0
   -2.2039    1.9448    0.6639 O   0  0  0  0  0  0  0  0  0  0  0  0
   -0.4306    1.8354    2.0503 N   0  0  0  0  0  0  0  0  0  0  0  0
    0.3001    1.2459    2.4139 H   0  0  0  0  0  0  0  0  0  0  0  0
   -0.5192    3.2082    2.5456 C   0  0  0  0  0  0  0  0  0  0  0  0
   -1.5166    3.3903    2.9518 H   0  0  0  0  0  0  0  0  0  0  0  0
    0.2240    3.3791    3.3257 H   0  0  0  0  0  0  0  0  0  0  0  0
   -0.3477    3.9067    1.7239 H   0  0  0  0  0  0  0  0  0  0  0  0
  5  6  2  0  0  0  0
  5  7  1  0  0  0  0
  2  3  1  0  0  0  0
  2  4  1  0  0  0  0
  2  5  1  0  0  0  0
  1  2  1  0  0  0  0
 26 27  2  0  0  0  0
 26 28  1  0  0  0  0
 23 24  1  0  0  0  0
 23 25  1  0  0  0  0
 20 21  1  0  0  0  0
 20 22  1  0  0  0  0
 20 23  1  0  0  0  0
 17 18  1  0  0  0  0
 17 19  1  0  0  0  0
 17 20  1  0  0  0  0
 14 15  1  0  0  0  0
 14 16  1  0  0  0  0
 14 17  1  0  0  0  0
 11 12  1  0  0  0  0
 11 13  1  0  0  0  0
 11 14  1  0  0  0  0
  9 10  1  0  0  0  0
  9 11  1  0  0  0  0
  9 26  1  0  0  0  0
  7  8  1  0  0  0  0
  7  9  1  0  0  0  0
 30 31  1  0  0  0  0
 30 32  1  0  0  0  0
 30 33  1  0  0  0  0
 28 29  1  0  0  0  0
 28 30  1  0  0  0  0
M  END
$$$$
default_name
  -OEChem-02102213163D

 33 32  0     1  0  0  0  0  0999 V2000
   -3.8420   -3.6918    1.5562 H   0  0  0  0  0  0  0  0  0  0  0  0
   -3.8430   -2.7008    1.1032 C   0  0  0  0  0  0  0  0  0  0  0  0
   -4.5510   -2.0608    1.6242 H   0  0  0  0  0  0  0  0  0  0  0  0
   -4.1140   -2.7798    0.0522 H   0  0  0  0  0  0  0  0  0  0  0  0
   -2.4570   -2.1098    1.2172 C   0  0  0  0  0  0  0  0  0  0  0  0
   -1.5600   -2.7438    1.7572 O   0  0  0  0  0  0  0  0  0  0  0  0
   -2.2870   -0.8898    0.7102 N   0  0  0  0  0  0  0  0  0  0  0  0
   -3.0820   -0.4218    0.2992 H   0  0  0  0  0  0  0  0  0  0  0  0
   -1.0240   -0.1468    0.7262 C   0  0  1  0  0  0  0  0  0  0  0  0
   -0.3583   -0.6100    1.4558 H   0  0  0  0  0  0  0  0  0  0  0  0
   -0.3739   -0.2459   -0.6675 C   0  0  0  0  0  0  0  0  0  0  0  0
    0.2704   -1.1273   -0.6880 H   0  0  0  0  0  0  0  0  0  0  0  0
   -1.1533   -0.3763   -1.4195 H   0  0  0  0  0  0  0  0  0  0  0  0
    0.4789    0.9801   -1.0293 C   0  0  0  0  0  0  0  0  0  0  0  0
    0.0756    1.8650   -0.5362 H   0  0  0  0  0  0  0  0  0  0  0  0
    1.5035    0.8175   -0.6898 H   0  0  0  0  0  0  0  0  0  0  0  0
    0.4814    1.2174   -2.5437 C   0  0  0  0  0  0  0  0  0  0  0  0
    0.8754    0.3368   -3.0520 H   0  0  0  0  0  0  0  0  0  0  0  0
   -0.5375    1.4041   -2.8841 H   0  0  0  0  0  0  0  0  0  0  0  0
    1.3551    2.4250   -2.8777 C   0  0  0  0  0  0  0  0  0  0  0  0
    0.9529    3.3093   -2.3861 H   0  0  0  0  0  0  0  0  0  0  0  0
    2.3690    2.2477   -2.5226 H   0  0  0  0  0  0  0  0  0  0  0  0
    1.3988    2.6665   -4.3245 N   0  0  0  0  0  0  0  0  0  0  0  0
    1.9717    3.4773   -4.5072 H   0  0  0  0  0  0  0  0  0  0  0  0
    1.8010    1.8613   -4.7829 H   0  0  0  0  0  0  0  0  0  0  0  0
   -1.2712    1.3099    1.1517 C   0  0  0  0  0  0  0  0  0  0  0  0
   -2.2039    1.9448    0.6639 O   0  0  0  0  0  0  0  0  0  0  0  0
   -0.4306    1.8354    2.0503 N   0  0  0  0  0  0  0  0  0  0  0  0
    0.3001    1.2459    2.4139 H   0  0  0  0  0  0  0  0  0  0  0  0
   -0.5192    3.2082    2.5456 C   0  0  0  0  0  0  0  0  0  0  0  0
   -1.5166    3.3903    2.9518 H   0  0  0  0  0  0  0  0  0  0  0  0
    0.2240    3.3791    3.3257 H   0  0  0  0  0  0  0  0  0  0  0  0
   -0.3477    3.9067    1.7239 H   0  0  0  0  0  0  0  0  0  0  0  0
  5  6  2  0  0  0  0
  5  7  1  0  0  0  0
  2  3  1  0  0  0  0
  2  4  1  0  0  0  0
  2  5  1  0  0  0  0
  1  2  1  0  0  0  0
 26 27  2  0  0  0  0
 26 28  1  0  0  0  0
 23 24  1  0  0  0  0
 23 25  1  0  0  0  0
 20 21  1  0  0  0  0
 20 22  1  0  0  0  0
 20 23  1  0  0  0  0
 17 18  1  0  0  0  0
 17 19  1  0  0  0  0
 17 20  1  0  0  0  0
 14 15  1  0  0  0  0
 14 16  1  0  0  0  0
 14 17  1  0  0  0  0
 11 12  1  0  0  0  0
 11 13  1  0  0  0  0
 11 14  1  0  0  0  0
  9 10  1  0  0  0  0
  9 11  1  0  0  0  0
  9 26  1  0  0  0  0
  7  8  1  0  0  0  0
  7  9  1  0  0  0  0
 30 31  1  0  0  0  0
 30 32  1  0  0  0  0
 30 33  1  0  0  0  0
 28 29  1  0  0  0  0
 28 30  1  0  0  0  0
M  END
$$$$
default_name
  -OEChem-02102213163D

 33 32  0     1  0  0  0  0  0999 V2000
   -3.8420   -3.6918    1.5562 H   0  0  0  0  0  0  0  0  0  0  0  0
   -3.8430   -2.7008    1.1032 C   0  0  0  0  0  0  0  0  0  0  0  0
   -4.5510   -2.0608    1.6242 H   0  0  0  0  0  0  0  0  0  0  0  0
   -4.1140   -2.7798    0.0522 H   0  0  0  0  0  0  0  0  0  0  0  0
   -2.4570   -2.1098    1.2172 C   0  0  0  0  0  0  0  0  0  0  0  0
   -1.5600   -2.7438    1.7572 O   0  0  0  0  0  0  0  0  0  0  0  0
   -2.2870   -0.8898    0.7102 N   0  0  0  0  0  0  0  0  0  0  0  0
   -3.0820   -0.4218    0.2992 H   0  0  0  0  0  0  0  0  0  0  0  0
   -1.0240   -0.1468    0.7262 C   0  0  1  0  0  0  0  0  0  0  0  0
   -0.3583   -0.6100    1.4558 H   0  0  0  0  0  0  0  0  0  0  0  0
   -0.3739   -0.2459   -0.6675 C   0  0  0  0  0  0  0  0  0  0  0  0
    0.2704   -1.1273   -0.6880 H   0  0  0  0  0  0  0  0  0  0  0  0
   -1.1533   -0.3763   -1.4195 H   0  0  0  0  0  0  0  0  0  0  0  0
    0.4789    0.9801   -1.0293 C   0  0  0  0  0  0  0  0  0  0  0  0
    0.2520    1.7985   -0.3456 H   0  0  0  0  0  0  0  0  0  0  0  0
    1.5356    0.7216   -0.9392 H   0  0  0  0  0  0  0  0  0  0  0  0
    0.1935    1.4416   -2.4629 C   0  0  0  0  0  0  0  0  0  0  0  0
    0.4085    0.6301   -3.1589 H   0  0  0  0  0  0  0  0  0  0  0  0
   -0.8560    1.7238   -2.5518 H   0  0  0  0  0  0  0  0  0  0  0  0
    1.0709    2.6443   -2.8048 C   0  0  0  0  0  0  0  0  0  0  0  0
    0.8447    3.4623   -2.1228 H   0  0  0  0  0  0  0  0  0  0  0  0
    2.1191    2.3693   -2.6993 H   0  0  0  0  0  0  0  0  0  0  0  0
    0.8396    3.0979   -4.1810 N   0  0  0  0  0  0  0  0  0  0  0  0
    1.4237    3.8998   -4.3675 H   0  0  0  0  0  0  0  0  0  0  0  0
    1.0785    2.3530   -4.8200 H   0  0  0  0  0  0  0  0  0  0  0  0
   -1.2712    1.3099    1.1517 C   0  0  0  0  0  0  0  0  0  0  0  0
   -2.2039    1.9448    0.6639 O   0  0  0  0  0  0  0  0  0  0  0  0
   -0.4306    1.8354    2.0503 N   0  0  0  0  0  0  0  0  0  0  0  0
    0.3001    1.2459    2.4139 H   0  0  0  0  0  0  0  0  0  0  0  0
   -0.5192    3.2082    2.5456 C   0  0  0  0  0  0  0  0  0  0  0  0
   -1.5166    3.3903    2.9518 H   0  0  0  0  0  0  0  0  0  0  0  0
    0.2240    3.3791    3.3257 H   0  0  0  0  0  0  0  0  0  0  0  0
   -0.3477    3.9067    1.7239 H   0  0  0  0  0  0  0  0  0  0  0  0
  5  6  2  0  0  0  0
  5  7  1  0  0  0  0
  2  3  1  0  0  0  0
  2  4  1  0  0  0  0
  2  5  1  0  0  0  0
  1  2  1  0  0  0  0
 26 27  2  0  0  0  0
 26 28  1  0  0  0  0
 23 24  1  0  0  0  0
 23 25  1  0  0  0  0
 20 21  1  0  0  0  0
 20 22  1  0  0  0  0
 20 23  1  0  0  0  0
 17 18  1  0  0  0  0
 17 19  1  0  0  0  0
 17 20  1  0  0  0  0
 14 15  1  0  0  0  0
 14 16  1  0  0  0  0
 14 17  1  0  0  0  0
 11 12  1  0  0  0  0
 11 13  1  0  0  0  0
 11 14  1  0  0  0  0
  9 10  1  0  0  0  0
  9 11  1  0  0  0  0
  9 26  1  0  0  0  0
  7  8  1  0  0  0  0
  7  9  1  0  0  0  0
 30 31  1  0  0  0  0
 30 32  1  0  0  0  0
 30 33  1  0  0  0  0
 28 29  1  0  0  0  0
 28 30  1  0  0  0  0
M  END
$$$$
default_name
  -OEChem-02102213163D

 33 32  0     1  0  0  0  0  0999 V2000
   -3.8420   -3.6918    1.5562 H   0  0  0  0  0  0  0  0  0  0  0  0
   -3.8430   -2.7008    1.1032 C   0  0  0  0  0  0  0  0  0  0  0  0
   -4.5510   -2.0608    1.6242 H   0  0  0  0  0  0  0  0  0  0  0  0
   -4.1140   -2.7798    0.0522 H   0  0  0  0  0  0  0  0  0  0  0  0
   -2.4570   -2.1098    1.2172 C   0  0  0  0  0  0  0  0  0  0  0  0
   -1.5600   -2.7438    1.7572 O   0  0  0  0  0  0  0  0  0  0  0  0
   -2.2870   -0.8898    0.7102 N   0  0  0  0  0  0  0  0  0  0  0  0
   -3.0820   -0.4218    0.2992 H   0  0  0  0  0  0  0  0  0  0  0  0
   -1.0240   -0.1468    0.7262 C   0  0  1  0  0  0  0  0  0  0  0  0
   -0.3583   -0.6100    1.4558 H   0  0  0  0  0  0  0  0  0  0  0  0
   -0.3739   -0.2459   -0.6675 C   0  0  0  0  0  0  0  0  0  0  0  0
    0.2704   -1.1273   -0.6880 H   0  0  0  0  0  0  0  0  0  0  0  0
   -1.1533   -0.3763   -1.4195 H   0  0  0  0  0  0  0  0  0  0  0  0
    0.4789    0.9801   -1.0293 C   0  0  0  0  0  0  0  0  0  0  0  0
    0.4578    1.6962   -0.2074 H   0  0  0  0  0  0  0  0  0  0  0  0
    1.5092    0.6628   -1.2005 H   0  0  0  0  0  0  0  0  0  0  0  0
   -0.0544    1.6641   -2.2932 C   0  0  0  0  0  0  0  0  0  0  0  0
   -0.0467    0.9572   -3.1235 H   0  0  0  0  0  0  0  0  0  0  0  0
   -1.0756    2.0042   -2.1192 H   0  0  0  0  0  0  0  0  0  0  0  0
    0.8248    2.8629   -2.6441 C   0  0  0  0  0  0  0  0  0  0  0  0
    0.8039    3.5788   -1.8240 H   0  0  0  0  0  0  0  0  0  0  0  0
    1.8486    2.5275   -2.8009 H   0  0  0  0  0  0  0  0  0  0  0  0
    0.3553    3.5280   -3.8650 N   0  0  0  0  0  0  0  0  0  0  0  0
    0.9490    4.3212   -4.0586 H   0  0  0  0  0  0  0  0  0  0  0  0
    0.4029    2.8772   -4.6361 H   0  0  0  0  0  0  0  0  0  0  0  0
   -1.2712    1.3099    1.1517 C   0  0  0  0  0  0  0  0  0  0  0  0
   -2.2039    1.9448    0.6639 O   0  0  0  0  0  0  0  0  0  0  0  0
   -0.4306    1.8354    2.0503 N   0  0  0  0  0  0  0  0  0  0  0  0
    0.3001    1.2459    2.4139 H   0  0  0  0  0  0  0  0  0  0  0  0
   -0.5192    3.2082    2.5456 C   0  0  0  0  0  0  0  0  0  0  0  0
   -1.5166    3.3903    2.9518 H   0  0  0  0  0  0  0  0  0  0  0  0
    0.2240    3.3791    3.3257 H   0  0  0  0  0  0  0  0  0  0  0  0
   -0.3477    3.9067    1.7239 H   0  0  0  0  0  0  0  0  0  0  0  0
  5  6  2  0  0  0  0
  5  7  1  0  0  0  0
  2  3  1  0  0  0  0
  2  4  1  0  0  0  0
  2  5  1  0  0  0  0
  1  2  1  0  0  0  0
 26 27  2  0  0  0  0
 26 28  1  0  0  0  0
 23 24  1  0  0  0  0
 23 25  1  0  0  0  0
 20 21  1  0  0  0  0
 20 22  1  0  0  0  0
 20 23  1  0  0  0  0
 17 18  1  0  0  0  0
 17 19  1  0  0  0  0
 17 20  1  0  0  0  0
 14 15  1  0  0  0  0
 14 16  1  0  0  0  0
 14 17  1  0  0  0  0
 11 12  1  0  0  0  0
 11 13  1  0  0  0  0
 11 14  1  0  0  0  0
  9 10  1  0  0  0  0
  9 11  1  0  0  0  0
  9 26  1  0  0  0  0
  7  8  1  0  0  0  0
  7  9  1  0  0  0  0
 30 31  1  0  0  0  0
 30 32  1  0  0  0  0
 30 33  1  0  0  0  0
 28 29  1  0  0  0  0
 28 30  1  0  0  0  0
M  END
$$$$
default_name
  -OEChem-02102213163D

 33 32  0     1  0  0  0  0  0999 V2000
   -3.8420   -3.6918    1.5562 H   0  0  0  0  0  0  0  0  0  0  0  0
   -3.8430   -2.7008    1.1032 C   0  0  0  0  0  0  0  0  0  0  0  0
   -4.5510   -2.0608    1.6242 H   0  0  0  0  0  0  0  0  0  0  0  0
   -4.1140   -2.7798    0.0522 H   0  0  0  0  0  0  0  0  0  0  0  0
   -2.4570   -2.1098    1.2172 C   0  0  0  0  0  0  0  0  0  0  0  0
   -1.5600   -2.7438    1.7572 O   0  0  0  0  0  0  0  0  0  0  0  0
   -2.2870   -0.8898    0.7102 N   0  0  0  0  0  0  0  0  0  0  0  0
   -3.0820   -0.4218    0.2992 H   0  0  0  0  0  0  0  0  0  0  0  0
   -1.0240   -0.1468    0.7262 C   0  0  1  0  0  0  0  0  0  0  0  0
   -0.3583   -0.6100    1.4558 H   0  0  0  0  0  0  0  0  0  0  0  0
   -0.3739   -0.2459   -0.6675 C   0  0  0  0  0  0  0  0  0  0  0  0
    0.2704   -1.1273   -0.6880 H   0  0  0  0  0  0  0  0  0  0  0  0
   -1.1533   -0.3763   -1.4195 H   0  0  0  0  0  0  0  0  0  0  0  0
    0.4789    0.9801   -1.0293 C   0  0  0  0  0  0  0  0  0  0  0  0
    0.6788    1.5650   -0.1311 H   0  0  0  0  0  0  0  0  0  0  0  0
    1.4262    0.6452   -1.4559 H   0  0  0  0  0  0  0  0  0  0  0  0
   -0.2451    1.8697   -2.0462 C   0  0  0  0  0  0  0  0  0  0  0  0
   -0.4591    1.2958   -2.9483 H   0  0  0  0  0  0  0  0  0  0  0  0
   -1.1813    2.2264   -1.6156 H   0  0  0  0  0  0  0  0  0  0  0  0
    0.6335    3.0660   -2.4067 C   0  0  0  0  0  0  0  0  0  0  0  0
    0.8332    3.6510   -1.5103 H   0  0  0  0  0  0  0  0  0  0  0  0
    1.5761    2.7113   -2.8204 H   0  0  0  0  0  0  0  0  0  0  0  0
   -0.0210    3.9276   -3.3980 N   0  0  0  0  0  0  0  0  0  0  0  0
    0.5799    4.7128   -3.6017 H   0  0  0  0  0  0  0  0  0  0  0  0
   -0.1798    3.3984   -4.2436 H   0  0  0  0  0  0  0  0  0  0  0  0
   -1.2712    1.3099    1.1517 C   0  0  0  0  0  0  0  0  0  0  0  0
   -2.2039    1.9448    0.6639 O   0  0  0  0  0  0  0  0  0  0  0  0
   -0.4306    1.8354    2.0503 N   0  0  0  0  0  0  0  0  0  0  0  0
    0.3001    1.2459    2.4139 H   0  0  0  0  0  0  0  0  0  0  0  0
   -0.5192    3.2082    2.5456 C   0  0  0  0  0  0  0  0  0  0  0  0
   -1.5166    3.3903    2.9518 H   0  0  0  0  0  0  0  0  0  0  0  0
    0.2240    3.3791    3.3257 H   0  0  0  0  0  0  0  0  0  0  0  0
   -0.3477    3.9067    1.7239 H   0  0  0  0  0  0  0  0  0  0  0  0
  5  6  2  0  0  0  0
  5  7  1  0  0  0  0
  2  3  1  0  0  0  0
  2  4  1  0  0  0  0
  2  5  1  0  0  0  0
  1  2  1  0  0  0  0
 26 27  2  0  0  0  0
 26 28  1  0  0  0  0
 23 24  1  0  0  0  0
 23 25  1  0  0  0  0
 20 21  1  0  0  0  0
 20 22  1  0  0  0  0
 20 23  1  0  0  0  0
 17 18  1  0  0  0  0
 17 19  1  0  0  0  0
 17 20  1  0  0  0  0
 14 15  1  0  0  0  0
 14 16  1  0  0  0  0
 14 17  1  0  0  0  0
 11 12  1  0  0  0  0
 11 13  1  0  0  0  0
 11 14  1  0  0  0  0
  9 10  1  0  0  0  0
  9 11  1  0  0  0  0
  9 26  1  0  0  0  0
  7  8  1  0  0  0  0
  7  9  1  0  0  0  0
 30 31  1  0  0  0  0
 30 32  1  0  0  0  0
 30 33  1  0  0  0  0
 28 29  1  0  0  0  0
 28 30  1  0  0  0  0
M  END
$$$$
default_name
  -OEChem-02102213163D

 33 32  0     1  0  0  0  0  0999 V2000
   -3.8420   -3.6918    1.5562 H   0  0  0  0  0  0  0  0  0  0  0  0
   -3.8430   -2.7008    1.1032 C   0  0  0  0  0  0  0  0  0  0  0  0
   -4.5510   -2.0608    1.6242 H   0  0  0  0  0  0  0  0  0  0  0  0
   -4.1140   -2.7798    0.0522 H   0  0  0  0  0  0  0  0  0  0  0  0
   -2.4570   -2.1098    1.2172 C   0  0  0  0  0  0  0  0  0  0  0  0
   -1.5600   -2.7438    1.7572 O   0  0  0  0  0  0  0  0  0  0  0  0
   -2.2870   -0.8898    0.7102 N   0  0  0  0  0  0  0  0  0  0  0  0
   -3.0820   -0.4218    0.2992 H   0  0  0  0  0  0  0  0  0  0  0  0
   -1.0240   -0.1468    0.7262 C   0  0  1  0  0  0  0  0  0  0  0  0
   -0.3583   -0.6100    1.4558 H   0  0  0  0  0  0  0  0  0  0  0  0
   -0.3739   -0.2459   -0.6675 C   0  0  0  0  0  0  0  0  0  0  0  0
    0.2704   -1.1273   -0.6880 H   0  0  0  0  0  0  0  0  0  0  0  0
   -1.1533   -0.3763   -1.4195 H   0  0  0  0  0  0  0  0  0  0  0  0
    0.4789    0.9801   -1.0293 C   0  0  0  0  0  0  0  0  0  0  0  0
    0.9000    1.4138   -0.1219 H   0  0  0  0  0  0  0  0  0  0  0  0
    1.2923    0.6699   -1.6879 H   0  0  0  0  0  0  0  0  0  0  0  0
   -0.3659    2.0445   -1.7386 C   0  0  0  0  0  0  0  0  0  0  0  0
   -0.8007    1.6229   -2.6454 H   0  0  0  0  0  0  0  0  0  0  0  0
   -1.1658    2.3750   -1.0755 H   0  0  0  0  0  0  0  0  0  0  0  0
    0.5102    3.2398   -2.1087 C   0  0  0  0  0  0  0  0  0  0  0  0
    0.9308    3.6738   -1.2030 H   0  0  0  0  0  0  0  0  0  0  0  0
    1.3200    2.9083   -2.7566 H   0  0  0  0  0  0  0  0  0  0  0  0
   -0.2636    4.2694   -2.8118 N   0  0  0  0  0  0  0  0  0  0  0  0
    0.3416    5.0479   -3.0279 H   0  0  0  0  0  0  0  0  0  0  0  0
   -0.6298    3.8809   -3.6693 H   0  0  0  0  0  0  0  0  0  0  0  0
   -1.2712    1.3099    1.1517 C   0  0  0  0  0  0  0  0  0  0  0  0
   -2.2039    1.9448    0.6639 O   0  0  0  0  0  0  0  0  0  0  0  0
   -0.4306    1.8354    2.0503 N   0  0  0  0  0  0  0  0  0  0  0  0
    0.3001    1.2459    2.4139 H   0  0  0  0  0  0  0  0  0  0  0  0
   -0.5192    3.2082    2.5456 C   0  0  0  0  0  0  0  0  0  0  0  0
   -1.5166    3.3903    2.9518 H   0  0  0  0  0  0  0  0  0  0  0  0
    0.2240    3.3791    3.3257 H   0  0  0  0  0  0  0  0  0  0  0  0
   -0.3477    3.9067    1.7239 H   0  0  0  0  0  0  0  0  0  0  0  0
  5  6  2  0  0  0  0
  5  7  1  0  0  0  0
  2  3  1  0  0  0  0
  2  4  1  0  0  0  0
  2  5  1  0  0  0  0
  1  2  1  0  0  0  0
 26 27  2  0  0  0  0
 26 28  1  0  0  0  0
 23 24  1  0  0  0  0
 23 25  1  0  0  0  0
 20 21  1  0  0  0  0
 20 22  1  0  0  0  0
 20 23  1  0  0  0  0
 17 18  1  0  0  0  0
 17 19  1  0  0  0  0
 17 20  1  0  0  0  0
 14 15  1  0  0  0  0
 14 16  1  0  0  0  0
 14 17  1  0  0  0  0
 11 12  1  0  0  0  0
 11 13  1  0  0  0  0
 11 14  1  0  0  0  0
  9 10  1  0  0  0  0
  9 11  1  0  0  0  0
  9 26  1  0  0  0  0
  7  8  1  0  0  0  0
  7  9  1  0  0  0  0
 30 31  1  0  0  0  0
 30 32  1  0  0  0  0
 30 33  1  0  0  0  0
 28 29  1  0  0  0  0
 28 30  1  0  0  0  0
M  END
$$$$
default_name
  -OEChem-02102213163D

 33 32  0     1  0  0  0  0  0999 V2000
   -3.8420   -3.6918    1.5562 H   0  0  0  0  0  0  0  0  0  0  0  0
   -3.8430   -2.7008    1.1032 C   0  0  0  0  0  0  0  0  0  0  0  0
   -4.5510   -2.0608    1.6242 H   0  0  0  0  0  0  0  0  0  0  0  0
   -4.1140   -2.7798    0.0522 H   0  0  0  0  0  0  0  0  0  0  0  0
   -2.4570   -2.1098    1.2172 C   0  0  0  0  0  0  0  0  0  0  0  0
   -1.5600   -2.7438    1.7572 O   0  0  0  0  0  0  0  0  0  0  0  0
   -2.2870   -0.8898    0.7102 N   0  0  0  0  0  0  0  0  0  0  0  0
   -3.0820   -0.4218    0.2992 H   0  0  0  0  0  0  0  0  0  0  0  0
   -1.0240   -0.1468    0.7262 C   0  0  1  0  0  0  0  0  0  0  0  0
   -0.3583   -0.6100    1.4558 H   0  0  0  0  0  0  0  0  0  0  0  0
   -0.3739   -0.2459   -0.6675 C   0  0  0  0  0  0  0  0  0  0  0  0
    0.2704   -1.1273   -0.6880 H   0  0  0  0  0  0  0  0  0  0  0  0
   -1.1533   -0.3763   -1.4195 H   0  0  0  0  0  0  0  0  0  0  0  0
    0.4789    0.9801   -1.0293 C   0  0  0  0  0  0  0  0  0  0  0  0
    1.1064    1.2530   -0.1804 H   0  0  0  0  0  0  0  0  0  0  0  0
    1.1164    0.7352   -1.8809 H   0  0  0  0  0  0  0  0  0  0  0  0
   -0.4083    2.1765   -1.3915 C   0  0  0  0  0  0  0  0  0  0  0  0
   -1.0482    1.9161   -2.2352 H   0  0  0  0  0  0  0  0  0  0  0  0
   -1.0303    2.4401   -0.5356 H   0  0  0  0  0  0  0  0  0  0  0  0
    0.4632    3.3723   -1.7704 C   0  0  0  0  0  0  0  0  0  0  0  0
    1.0898    3.6458   -0.9231 H   0  0  0  0  0  0  0  0  0  0  0  0
    1.0978    3.1051   -2.6138 H   0  0  0  0  0  0  0  0  0  0  0  0
   -0.3561    4.5302   -2.1463 N   0  0  0  0  0  0  0  0  0  0  0  0
    0.2503    5.3037   -2.3764 H   0  0  0  0  0  0  0  0  0  0  0  0
   -0.9165    4.2920   -2.9523 H   0  0  0  0  0  0  0  0  0  0  0  0
   -1.2712    1.3099    1.1517 C   0  0  0  0  0  0  0  0  0  0  0  0
   -2.2039    1.9448    0.6639 O   0  0  0  0  0  0  0  0  0  0  0  0
   -0.4306    1.8354    2.0503 N   0  0  0  0  0  0  0  0  0  0  0  0
    0.3001    1.2459    2.4139 H   0  0  0  0  0  0  0  0  0  0  0  0
   -0.5192    3.2082    2.5456 C   0  0  0  0  0  0  0  0  0  0  0  0
   -1.5166    3.3903    2.9518 H   0  0  0  0  0  0  0  0  0  0  0  0
    0.2240    3.3791    3.3257 H   0  0  0  0  0  0  0  0  0  0  0  0
   -0.3477    3.9067    1.7239 H   0  0  0  0  0  0  0  0  0  0  0  0
  5  6  2  0  0  0  0
  5  7  1  0  0  0  0
  2  3  1  0  0  0  0
  2  4  1  0  0  0  0
  2  5  1  0  0  0  0
  1  2  1  0  0  0  0
 26 27  2  0  0  0  0
 26 28  1  0  0  0  0
 23 24  1  0  0  0  0
 23 25  1  0  0  0  0
 20 21  1  0  0  0  0
 20 22  1  0  0  0  0
 20 23  1  0  0  0  0
 17 18  1  0  0  0  0
 17 19  1  0  0  0  0
 17 20  1  0  0  0  0
 14 15  1  0  0  0  0
 14 16  1  0  0  0  0
 14 17  1  0  0  0  0
 11 12  1  0  0  0  0
 11 13  1  0  0  0  0
 11 14  1  0  0  0  0
  9 10  1  0  0  0  0
  9 11  1  0  0  0  0
  9 26  1  0  0  0  0
  7  8  1  0  0  0  0
  7  9  1  0  0  0  0
 30 31  1  0  0  0  0
 30 32  1  0  0  0  0
 30 33  1  0  0  0  0
 28 29  1  0  0  0  0
 28 30  1  0  0  0  0
M  END
$$$$
default_name
  -OEChem-02102213163D

 33 32  0     1  0  0  0  0  0999 V2000
   -3.8420   -3.6918    1.5562 H   0  0  0  0  0  0  0  0  0  0  0  0
   -3.8430   -2.7008    1.1032 C   0  0  0  0  0  0  0  0  0  0  0  0
   -4.5510   -2.0608    1.6242 H   0  0  0  0  0  0  0  0  0  0  0  0
   -4.1140   -2.7798    0.0522 H   0  0  0  0  0  0  0  0  0  0  0  0
   -2.4570   -2.1098    1.2172 C   0  0  0  0  0  0  0  0  0  0  0  0
   -1.5600   -2.7438    1.7572 O   0  0  0  0  0  0  0  0  0  0  0  0
   -2.2870   -0.8898    0.7102 N   0  0  0  0  0  0  0  0  0  0  0  0
   -3.0820   -0.4218    0.2992 H   0  0  0  0  0  0  0  0  0  0  0  0
   -1.0240   -0.1468    0.7262 C   0  0  1  0  0  0  0  0  0  0  0  0
   -0.3583   -0.6100    1.4558 H   0  0  0  0  0  0  0  0  0  0  0  0
   -0.3739   -0.2459   -0.6675 C   0  0  0  0  0  0  0  0  0  0  0  0
    0.2704   -1.1273   -0.6880 H   0  0  0  0  0  0  0  0  0  0  0  0
   -1.1533   -0.3763   -1.4195 H   0  0  0  0  0  0  0  0  0  0  0  0
    0.4789    0.9801   -1.0293 C   0  0  0  0  0  0  0  0  0  0  0  0
    1.2839    1.0934   -0.3026 H   0  0  0  0  0  0  0  0  0  0  0  0
    0.9107    0.8368   -2.0215 H   0  0  0  0  0  0  0  0  0  0  0  0
   -0.3696    2.2567   -1.0285 C   0  0  0  0  0  0  0  0  0  0  0  0
   -1.1847    2.1555   -1.7458 H   0  0  0  0  0  0  0  0  0  0  0  0
   -0.7840    2.4172   -0.0327 H   0  0  0  0  0  0  0  0  0  0  0  0
    0.4957    3.4546   -1.4149 C   0  0  0  0  0  0  0  0  0  0  0  0
    1.2996    3.5689   -0.6895 H   0  0  0  0  0  0  0  0  0  0  0  0
    0.9246    3.2881   -2.4017 H   0  0  0  0  0  0  0  0  0  0  0  0
   -0.2922    4.6921   -1.4470 N   0  0  0  0  0  0  0  0  0  0  0  0
    0.3123    5.4627   -1.6914 H   0  0  0  0  0  0  0  0  0  0  0  0
   -1.0203    4.6035   -2.1415 H   0  0  0  0  0  0  0  0  0  0  0  0
   -1.2712    1.3099    1.1517 C   0  0  0  0  0  0  0  0  0  0  0  0
   -2.2039    1.9448    0.6639 O   0  0  0  0  0  0  0  0  0  0  0  0
   -0.4306    1.8354    2.0503 N   0  0  0  0  0  0  0  0  0  0  0  0
    0.3001    1.2459    2.4139 H   0  0  0  0  0  0  0  0  0  0  0  0
   -0.5192    3.2082    2.5456 C   0  0  0  0  0  0  0  0  0  0  0  0
   -1.5166    3.3903    2.9518 H   0  0  0  0  0  0  0  0  0  0  0  0
    0.2240    3.3791    3.3257 H   0  0  0  0  0  0  0  0  0  0  0  0
   -0.3477    3.9067    1.7239 H   0  0  0  0  0  0  0  0  0  0  0  0
  5  6  2  0  0  0  0
  5  7  1  0  0  0  0
  2  3  1  0  0  0  0
  2  4  1  0  0  0  0
  2  5  1  0  0  0  0
  1  2  1  0  0  0  0
 26 27  2  0  0  0  0
 26 28  1  0  0  0  0
 23 24  1  0  0  0  0
 23 25  1  0  0  0  0
 20 21  1  0  0  0  0
 20 22  1  0  0  0  0
 20 23  1  0  0  0  0
 17 18  1  0  0  0  0
 17 19  1  0  0  0  0
 17 20  1  0  0  0  0
 14 15  1  0  0  0  0
 14 16  1  0  0  0  0
 14 17  1  0  0  0  0
 11 12  1  0  0  0  0
 11 13  1  0  0  0  0
 11 14  1  0  0  0  0
  9 10  1  0  0  0  0
  9 11  1  0  0  0  0
  9 26  1  0  0  0  0
  7  8  1  0  0  0  0
  7  9  1  0  0  0  0
 30 31  1  0  0  0  0
 30 32  1  0  0  0  0
 30 33  1  0  0  0  0
 28 29  1  0  0  0  0
 28 30  1  0  0  0  0
M  END
$$$$
default_name
  -OEChem-02102213163D

 33 32  0     1  0  0  0  0  0999 V2000
   -3.8420   -3.6918    1.5562 H   0  0  0  0  0  0  0  0  0  0  0  0
   -3.8430   -2.7008    1.1032 C   0  0  0  0  0  0  0  0  0  0  0  0
   -4.5510   -2.0608    1.6242 H   0  0  0  0  0  0  0  0  0  0  0  0
   -4.1140   -2.7798    0.0522 H   0  0  0  0  0  0  0  0  0  0  0  0
   -2.4570   -2.1098    1.2172 C   0  0  0  0  0  0  0  0  0  0  0  0
   -1.5600   -2.7438    1.7572 O   0  0  0  0  0  0  0  0  0  0  0  0
   -2.2870   -0.8898    0.7102 N   0  0  0  0  0  0  0  0  0  0  0  0
   -3.0820   -0.4218    0.2992 H   0  0  0  0  0  0  0  0  0  0  0  0
   -1.0240   -0.1468    0.7262 C   0  0  1  0  0  0  0  0  0  0  0  0
   -0.3583   -0.6100    1.4558 H   0  0  0  0  0  0  0  0  0  0  0  0
   -0.3739   -0.2459   -0.6675 C   0  0  0  0  0  0  0  0  0  0  0  0
    0.2704   -1.1273   -0.6880 H   0  0  0  0  0  0  0  0  0  0  0  0
   -1.1533   -0.3763   -1.4195 H   0  0  0  0  0  0  0  0  0  0  0  0
    0.4789    0.9801   -1.0293 C   0  0  0  0  0  0  0  0  0  0  0  0
    1.4203    0.9461   -0.4802 H   0  0  0  0  0  0  0  0  0  0  0  0
    0.6892    0.9676   -2.1004 H   0  0  0  0  0  0  0  0  0  0  0  0
   -0.2524    2.2797   -0.6743 C   0  0  0  0  0  0  0  0  0  0  0  0
   -1.2008    2.3247   -1.2105 H   0  0  0  0  0  0  0  0  0  0  0  0
   -0.4436    2.3077    0.3988 H   0  0  0  0  0  0  0  0  0  0  0  0
    0.6055    3.4810   -1.0664 C   0  0  0  0  0  0  0  0  0  0  0  0
    1.5457    3.4482   -0.5182 H   0  0  0  0  0  0  0  0  0  0  0  0
    0.8123    3.4450   -2.1348 H   0  0  0  0  0  0  0  0  0  0  0  0
   -0.0762    4.7442   -0.7614 N   0  0  0  0  0  0  0  0  0  0  0  0
    0.5233    5.5142   -1.0197 H   0  0  0  0  0  0  0  0  0  0  0  0
   -0.9341    4.7942   -1.2922 H   0  0  0  0  0  0  0  0  0  0  0  0
   -1.2712    1.3099    1.1517 C   0  0  0  0  0  0  0  0  0  0  0  0
   -2.2039    1.9448    0.6639 O   0  0  0  0  0  0  0  0  0  0  0  0
   -0.4306    1.8354    2.0503 N   0  0  0  0  0  0  0  0  0  0  0  0
    0.3001    1.2459    2.4139 H   0  0  0  0  0  0  0  0  0  0  0  0
   -0.5192    3.2082    2.5456 C   0  0  0  0  0  0  0  0  0  0  0  0
   -1.5166    3.3903    2.9518 H   0  0  0  0  0  0  0  0  0  0  0  0
    0.2240    3.3791    3.3257 H   0  0  0  0  0  0  0  0  0  0  0  0
   -0.3477    3.9067    1.7239 H   0  0  0  0  0  0  0  0  0  0  0  0
  5  6  2  0  0  0  0
  5  7  1  0  0  0  0
  2  3  1  0  0  0  0
  2  4  1  0  0  0  0
  2  5  1  0  0  0  0
  1  2  1  0  0  0  0
 26 27  2  0  0  0  0
 26 28  1  0  0  0  0
 23 24  1  0  0  0  0
 23 25  1  0  0  0  0
 20 21  1  0  0  0  0
 20 22  1  0  0  0  0
 20 23  1  0  0  0  0
 17 18  1  0  0  0  0
 17 19  1  0  0  0  0
 17 20  1  0  0  0  0
 14 15  1  0  0  0  0
 14 16  1  0  0  0  0
 14 17  1  0  0  0  0
 11 12  1  0  0  0  0
 11 13  1  0  0  0  0
 11 14  1  0  0  0  0
  9 10  1  0  0  0  0
  9 11  1  0  0  0  0
  9 26  1  0  0  0  0
  7  8  1  0  0  0  0
  7  9  1  0  0  0  0
 30 31  1  0  0  0  0
 30 32  1  0  0  0  0
 30 33  1  0  0  0  0
 28 29  1  0  0  0  0
 28 30  1  0  0  0  0
M  END
$$$$
default_name
  -OEChem-02102213163D

 33 32  0     1  0  0  0  0  0999 V2000
   -3.8420   -3.6918    1.5562 H   0  0  0  0  0  0  0  0  0  0  0  0
   -3.8430   -2.7008    1.1032 C   0  0  0  0  0  0  0  0  0  0  0  0
   -4.5510   -2.0608    1.6242 H   0  0  0  0  0  0  0  0  0  0  0  0
   -4.1140   -2.7798    0.0522 H   0  0  0  0  0  0  0  0  0  0  0  0
   -2.4570   -2.1098    1.2172 C   0  0  0  0  0  0  0  0  0  0  0  0
   -1.5600   -2.7438    1.7572 O   0  0  0  0  0  0  0  0  0  0  0  0
   -2.2870   -0.8898    0.7102 N   0  0  0  0  0  0  0  0  0  0  0  0
   -3.0820   -0.4218    0.2992 H   0  0  0  0  0  0  0  0  0  0  0  0
   -1.0240   -0.1468    0.7262 C   0  0  1  0  0  0  0  0  0  0  0  0
   -0.3583   -0.6100    1.4558 H   0  0  0  0  0  0  0  0  0  0  0  0
   -0.3739   -0.2459   -0.6675 C   0  0  0  0  0  0  0  0  0  0  0  0
    0.2704   -1.1273   -0.6880 H   0  0  0  0  0  0  0  0  0  0  0  0
   -1.1533   -0.3763   -1.4195 H   0  0  0  0  0  0  0  0  0  0  0  0
    0.4789    0.9801   -1.0293 C   0  0  0  0  0  0  0  0  0  0  0  0
    1.5065    0.8209   -0.7012 H   0  0  0  0  0  0  0  0  0  0  0  0
    0.4669    1.1189   -2.1119 H   0  0  0  0  0  0  0  0  0  0  0  0
   -0.0646    2.2438   -0.3531 C   0  0  0  0  0  0  0  0  0  0  0  0
   -1.0956    2.4122   -0.6658 H   0  0  0  0  0  0  0  0  0  0  0  0
   -0.0323    2.1193    0.7297 H   0  0  0  0  0  0  0  0  0  0  0  0
    0.7852    3.4498   -0.7487 C   0  0  0  0  0  0  0  0  0  0  0  0
    1.8115    3.2920   -0.4210 H   0  0  0  0  0  0  0  0  0  0  0  0
    0.7685    3.5651   -1.8312 H   0  0  0  0  0  0  0  0  0  0  0  0
    0.2772    4.6828   -0.1363 N   0  0  0  0  0  0  0  0  0  0  0  0
    0.8689    5.4546   -0.4071 H   0  0  0  0  0  0  0  0  0  0  0  0
   -0.6639    4.8512   -0.4622 H   0  0  0  0  0  0  0  0  0  0  0  0
   -1.2712    1.3099    1.1517 C   0  0  0  0  0  0  0  0  0  0  0  0
   -2.2039    1.9448    0.6639 O   0  0  0  0  0  0  0  0  0  0  0  0
   -0.4306    1.8354    2.0503 N   0  0  0  0  0  0  0  0  0  0  0  0
    0.3001    1.2459    2.4139 H   0  0  0  0  0  0  0  0  0  0  0  0
   -0.5192    3.2082    2.5456 C   0  0  0  0  0  0  0  0  0  0  0  0
   -1.5166    3.3903    2.9518 H   0  0  0  0  0  0  0  0  0  0  0  0
    0.2240    3.3791    3.3257 H   0  0  0  0  0  0  0  0  0  0  0  0
   -0.3477    3.9067    1.7239 H   0  0  0  0  0  0  0  0  0  0  0  0
  5  6  2  0  0  0  0
  5  7  1  0  0  0  0
  2  3  1  0  0  0  0
  2  4  1  0  0  0  0
  2  5  1  0  0  0  0
  1  2  1  0  0  0  0
 26 27  2  0  0  0  0
 26 28  1  0  0  0  0
 23 24  1  0  0  0  0
 23 25  1  0  0  0  0
 20 21  1  0  0  0  0
 20 22  1  0  0  0  0
 20 23  1  0  0  0  0
 17 18  1  0  0  0  0
 17 19  1  0  0  0  0
 17 20  1  0  0  0  0
 14 15  1  0  0  0  0
 14 16  1  0  0  0  0
 14 17  1  0  0  0  0
 11 12  1  0  0  0  0
 11 13  1  0  0  0  0
 11 14  1  0  0  0  0
  9 10  1  0  0  0  0
  9 11  1  0  0  0  0
  9 26  1  0  0  0  0
  7  8  1  0  0  0  0
  7  9  1  0  0  0  0
 30 31  1  0  0  0  0
 30 32  1  0  0  0  0
 30 33  1  0  0  0  0
 28 29  1  0  0  0  0
 28 30  1  0  0  0  0
M  END
$$$$
default_name
  -OEChem-02102213163D

 33 32  0     1  0  0  0  0  0999 V2000
   -3.8420   -3.6918    1.5562 H   0  0  0  0  0  0  0  0  0  0  0  0
   -3.8430   -2.7008    1.1032 C   0  0  0  0  0  0  0  0  0  0  0  0
   -4.5510   -2.0608    1.6242 H   0  0  0  0  0  0  0  0  0  0  0  0
   -4.1140   -2.7798    0.0522 H   0  0  0  0  0  0  0  0  0  0  0  0
   -2.4570   -2.1098    1.2172 C   0  0  0  0  0  0  0  0  0  0  0  0
   -1.5600   -2.7438    1.7572 O   0  0  0  0  0  0  0  0  0  0  0  0
   -2.2870   -0.8898    0.7102 N   0  0  0  0  0  0  0  0  0  0  0  0
   -3.0820   -0.4218    0.2992 H   0  0  0  0  0  0  0  0  0  0  0  0
   -1.0240   -0.1468    0.7262 C   0  0  1  0  0  0  0  0  0  0  0  0
   -0.3583   -0.6100    1.4558 H   0  0  0  0  0  0  0  0  0  0  0  0
   -0.3739   -0.2459   -0.6675 C   0  0  0  0  0  0  0  0  0  0  0  0
    0.2704   -1.1273   -0.6880 H   0  0  0  0  0  0  0  0  0  0  0  0
   -1.1533   -0.3763   -1.4195 H   0  0  0  0  0  0  0  0  0  0  0  0
    0.4789    0.9801   -1.0293 C   0  0  0  0  0  0  0  0  0  0  0  0
    1.5364    0.7265   -0.9503 H   0  0  0  0  0  0  0  0  0  0  0  0
    0.2590    1.2801   -2.0555 H   0  0  0  0  0  0  0  0  0  0  0  0
    0.1809    2.1516   -0.0868 C   0  0  0  0  0  0  0  0  0  0  0  0
   -0.8761    2.4122   -0.1488 H   0  0  0  0  0  0  0  0  0  0  0  0
    0.4217    1.8647    0.9373 H   0  0  0  0  0  0  0  0  0  0  0  0
    1.0225    3.3631   -0.4834 C   0  0  0  0  0  0  0  0  0  0  0  0
    2.0787    3.1110   -0.4044 H   0  0  0  0  0  0  0  0  0  0  0  0
    0.7962    3.6401   -1.5117 H   0  0  0  0  0  0  0  0  0  0  0  0
    0.7439    4.5122    0.3856 N   0  0  0  0  0  0  0  0  0  0  0  0
    1.3256    5.2879    0.1047 H   0  0  0  0  0  0  0  0  0  0  0  0
   -0.2280    4.7706    0.2919 H   0  0  0  0  0  0  0  0  0  0  0  0
   -1.2712    1.3099    1.1517 C   0  0  0  0  0  0  0  0  0  0  0  0
   -2.2039    1.9448    0.6639 O   0  0  0  0  0  0  0  0  0  0  0  0
   -0.4306    1.8354    2.0503 N   0  0  0  0  0  0  0  0  0  0  0  0
    0.3001    1.2459    2.4139 H   0  0  0  0  0  0  0  0  0  0  0  0
   -0.5192    3.2082    2.5456 C   0  0  0  0  0  0  0  0  0  0  0  0
   -1.5166    3.3903    2.9518 H   0  0  0  0  0  0  0  0  0  0  0  0
    0.2240    3.3791    3.3257 H   0  0  0  0  0  0  0  0  0  0  0  0
   -0.3477    3.9067    1.7239 H   0  0  0  0  0  0  0  0  0  0  0  0
  5  6  2  0  0  0  0
  5  7  1  0  0  0  0
  2  3  1  0  0  0  0
  2  4  1  0  0  0  0
  2  5  1  0  0  0  0
  1  2  1  0  0  0  0
 26 27  2  0  0  0  0
 26 28  1  0  0  0  0
 23 24  1  0  0  0  0
 23 25  1  0  0  0  0
 20 21  1  0  0  0  0
 20 22  1  0  0  0  0
 20 23  1  0  0  0  0
 17 18  1  0  0  0  0
 17 19  1  0  0  0  0
 17 20  1  0  0  0  0
 14 15  1  0  0  0  0
 14 16  1  0  0  0  0
 14 17  1  0  0  0  0
 11 12  1  0  0  0  0
 11 13  1  0  0  0  0
 11 14  1  0  0  0  0
  9 10  1  0  0  0  0
  9 11  1  0  0  0  0
  9 26  1  0  0  0  0
  7  8  1  0  0  0  0
  7  9  1  0  0  0  0
 30 31  1  0  0  0  0
 30 32  1  0  0  0  0
 30 33  1  0  0  0  0
 28 29  1  0  0  0  0
 28 30  1  0  0  0  0
M  END
$$$$
default_name
  -OEChem-02102213163D

 33 32  0     1  0  0  0  0  0999 V2000
   -3.8420   -3.6918    1.5562 H   0  0  0  0  0  0  0  0  0  0  0  0
   -3.8430   -2.7008    1.1032 C   0  0  0  0  0  0  0  0  0  0  0  0
   -4.5510   -2.0608    1.6242 H   0  0  0  0  0  0  0  0  0  0  0  0
   -4.1140   -2.7798    0.0522 H   0  0  0  0  0  0  0  0  0  0  0  0
   -2.4570   -2.1098    1.2172 C   0  0  0  0  0  0  0  0  0  0  0  0
   -1.5600   -2.7438    1.7572 O   0  0  0  0  0  0  0  0  0  0  0  0
   -2.2870   -0.8898    0.7102 N   0  0  0  0  0  0  0  0  0  0  0  0
   -3.0820   -0.4218    0.2992 H   0  0  0  0  0  0  0  0  0  0  0  0
   -1.0240   -0.1468    0.7262 C   0  0  1  0  0  0  0  0  0  0  0  0
   -0.3583   -0.6100    1.4558 H   0  0  0  0  0  0  0  0  0  0  0  0
   -0.3739   -0.2459   -0.6675 C   0  0  0  0  0  0  0  0  0  0  0  0
    0.2704   -1.1273   -0.6880 H   0  0  0  0  0  0  0  0  0  0  0  0
   -1.1533   -0.3763   -1.4195 H   0  0  0  0  0  0  0  0  0  0  0  0
    0.4789    0.9801   -1.0293 C   0  0  0  0  0  0  0  0  0  0  0  0
    1.5082    0.6693   -1.2107 H   0  0  0  0  0  0  0  0  0  0  0  0
    0.0797    1.4405   -1.9349 H   0  0  0  0  0  0  0  0  0  0  0  0
    0.4675    2.0094    0.1065 C   0  0  0  0  0  0  0  0  0  0  0  0
   -0.5574    2.3244    0.3053 H   0  0  0  0  0  0  0  0  0  0  0  0
    0.8877    1.5613    1.0074 H   0  0  0  0  0  0  0  0  0  0  0  0
    1.3011    3.2267   -0.2886 C   0  0  0  0  0  0  0  0  0  0  0  0
    2.3293    2.9175   -0.4695 H   0  0  0  0  0  0  0  0  0  0  0  0
    0.8935    3.6650   -1.1981 H   0  0  0  0  0  0  0  0  0  0  0  0
    1.2921    4.2440    0.7690 N   0  0  0  0  0  0  0  0  0  0  0  0
    1.8623    5.0256    0.4808 H   0  0  0  0  0  0  0  0  0  0  0  0
    0.3438    4.5578    0.9188 H   0  0  0  0  0  0  0  0  0  0  0  0
   -1.2712    1.3099    1.1517 C   0  0  0  0  0  0  0  0  0  0  0  0
   -2.2039    1.9448    0.6639 O   0  0  0  0  0  0  0  0  0  0  0  0
   -0.4306    1.8354    2.0503 N   0  0  0  0  0  0  0  0  0  0  0  0
    0.3001    1.2459    2.4139 H   0  0  0  0  0  0  0  0  0  0  0  0
   -0.5192    3.2082    2.5456 C   0  0  0  0  0  0  0  0  0  0  0  0
   -1.5166    3.3903    2.9518 H   0  0  0  0  0  0  0  0  0  0  0  0
    0.2240    3.3791    3.3257 H   0  0  0  0  0  0  0  0  0  0  0  0
   -0.3477    3.9067    1.7239 H   0  0  0  0  0  0  0  0  0  0  0  0
  5  6  2  0  0  0  0
  5  7  1  0  0  0  0
  2  3  1  0  0  0  0
  2  4  1  0  0  0  0
  2  5  1  0  0  0  0
  1  2  1  0  0  0  0
 26 27  2  0  0  0  0
 26 28  1  0  0  0  0
 23 24  1  0  0  0  0
 23 25  1  0  0  0  0
 20 21  1  0  0  0  0
 20 22  1  0  0  0  0
 20 23  1  0  0  0  0
 17 18  1  0  0  0  0
 17 19  1  0  0  0  0
 17 20  1  0  0  0  0
 14 15  1  0  0  0  0
 14 16  1  0  0  0  0
 14 17  1  0  0  0  0
 11 12  1  0  0  0  0
 11 13  1  0  0  0  0
 11 14  1  0  0  0  0
  9 10  1  0  0  0  0
  9 11  1  0  0  0  0
  9 26  1  0  0  0  0
  7  8  1  0  0  0  0
  7  9  1  0  0  0  0
 30 31  1  0  0  0  0
 30 32  1  0  0  0  0
 30 33  1  0  0  0  0
 28 29  1  0  0  0  0
 28 30  1  0  0  0  0
M  END
$$$$
default_name
  -OEChem-02102213163D

 33 32  0     1  0  0  0  0  0999 V2000
   -3.8420   -3.6918    1.5562 H   0  0  0  0  0  0  0  0  0  0  0  0
   -3.8430   -2.7008    1.1032 C   0  0  0  0  0  0  0  0  0  0  0  0
   -4.5510   -2.0608    1.6242 H   0  0  0  0  0  0  0  0  0  0  0  0
   -4.1140   -2.7798    0.0522 H   0  0  0  0  0  0  0  0  0  0  0  0
   -2.4570   -2.1098    1.2172 C   0  0  0  0  0  0  0  0  0  0  0  0
   -1.5600   -2.7438    1.7572 O   0  0  0  0  0  0  0  0  0  0  0  0
   -2.2870   -0.8898    0.7102 N   0  0  0  0  0  0  0  0  0  0  0  0
   -3.0820   -0.4218    0.2992 H   0  0  0  0  0  0  0  0  0  0  0  0
   -1.0240   -0.1468    0.7262 C   0  0  1  0  0  0  0  0  0  0  0  0
   -0.3583   -0.6100    1.4558 H   0  0  0  0  0  0  0  0  0  0  0  0
   -0.3739   -0.2459   -0.6675 C   0  0  0  0  0  0  0  0  0  0  0  0
    0.2704   -1.1273   -0.6880 H   0  0  0  0  0  0  0  0  0  0  0  0
   -1.1533   -0.3763   -1.4195 H   0  0  0  0  0  0  0  0  0  0  0  0
    0.4789    0.9801   -1.0293 C   0  0  0  0  0  0  0  0  0  0  0  0
    1.4236    0.6532   -1.4647 H   0  0  0  0  0  0  0  0  0  0  0  0
   -0.0589    1.5890   -1.7584 H   0  0  0  0  0  0  0  0  0  0  0  0
    0.7755    1.8267    0.2137 C   0  0  0  0  0  0  0  0  0  0  0  0
   -0.1611    2.1551    0.6654 H   0  0  0  0  0  0  0  0  0  0  0  0
    1.3337    1.2298    0.9354 H   0  0  0  0  0  0  0  0  0  0  0  0
    1.6022    3.0501   -0.1775 C   0  0  0  0  0  0  0  0  0  0  0  0
    2.5461    2.7246   -0.6120 H   0  0  0  0  0  0  0  0  0  0  0  0
    1.0538    3.6380   -0.9116 H   0  0  0  0  0  0  0  0  0  0  0  0
    1.8844    3.8965    0.9875 N   0  0  0  0  0  0  0  0  0  0  0  0
    2.4424    4.6854    0.6956 H   0  0  0  0  0  0  0  0  0  0  0  0
    1.0126    4.2274    1.3756 H   0  0  0  0  0  0  0  0  0  0  0  0
   -1.2712    1.3099    1.1517 C   0  0  0  0  0  0  0  0  0  0  0  0
   -2.2039    1.9448    0.6639 O   0  0  0  0  0  0  0  0  0  0  0  0
   -0.4306    1.8354    2.0503 N   0  0  0  0  0  0  0  0  0  0  0  0
    0.3001    1.2459    2.4139 H   0  0  0  0  0  0  0  0  0  0  0  0
   -0.5192    3.2082    2.5456 C   0  0  0  0  0  0  0  0  0  0  0  0
   -1.5166    3.3903    2.9518 H   0  0  0  0  0  0  0  0  0  0  0  0
    0.2240    3.3791    3.3257 H   0  0  0  0  0  0  0  0  0  0  0  0
   -0.3477    3.9067    1.7239 H   0  0  0  0  0  0  0  0  0  0  0  0
  5  6  2  0  0  0  0
  5  7  1  0  0  0  0
  2  3  1  0  0  0  0
  2  4  1  0  0  0  0
  2  5  1  0  0  0  0
  1  2  1  0  0  0  0
 26 27  2  0  0  0  0
 26 28  1  0  0  0  0
 23 24  1  0  0  0  0
 23 25  1  0  0  0  0
 20 21  1  0  0  0  0
 20 22  1  0  0  0  0
 20 23  1  0  0  0  0
 17 18  1  0  0  0  0
 17 19  1  0  0  0  0
 17 20  1  0  0  0  0
 14 15  1  0  0  0  0
 14 16  1  0  0  0  0
 14 17  1  0  0  0  0
 11 12  1  0  0  0  0
 11 13  1  0  0  0  0
 11 14  1  0  0  0  0
  9 10  1  0  0  0  0
  9 11  1  0  0  0  0
  9 26  1  0  0  0  0
  7  8  1  0  0  0  0
  7  9  1  0  0  0  0
 30 31  1  0  0  0  0
 30 32  1  0  0  0  0
 30 33  1  0  0  0  0
 28 29  1  0  0  0  0
 28 30  1  0  0  0  0
M  END
$$$$
default_name
  -OEChem-02102213163D

 33 32  0     1  0  0  0  0  0999 V2000
   -3.8420   -3.6918    1.5562 H   0  0  0  0  0  0  0  0  0  0  0  0
   -3.8430   -2.7008    1.1032 C   0  0  0  0  0  0  0  0  0  0  0  0
   -4.5510   -2.0608    1.6242 H   0  0  0  0  0  0  0  0  0  0  0  0
   -4.1140   -2.7798    0.0522 H   0  0  0  0  0  0  0  0  0  0  0  0
   -2.4570   -2.1098    1.2172 C   0  0  0  0  0  0  0  0  0  0  0  0
   -1.5600   -2.7438    1.7572 O   0  0  0  0  0  0  0  0  0  0  0  0
   -2.2870   -0.8898    0.7102 N   0  0  0  0  0  0  0  0  0  0  0  0
   -3.0820   -0.4218    0.2992 H   0  0  0  0  0  0  0  0  0  0  0  0
   -1.0240   -0.1468    0.7262 C   0  0  1  0  0  0  0  0  0  0  0  0
   -0.3583   -0.6100    1.4558 H   0  0  0  0  0  0  0  0  0  0  0  0
   -0.3739   -0.2459   -0.6675 C   0  0  0  0  0  0  0  0  0  0  0  0
    0.2704   -1.1273   -0.6880 H   0  0  0  0  0  0  0  0  0  0  0  0
   -1.1533   -0.3763   -1.4195 H   0  0  0  0  0  0  0  0  0  0  0  0
    0.4789    0.9801   -1.0293 C   0  0  0  0  0  0  0  0  0  0  0  0
    1.2886    0.6793   -1.6948 H   0  0  0  0  0  0  0  0  0  0  0  0
   -0.1472    1.7155   -1.5379 H   0  0  0  0  0  0  0  0  0  0  0  0
    1.0840    1.6161    0.2273 C   0  0  0  0  0  0  0  0  0  0  0  0
    0.2857    1.9156    0.9071 H   0  0  0  0  0  0  0  0  0  0  0  0
    1.7295    0.8927    0.7261 H   0  0  0  0  0  0  0  0  0  0  0  0
    1.9052    2.8451   -0.1578 C   0  0  0  0  0  0  0  0  0  0  0  0
    2.7143    2.5456   -0.8220 H   0  0  0  0  0  0  0  0  0  0  0  0
    1.2661    3.5611   -0.6719 H   0  0  0  0  0  0  0  0  0  0  0  0
    2.4805    3.4933    1.0263 N   0  0  0  0  0  0  0  0  0  0  0  0
    3.0263    4.2907    0.7344 H   0  0  0  0  0  0  0  0  0  0  0  0
    1.7328    3.8019    1.6313 H   0  0  0  0  0  0  0  0  0  0  0  0
   -1.2712    1.3099    1.1517 C   0  0  0  0  0  0  0  0  0  0  0  0
   -2.2039    1.9448    0.6639 O   0  0  0  0  0  0  0  0  0  0  0  0
   -0.4306    1.8354    2.0503 N   0  0  0  0  0  0  0  0  0  0  0  0
    0.3001    1.2459    2.4139 H   0  0  0  0  0  0  0  0  0  0  0  0
   -0.5192    3.2082    2.5456 C   0  0  0  0  0  0  0  0  0  0  0  0
   -1.5166    3.3903    2.9518 H   0  0  0  0  0  0  0  0  0  0  0  0
    0.2240    3.3791    3.3257 H   0  0  0  0  0  0  0  0  0  0  0  0
   -0.3477    3.9067    1.7239 H   0  0  0  0  0  0  0  0  0  0  0  0
  5  6  2  0  0  0  0
  5  7  1  0  0  0  0
  2  3  1  0  0  0  0
  2  4  1  0  0  0  0
  2  5  1  0  0  0  0
  1  2  1  0  0  0  0
 26 27  2  0  0  0  0
 26 28  1  0  0  0  0
 23 24  1  0  0  0  0
 23 25  1  0  0  0  0
 20 21  1  0  0  0  0
 20 22  1  0  0  0  0
 20 23  1  0  0  0  0
 17 18  1  0  0  0  0
 17 19  1  0  0  0  0
 17 20  1  0  0  0  0
 14 15  1  0  0  0  0
 14 16  1  0  0  0  0
 14 17  1  0  0  0  0
 11 12  1  0  0  0  0
 11 13  1  0  0  0  0
 11 14  1  0  0  0  0
  9 10  1  0  0  0  0
  9 11  1  0  0  0  0
  9 26  1  0  0  0  0
  7  8  1  0  0  0  0
  7  9  1  0  0  0  0
 30 31  1  0  0  0  0
 30 32  1  0  0  0  0
 30 33  1  0  0  0  0
 28 29  1  0  0  0  0
 28 30  1  0  0  0  0
M  END
$$$$
default_name
  -OEChem-02102213163D

 33 32  0     1  0  0  0  0  0999 V2000
   -3.8420   -3.6918    1.5562 H   0  0  0  0  0  0  0  0  0  0  0  0
   -3.8430   -2.7008    1.1032 C   0  0  0  0  0  0  0  0  0  0  0  0
   -4.5510   -2.0608    1.6242 H   0  0  0  0  0  0  0  0  0  0  0  0
   -4.1140   -2.7798    0.0522 H   0  0  0  0  0  0  0  0  0  0  0  0
   -2.4570   -2.1098    1.2172 C   0  0  0  0  0  0  0  0  0  0  0  0
   -1.5600   -2.7438    1.7572 O   0  0  0  0  0  0  0  0  0  0  0  0
   -2.2870   -0.8898    0.7102 N   0  0  0  0  0  0  0  0  0  0  0  0
   -3.0820   -0.4218    0.2992 H   0  0  0  0  0  0  0  0  0  0  0  0
   -1.0240   -0.1468    0.7262 C   0  0  1  0  0  0  0  0  0  0  0  0
   -0.3583   -0.6100    1.4558 H   0  0  0  0  0  0  0  0  0  0  0  0
   -0.3739   -0.2459   -0.6675 C   0  0  0  0  0  0  0  0  0  0  0  0
    0.2704   -1.1273   -0.6880 H   0  0  0  0  0  0  0  0  0  0  0  0
   -1.1533   -0.3763   -1.4195 H   0  0  0  0  0  0  0  0  0  0  0  0
    0.4789    0.9801   -1.0293 C   0  0  0  0  0  0  0  0  0  0  0  0
    1.1121    0.7457   -1.8855 H   0  0  0  0  0  0  0  0  0  0  0  0
   -0.1793    1.8114   -1.2885 H   0  0  0  0  0  0  0  0  0  0  0  0
    1.3720    1.3919    0.1465 C   0  0  0  0  0  0  0  0  0  0  0  0
    0.7527    1.6223    1.0139 H   0  0  0  0  0  0  0  0  0  0  0  0
    2.0481    0.5730    0.3938 H   0  0  0  0  0  0  0  0  0  0  0  0
    2.1895    2.6258   -0.2308 C   0  0  0  0  0  0  0  0  0  0  0  0
    2.8225    2.3926   -1.0854 H   0  0  0  0  0  0  0  0  0  0  0  0
    1.5160    3.4394   -0.4952 H   0  0  0  0  0  0  0  0  0  0  0  0
    3.0397    3.0619    0.8829 N   0  0  0  0  0  0  0  0  0  0  0  0
    3.5743    3.8682    0.5947 H   0  0  0  0  0  0  0  0  0  0  0  0
    2.4553    3.3102    1.6684 H   0  0  0  0  0  0  0  0  0  0  0  0
   -1.2712    1.3099    1.1517 C   0  0  0  0  0  0  0  0  0  0  0  0
   -2.2039    1.9448    0.6639 O   0  0  0  0  0  0  0  0  0  0  0  0
   -0.4306    1.8354    2.0503 N   0  0  0  0  0  0  0  0  0  0  0  0
    0.3001    1.2459    2.4139 H   0  0  0  0  0  0  0  0  0  0  0  0
   -0.5192    3.2082    2.5456 C   0  0  0  0  0  0  0  0  0  0  0  0
   -1.5166    3.3903    2.9518 H   0  0  0  0  0  0  0  0  0  0  0  0
    0.2240    3.3791    3.3257 H   0  0  0  0  0  0  0  0  0  0  0  0
   -0.3477    3.9067    1.7239 H   0  0  0  0  0  0  0  0  0  0  0  0
  5  6  2  0  0  0  0
  5  7  1  0  0  0  0
  2  3  1  0  0  0  0
  2  4  1  0  0  0  0
  2  5  1  0  0  0  0
  1  2  1  0  0  0  0
 26 27  2  0  0  0  0
 26 28  1  0  0  0  0
 23 24  1  0  0  0  0
 23 25  1  0  0  0  0
 20 21  1  0  0  0  0
 20 22  1  0  0  0  0
 20 23  1  0  0  0  0
 17 18  1  0  0  0  0
 17 19  1  0  0  0  0
 17 20  1  0  0  0  0
 14 15  1  0  0  0  0
 14 16  1  0  0  0  0
 14 17  1  0  0  0  0
 11 12  1  0  0  0  0
 11 13  1  0  0  0  0
 11 14  1  0  0  0  0
  9 10  1  0  0  0  0
  9 11  1  0  0  0  0
  9 26  1  0  0  0  0
  7  8  1  0  0  0  0
  7  9  1  0  0  0  0
 30 31  1  0  0  0  0
 30 32  1  0  0  0  0
 30 33  1  0  0  0  0
 28 29  1  0  0  0  0
 28 30  1  0  0  0  0
M  END
$$$$
default_name
  -OEChem-02102213163D

 33 32  0     1  0  0  0  0  0999 V2000
   -3.8420   -3.6918    1.5562 H   0  0  0  0  0  0  0  0  0  0  0  0
   -3.8430   -2.7008    1.1032 C   0  0  0  0  0  0  0  0  0  0  0  0
   -4.5510   -2.0608    1.6242 H   0  0  0  0  0  0  0  0  0  0  0  0
   -4.1140   -2.7798    0.0522 H   0  0  0  0  0  0  0  0  0  0  0  0
   -2.4570   -2.1098    1.2172 C   0  0  0  0  0  0  0  0  0  0  0  0
   -1.5600   -2.7438    1.7572 O   0  0  0  0  0  0  0  0  0  0  0  0
   -2.2870   -0.8898    0.7102 N   0  0  0  0  0  0  0  0  0  0  0  0
   -3.0820   -0.4218    0.2992 H   0  0  0  0  0  0  0  0  0  0  0  0
   -1.0240   -0.1468    0.7262 C   0  0  1  0  0  0  0  0  0  0  0  0
   -0.3583   -0.6100    1.4558 H   0  0  0  0  0  0  0  0  0  0  0  0
   -0.3739   -0.2459   -0.6675 C   0  0  0  0  0  0  0  0  0  0  0  0
    0.2704   -1.1273   -0.6880 H   0  0  0  0  0  0  0  0  0  0  0  0
   -1.1533   -0.3763   -1.4195 H   0  0  0  0  0  0  0  0  0  0  0  0
    0.4789    0.9801   -1.0293 C   0  0  0  0  0  0  0  0  0  0  0  0
    0.9064    0.8480   -2.0237 H   0  0  0  0  0  0  0  0  0  0  0  0
   -0.1529    1.8702   -1.0272 H   0  0  0  0  0  0  0  0  0  0  0  0
    1.6198    1.1695   -0.0232 C   0  0  0  0  0  0  0  0  0  0  0  0
    1.2079    1.2952    0.9786 H   0  0  0  0  0  0  0  0  0  0  0  0
    2.2676    0.2925   -0.0388 H   0  0  0  0  0  0  0  0  0  0  0  0
    2.4356    2.4072   -0.3914 C   0  0  0  0  0  0  0  0  0  0  0  0
    2.8633    2.2760   -1.3841 H   0  0  0  0  0  0  0  0  0  0  0  0
    1.7865    3.2812   -0.3937 H   0  0  0  0  0  0  0  0  0  0  0  0
    3.5240    2.6318    0.5669 N   0  0  0  0  0  0  0  0  0  0  0  0
    4.0491    3.4468    0.2858 H   0  0  0  0  0  0  0  0  0  0  0  0
    3.1309    2.7859    1.4845 H   0  0  0  0  0  0  0  0  0  0  0  0
   -1.2712    1.3099    1.1517 C   0  0  0  0  0  0  0  0  0  0  0  0
   -2.2039    1.9448    0.6639 O   0  0  0  0  0  0  0  0  0  0  0  0
   -0.4306    1.8354    2.0503 N   0  0  0  0  0  0  0  0  0  0  0  0
    0.3001    1.2459    2.4139 H   0  0  0  0  0  0  0  0  0  0  0  0
   -0.5192    3.2082    2.5456 C   0  0  0  0  0  0  0  0  0  0  0  0
   -1.5166    3.3903    2.9518 H   0  0  0  0  0  0  0  0  0  0  0  0
    0.2240    3.3791    3.3257 H   0  0  0  0  0  0  0  0  0  0  0  0
   -0.3477    3.9067    1.7239 H   0  0  0  0  0  0  0  0  0  0  0  0
  5  6  2  0  0  0  0
  5  7  1  0  0  0  0
  2  3  1  0  0  0  0
  2  4  1  0  0  0  0
  2  5  1  0  0  0  0
  1  2  1  0  0  0  0
 26 27  2  0  0  0  0
 26 28  1  0  0  0  0
 23 24  1  0  0  0  0
 23 25  1  0  0  0  0
 20 21  1  0  0  0  0
 20 22  1  0  0  0  0
 20 23  1  0  0  0  0
 17 18  1  0  0  0  0
 17 19  1  0  0  0  0
 17 20  1  0  0  0  0
 14 15  1  0  0  0  0
 14 16  1  0  0  0  0
 14 17  1  0  0  0  0
 11 12  1  0  0  0  0
 11 13  1  0  0  0  0
 11 14  1  0  0  0  0
  9 10  1  0  0  0  0
  9 11  1  0  0  0  0
  9 26  1  0  0  0  0
  7  8  1  0  0  0  0
  7  9  1  0  0  0  0
 30 31  1  0  0  0  0
 30 32  1  0  0  0  0
 30 33  1  0  0  0  0
 28 29  1  0  0  0  0
 28 30  1  0  0  0  0
M  END
$$$$
default_name
  -OEChem-02102213163D

 33 32  0     1  0  0  0  0  0999 V2000
   -3.8420   -3.6918    1.5562 H   0  0  0  0  0  0  0  0  0  0  0  0
   -3.8430   -2.7008    1.1032 C   0  0  0  0  0  0  0  0  0  0  0  0
   -4.5510   -2.0608    1.6242 H   0  0  0  0  0  0  0  0  0  0  0  0
   -4.1140   -2.7798    0.0522 H   0  0  0  0  0  0  0  0  0  0  0  0
   -2.4570   -2.1098    1.2172 C   0  0  0  0  0  0  0  0  0  0  0  0
   -1.5600   -2.7438    1.7572 O   0  0  0  0  0  0  0  0  0  0  0  0
   -2.2870   -0.8898    0.7102 N   0  0  0  0  0  0  0  0  0  0  0  0
   -3.0820   -0.4218    0.2992 H   0  0  0  0  0  0  0  0  0  0  0  0
   -1.0240   -0.1468    0.7262 C   0  0  1  0  0  0  0  0  0  0  0  0
   -0.3583   -0.6100    1.4558 H   0  0  0  0  0  0  0  0  0  0  0  0
   -0.3739   -0.2459   -0.6675 C   0  0  0  0  0  0  0  0  0  0  0  0
    0.2704   -1.1273   -0.6880 H   0  0  0  0  0  0  0  0  0  0  0  0
   -1.1533   -0.3763   -1.4195 H   0  0  0  0  0  0  0  0  0  0  0  0
    0.4789    0.9801   -1.0293 C   0  0  0  0  0  0  0  0  0  0  0  0
    0.6854    0.9793   -2.0999 H   0  0  0  0  0  0  0  0  0  0  0  0
   -0.0699    1.8878   -0.7719 H   0  0  0  0  0  0  0  0  0  0  0  0
    1.8106    0.9638   -0.2702 C   0  0  0  0  0  0  0  0  0  0  0  0
    1.6203    0.9566    0.8034 H   0  0  0  0  0  0  0  0  0  0  0  0
    2.3733    0.0704   -0.5424 H   0  0  0  0  0  0  0  0  0  0  0  0
    2.6269    2.2041   -0.6289 C   0  0  0  0  0  0  0  0  0  0  0  0
    2.8340    2.2039   -1.6978 H   0  0  0  0  0  0  0  0  0  0  0  0
    2.0590    3.0974   -0.3741 H   0  0  0  0  0  0  0  0  0  0  0  0
    3.9003    2.2322    0.0998 N   0  0  0  0  0  0  0  0  0  0  0  0
    4.4182    3.0552   -0.1711 H   0  0  0  0  0  0  0  0  0  0  0  0
    3.7136    2.2648    1.0920 H   0  0  0  0  0  0  0  0  0  0  0  0
   -1.2712    1.3099    1.1517 C   0  0  0  0  0  0  0  0  0  0  0  0
   -2.2039    1.9448    0.6639 O   0  0  0  0  0  0  0  0  0  0  0  0
   -0.4306    1.8354    2.0503 N   0  0  0  0  0  0  0  0  0  0  0  0
    0.3001    1.2459    2.4139 H   0  0  0  0  0  0  0  0  0  0  0  0
   -0.5192    3.2082    2.5456 C   0  0  0  0  0  0  0  0  0  0  0  0
   -1.5166    3.3903    2.9518 H   0  0  0  0  0  0  0  0  0  0  0  0
    0.2240    3.3791    3.3257 H   0  0  0  0  0  0  0  0  0  0  0  0
   -0.3477    3.9067    1.7239 H   0  0  0  0  0  0  0  0  0  0  0  0
  5  6  2  0  0  0  0
  5  7  1  0  0  0  0
  2  3  1  0  0  0  0
  2  4  1  0  0  0  0
  2  5  1  0  0  0  0
  1  2  1  0  0  0  0
 26 27  2  0  0  0  0
 26 28  1  0  0  0  0
 23 24  1  0  0  0  0
 23 25  1  0  0  0  0
 20 21  1  0  0  0  0
 20 22  1  0  0  0  0
 20 23  1  0  0  0  0
 17 18  1  0  0  0  0
 17 19  1  0  0  0  0
 17 20  1  0  0  0  0
 14 15  1  0  0  0  0
 14 16  1  0  0  0  0
 14 17  1  0  0  0  0
 11 12  1  0  0  0  0
 11 13  1  0  0  0  0
 11 14  1  0  0  0  0
  9 10  1  0  0  0  0
  9 11  1  0  0  0  0
  9 26  1  0  0  0  0
  7  8  1  0  0  0  0
  7  9  1  0  0  0  0
 30 31  1  0  0  0  0
 30 32  1  0  0  0  0
 30 33  1  0  0  0  0
 28 29  1  0  0  0  0
 28 30  1  0  0  0  0
M  END
$$$$
default_name
  -OEChem-02102213163D

 33 32  0     1  0  0  0  0  0999 V2000
   -3.8420   -3.6918    1.5562 H   0  0  0  0  0  0  0  0  0  0  0  0
   -3.8430   -2.7008    1.1032 C   0  0  0  0  0  0  0  0  0  0  0  0
   -4.5510   -2.0608    1.6242 H   0  0  0  0  0  0  0  0  0  0  0  0
   -4.1140   -2.7798    0.0522 H   0  0  0  0  0  0  0  0  0  0  0  0
   -2.4570   -2.1098    1.2172 C   0  0  0  0  0  0  0  0  0  0  0  0
   -1.5600   -2.7438    1.7572 O   0  0  0  0  0  0  0  0  0  0  0  0
   -2.2870   -0.8898    0.7102 N   0  0  0  0  0  0  0  0  0  0  0  0
   -3.0820   -0.4218    0.2992 H   0  0  0  0  0  0  0  0  0  0  0  0
   -1.0240   -0.1468    0.7262 C   0  0  1  0  0  0  0  0  0  0  0  0
   -0.3583   -0.6100    1.4558 H   0  0  0  0  0  0  0  0  0  0  0  0
   -0.3739   -0.2459   -0.6675 C   0  0  0  0  0  0  0  0  0  0  0  0
    0.2704   -1.1273   -0.6880 H   0  0  0  0  0  0  0  0  0  0  0  0
   -1.1533   -0.3763   -1.4195 H   0  0  0  0  0  0  0  0  0  0  0  0
    0.4789    0.9801   -1.0293 C   0  0  0  0  0  0  0  0  0  0  0  0
    0.4642    1.1304   -2.1092 H   0  0  0  0  0  0  0  0  0  0  0  0
    0.0641    1.8631   -0.5398 H   0  0  0  0  0  0  0  0  0  0  0  0
    1.9313    0.7891   -0.5778 C   0  0  0  0  0  0  0  0  0  0  0  0
    1.9619    0.6295    0.5005 H   0  0  0  0  0  0  0  0  0  0  0  0
    2.3579   -0.0783   -1.0825 H   0  0  0  0  0  0  0  0  0  0  0  0
    2.7502    2.0303   -0.9269 C   0  0  0  0  0  0  0  0  0  0  0  0
    2.7364    2.1810   -2.0051 H   0  0  0  0  0  0  0  0  0  0  0  0
    2.3151    2.9004   -0.4379 H   0  0  0  0  0  0  0  0  0  0  0  0
    4.1429    1.8904   -0.4864 N   0  0  0  0  0  0  0  0  0  0  0  0
    4.6565    2.7201   -0.7449 H   0  0  0  0  0  0  0  0  0  0  0  0
    4.1636    1.7822    0.5177 H   0  0  0  0  0  0  0  0  0  0  0  0
   -1.2712    1.3099    1.1517 C   0  0  0  0  0  0  0  0  0  0  0  0
   -2.2039    1.9448    0.6639 O   0  0  0  0  0  0  0  0  0  0  0  0
   -0.4306    1.8354    2.0503 N   0  0  0  0  0  0  0  0  0  0  0  0
    0.3001    1.2459    2.4139 H   0  0  0  0  0  0  0  0  0  0  0  0
   -0.5192    3.2082    2.5456 C   0  0  0  0  0  0  0  0  0  0  0  0
   -1.5166    3.3903    2.9518 H   0  0  0  0  0  0  0  0  0  0  0  0
    0.2240    3.3791    3.3257 H   0  0  0  0  0  0  0  0  0  0  0  0
   -0.3477    3.9067    1.7239 H   0  0  0  0  0  0  0  0  0  0  0  0
  5  6  2  0  0  0  0
  5  7  1  0  0  0  0
  2  3  1  0  0  0  0
  2  4  1  0  0  0  0
  2  5  1  0  0  0  0
  1  2  1  0  0  0  0
 26 27  2  0  0  0  0
 26 28  1  0  0  0  0
 23 24  1  0  0  0  0
 23 25  1  0  0  0  0
 20 21  1  0  0  0  0
 20 22  1  0  0  0  0
 20 23  1  0  0  0  0
 17 18  1  0  0  0  0
 17 19  1  0  0  0  0
 17 20  1  0  0  0  0
 14 15  1  0  0  0  0
 14 16  1  0  0  0  0
 14 17  1  0  0  0  0
 11 12  1  0  0  0  0
 11 13  1  0  0  0  0
 11 14  1  0  0  0  0
  9 10  1  0  0  0  0
  9 11  1  0  0  0  0
  9 26  1  0  0  0  0
  7  8  1  0  0  0  0
  7  9  1  0  0  0  0
 30 31  1  0  0  0  0
 30 32  1  0  0  0  0
 30 33  1  0  0  0  0
 28 29  1  0  0  0  0
 28 30  1  0  0  0  0
M  END
$$$$
default_name
  -OEChem-02102213163D

 33 32  0     1  0  0  0  0  0999 V2000
   -3.8420   -3.6918    1.5562 H   0  0  0  0  0  0  0  0  0  0  0  0
   -3.8430   -2.7008    1.1032 C   0  0  0  0  0  0  0  0  0  0  0  0
   -4.5510   -2.0608    1.6242 H   0  0  0  0  0  0  0  0  0  0  0  0
   -4.1140   -2.7798    0.0522 H   0  0  0  0  0  0  0  0  0  0  0  0
   -2.4570   -2.1098    1.2172 C   0  0  0  0  0  0  0  0  0  0  0  0
   -1.5600   -2.7438    1.7572 O   0  0  0  0  0  0  0  0  0  0  0  0
   -2.2870   -0.8898    0.7102 N   0  0  0  0  0  0  0  0  0  0  0  0
   -3.0820   -0.4218    0.2992 H   0  0  0  0  0  0  0  0  0  0  0  0
   -1.0240   -0.1468    0.7262 C   0  0  1  0  0  0  0  0  0  0  0  0
   -0.3583   -0.6100    1.4558 H   0  0  0  0  0  0  0  0  0  0  0  0
   -0.3739   -0.2459   -0.6675 C   0  0  0  0  0  0  0  0  0  0  0  0
    0.2704   -1.1273   -0.6880 H   0  0  0  0  0  0  0  0  0  0  0  0
   -1.1533   -0.3763   -1.4195 H   0  0  0  0  0  0  0  0  0  0  0  0
    0.4789    0.9801   -1.0293 C   0  0  0  0  0  0  0  0  0  0  0  0
    0.2578    1.2913   -2.0507 H   0  0  0  0  0  0  0  0  0  0  0  0
    0.2399    1.7977   -0.3468 H   0  0  0  0  0  0  0  0  0  0  0  0
    1.9738    0.6571   -0.9249 C   0  0  0  0  0  0  0  0  0  0  0  0
    2.2094    0.3363    0.0903 H   0  0  0  0  0  0  0  0  0  0  0  0
    2.2223   -0.1433   -1.6224 H   0  0  0  0  0  0  0  0  0  0  0  0
    2.7972    1.8978   -1.2651 C   0  0  0  0  0  0  0  0  0  0  0  0
    2.5774    2.2090   -2.2851 H   0  0  0  0  0  0  0  0  0  0  0  0
    2.5373    2.7037   -0.5807 H   0  0  0  0  0  0  0  0  0  0  0  0
    4.2355    1.6296   -1.1518 N   0  0  0  0  0  0  0  0  0  0  0  0
    4.7477    2.4643   -1.3964 H   0  0  0  0  0  0  0  0  0  0  0  0
    4.4503    1.3712   -0.1993 H   0  0  0  0  0  0  0  0  0  0  0  0
   -1.2712    1.3099    1.1517 C   0  0  0  0  0  0  0  0  0  0  0  0
   -2.2039    1.9448    0.6639 O   0  0  0  0  0  0  0  0  0  0  0  0
   -0.4306    1.8354    2.0503 N   0  0  0  0  0  0  0  0  0  0  0  0
    0.3001    1.2459    2.4139 H   0  0  0  0  0  0  0  0  0  0  0  0
   -0.5192    3.2082    2.5456 C   0  0  0  0  0  0  0  0  0  0  0  0
   -1.5166    3.3903    2.9518 H   0  0  0  0  0  0  0  0  0  0  0  0
    0.2240    3.3791    3.3257 H   0  0  0  0  0  0  0  0  0  0  0  0
   -0.3477    3.9067    1.7239 H   0  0  0  0  0  0  0  0  0  0  0  0
  5  6  2  0  0  0  0
  5  7  1  0  0  0  0
  2  3  1  0  0  0  0
  2  4  1  0  0  0  0
  2  5  1  0  0  0  0
  1  2  1  0  0  0  0
 26 27  2  0  0  0  0
 26 28  1  0  0  0  0
 23 24  1  0  0  0  0
 23 25  1  0  0  0  0
 20 21  1  0  0  0  0
 20 22  1  0  0  0  0
 20 23  1  0  0  0  0
 17 18  1  0  0  0  0
 17 19  1  0  0  0  0
 17 20  1  0  0  0  0
 14 15  1  0  0  0  0
 14 16  1  0  0  0  0
 14 17  1  0  0  0  0
 11 12  1  0  0  0  0
 11 13  1  0  0  0  0
 11 14  1  0  0  0  0
  9 10  1  0  0  0  0
  9 11  1  0  0  0  0
  9 26  1  0  0  0  0
  7  8  1  0  0  0  0
  7  9  1  0  0  0  0
 30 31  1  0  0  0  0
 30 32  1  0  0  0  0
 30 33  1  0  0  0  0
 28 29  1  0  0  0  0
 28 30  1  0  0  0  0
M  END
$$$$
default_name
  -OEChem-02102213163D

 33 32  0     1  0  0  0  0  0999 V2000
   -3.8420   -3.6918    1.5562 H   0  0  0  0  0  0  0  0  0  0  0  0
   -3.8430   -2.7008    1.1032 C   0  0  0  0  0  0  0  0  0  0  0  0
   -4.5510   -2.0608    1.6242 H   0  0  0  0  0  0  0  0  0  0  0  0
   -4.1140   -2.7798    0.0522 H   0  0  0  0  0  0  0  0  0  0  0  0
   -2.4570   -2.1098    1.2172 C   0  0  0  0  0  0  0  0  0  0  0  0
   -1.5600   -2.7438    1.7572 O   0  0  0  0  0  0  0  0  0  0  0  0
   -2.2870   -0.8898    0.7102 N   0  0  0  0  0  0  0  0  0  0  0  0
   -3.0820   -0.4218    0.2992 H   0  0  0  0  0  0  0  0  0  0  0  0
   -1.0240   -0.1468    0.7262 C   0  0  1  0  0  0  0  0  0  0  0  0
   -0.3583   -0.6100    1.4558 H   0  0  0  0  0  0  0  0  0  0  0  0
   -0.3739   -0.2459   -0.6675 C   0  0  0  0  0  0  0  0  0  0  0  0
    0.2704   -1.1273   -0.6880 H   0  0  0  0  0  0  0  0  0  0  0  0
   -1.1533   -0.3763   -1.4195 H   0  0  0  0  0  0  0  0  0  0  0  0
    0.4789    0.9801   -1.0293 C   0  0  0  0  0  0  0  0  0  0  0  0
    0.0803    1.4508   -1.9284 H   0  0  0  0  0  0  0  0  0  0  0  0
    0.4456    1.6962   -0.2062 H   0  0  0  0  0  0  0  0  0  0  0  0
    1.9351    0.5769   -1.2879 C   0  0  0  0  0  0  0  0  0  0  0  0
    2.3458    0.0970   -0.3991 H   0  0  0  0  0  0  0  0  0  0  0  0
    1.9760   -0.1204   -2.1253 H   0  0  0  0  0  0  0  0  0  0  0  0
    2.7647    1.8155   -1.6206 C   0  0  0  0  0  0  0  0  0  0  0  0
    2.3676    2.2860   -2.5187 H   0  0  0  0  0  0  0  0  0  0  0  0
    2.7105    2.5206   -0.7928 H   0  0  0  0  0  0  0  0  0  0  0  0
    4.1715    1.4677   -1.8512 N   0  0  0  0  0  0  0  0  0  0  0  0
    4.6858    2.3053   -2.0814 H   0  0  0  0  0  0  0  0  0  0  0  0
    4.5541    1.0597   -1.0100 H   0  0  0  0  0  0  0  0  0  0  0  0
   -1.2712    1.3099    1.1517 C   0  0  0  0  0  0  0  0  0  0  0  0
   -2.2039    1.9448    0.6639 O   0  0  0  0  0  0  0  0  0  0  0  0
   -0.4306    1.8354    2.0503 N   0  0  0  0  0  0  0  0  0  0  0  0
    0.3001    1.2459    2.4139 H   0  0  0  0  0  0  0  0  0  0  0  0
   -0.5192    3.2082    2.5456 C   0  0  0  0  0  0  0  0  0  0  0  0
   -1.5166    3.3903    2.9518 H   0  0  0  0  0  0  0  0  0  0  0  0
    0.2240    3.3791    3.3257 H   0  0  0  0  0  0  0  0  0  0  0  0
   -0.3477    3.9067    1.7239 H   0  0  0  0  0  0  0  0  0  0  0  0
  5  6  2  0  0  0  0
  5  7  1  0  0  0  0
  2  3  1  0  0  0  0
  2  4  1  0  0  0  0
  2  5  1  0  0  0  0
  1  2  1  0  0  0  0
 26 27  2  0  0  0  0
 26 28  1  0  0  0  0
 23 24  1  0  0  0  0
 23 25  1  0  0  0  0
 20 21  1  0  0  0  0
 20 22  1  0  0  0  0
 20 23  1  0  0  0  0
 17 18  1  0  0  0  0
 17 19  1  0  0  0  0
 17 20  1  0  0  0  0
 14 15  1  0  0  0  0
 14 16  1  0  0  0  0
 14 17  1  0  0  0  0
 11 12  1  0  0  0  0
 11 13  1  0  0  0  0
 11 14  1  0  0  0  0
  9 10  1  0  0  0  0
  9 11  1  0  0  0  0
  9 26  1  0  0  0  0
  7  8  1  0  0  0  0
  7  9  1  0  0  0  0
 30 31  1  0  0  0  0
 30 32  1  0  0  0  0
 30 33  1  0  0  0  0
 28 29  1  0  0  0  0
 28 30  1  0  0  0  0
M  END
$$$$
default_name
  -OEChem-02102213163D

 33 32  0     1  0  0  0  0  0999 V2000
   -3.8420   -3.6918    1.5562 H   0  0  0  0  0  0  0  0  0  0  0  0
   -3.8430   -2.7008    1.1032 C   0  0  0  0  0  0  0  0  0  0  0  0
   -4.5510   -2.0608    1.6242 H   0  0  0  0  0  0  0  0  0  0  0  0
   -4.1140   -2.7798    0.0522 H   0  0  0  0  0  0  0  0  0  0  0  0
   -2.4570   -2.1098    1.2172 C   0  0  0  0  0  0  0  0  0  0  0  0
   -1.5600   -2.7438    1.7572 O   0  0  0  0  0  0  0  0  0  0  0  0
   -2.2870   -0.8898    0.7102 N   0  0  0  0  0  0  0  0  0  0  0  0
   -3.0820   -0.4218    0.2992 H   0  0  0  0  0  0  0  0  0  0  0  0
   -1.0240   -0.1468    0.7262 C   0  0  1  0  0  0  0  0  0  0  0  0
   -0.3583   -0.6100    1.4558 H   0  0  0  0  0  0  0  0  0  0  0  0
   -0.3739   -0.2459   -0.6675 C   0  0  0  0  0  0  0  0  0  0  0  0
    0.2704   -1.1273   -0.6880 H   0  0  0  0  0  0  0  0  0  0  0  0
   -1.1533   -0.3763   -1.4195 H   0  0  0  0  0  0  0  0  0  0  0  0
    0.4789    0.9801   -1.0293 C   0  0  0  0  0  0  0  0  0  0  0  0
   -0.0562    1.5982   -1.7508 H   0  0  0  0  0  0  0  0  0  0  0  0
    0.6671    1.5653   -0.1274 H   0  0  0  0  0  0  0  0  0  0  0  0
    1.8178    0.5539   -1.6421 C   0  0  0  0  0  0  0  0  0  0  0  0
    2.3620   -0.0723   -0.9344 H   0  0  0  0  0  0  0  0  0  0  0  0
    1.6356   -0.0109   -2.5568 H   0  0  0  0  0  0  0  0  0  0  0  0
    2.6548    1.7890   -1.9691 C   0  0  0  0  0  0  0  0  0  0  0  0
    2.1215    2.4067   -2.6899 H   0  0  0  0  0  0  0  0  0  0  0  0
    2.8228    2.3637   -1.0598 H   0  0  0  0  0  0  0  0  0  0  0  0
    3.9555    1.4156   -2.5367 N   0  0  0  0  0  0  0  0  0  0  0  0
    4.4748    2.2538   -2.7531 H   0  0  0  0  0  0  0  0  0  0  0  0
    4.4679    0.8689   -1.8594 H   0  0  0  0  0  0  0  0  0  0  0  0
   -1.2712    1.3099    1.1517 C   0  0  0  0  0  0  0  0  0  0  0  0
   -2.2039    1.9448    0.6639 O   0  0  0  0  0  0  0  0  0  0  0  0
   -0.4306    1.8354    2.0503 N   0  0  0  0  0  0  0  0  0  0  0  0
    0.3001    1.2459    2.4139 H   0  0  0  0  0  0  0  0  0  0  0  0
   -0.5192    3.2082    2.5456 C   0  0  0  0  0  0  0  0  0  0  0  0
   -1.5166    3.3903    2.9518 H   0  0  0  0  0  0  0  0  0  0  0  0
    0.2240    3.3791    3.3257 H   0  0  0  0  0  0  0  0  0  0  0  0
   -0.3477    3.9067    1.7239 H   0  0  0  0  0  0  0  0  0  0  0  0
  5  6  2  0  0  0  0
  5  7  1  0  0  0  0
  2  3  1  0  0  0  0
  2  4  1  0  0  0  0
  2  5  1  0  0  0  0
  1  2  1  0  0  0  0
 26 27  2  0  0  0  0
 26 28  1  0  0  0  0
 23 24  1  0  0  0  0
 23 25  1  0  0  0  0
 20 21  1  0  0  0  0
 20 22  1  0  0  0  0
 20 23  1  0  0  0  0
 17 18  1  0  0  0  0
 17 19  1  0  0  0  0
 17 20  1  0  0  0  0
 14 15  1  0  0  0  0
 14 16  1  0  0  0  0
 14 17  1  0  0  0  0
 11 12  1  0  0  0  0
 11 13  1  0  0  0  0
 11 14  1  0  0  0  0
  9 10  1  0  0  0  0
  9 11  1  0  0  0  0
  9 26  1  0  0  0  0
  7  8  1  0  0  0  0
  7  9  1  0  0  0  0
 30 31  1  0  0  0  0
 30 32  1  0  0  0  0
 30 33  1  0  0  0  0
 28 29  1  0  0  0  0
 28 30  1  0  0  0  0
M  END
$$$$
default_name
  -OEChem-02102213163D

 33 32  0     1  0  0  0  0  0999 V2000
   -3.8420   -3.6918    1.5562 H   0  0  0  0  0  0  0  0  0  0  0  0
   -3.8430   -2.7008    1.1032 C   0  0  0  0  0  0  0  0  0  0  0  0
   -4.5510   -2.0608    1.6242 H   0  0  0  0  0  0  0  0  0  0  0  0
   -4.1140   -2.7798    0.0522 H   0  0  0  0  0  0  0  0  0  0  0  0
   -2.4570   -2.1098    1.2172 C   0  0  0  0  0  0  0  0  0  0  0  0
   -1.5600   -2.7438    1.7572 O   0  0  0  0  0  0  0  0  0  0  0  0
   -2.2870   -0.8898    0.7102 N   0  0  0  0  0  0  0  0  0  0  0  0
   -3.0820   -0.4218    0.2992 H   0  0  0  0  0  0  0  0  0  0  0  0
   -1.0240   -0.1468    0.7262 C   0  0  1  0  0  0  0  0  0  0  0  0
   -0.3583   -0.6100    1.4558 H   0  0  0  0  0  0  0  0  0  0  0  0
   -0.3739   -0.2459   -0.6675 C   0  0  0  0  0  0  0  0  0  0  0  0
    0.2704   -1.1273   -0.6880 H   0  0  0  0  0  0  0  0  0  0  0  0
   -1.1533   -0.3763   -1.4195 H   0  0  0  0  0  0  0  0  0  0  0  0
    0.4789    0.9801   -1.0293 C   0  0  0  0  0  0  0  0  0  0  0  0
   -0.1423    1.7233   -1.5299 H   0  0  0  0  0  0  0  0  0  0  0  0
    0.8894    1.4141   -0.1158 H   0  0  0  0  0  0  0  0  0  0  0  0
    1.6300    0.5897   -1.9633 C   0  0  0  0  0  0  0  0  0  0  0  0
    2.2567   -0.1598   -1.4791 H   0  0  0  0  0  0  0  0  0  0  0  0
    1.2244    0.1775   -2.8877 H   0  0  0  0  0  0  0  0  0  0  0  0
    2.4752    1.8203   -2.2868 C   0  0  0  0  0  0  0  0  0  0  0  0
    1.8557    2.5629   -2.7872 H   0  0  0  0  0  0  0  0  0  0  0  0
    2.8666    2.2437   -1.3633 H   0  0  0  0  0  0  0  0  0  0  0  0
    3.6021    1.4770   -3.1618 N   0  0  0  0  0  0  0  0  0  0  0  0
    4.1291    2.3134   -3.3657 H   0  0  0  0  0  0  0  0  0  0  0  0
    4.1977    0.8119   -2.6894 H   0  0  0  0  0  0  0  0  0  0  0  0
   -1.2712    1.3099    1.1517 C   0  0  0  0  0  0  0  0  0  0  0  0
   -2.2039    1.9448    0.6639 O   0  0  0  0  0  0  0  0  0  0  0  0
   -0.4306    1.8354    2.0503 N   0  0  0  0  0  0  0  0  0  0  0  0
    0.3001    1.2459    2.4139 H   0  0  0  0  0  0  0  0  0  0  0  0
   -0.5192    3.2082    2.5456 C   0  0  0  0  0  0  0  0  0  0  0  0
   -1.5166    3.3903    2.9518 H   0  0  0  0  0  0  0  0  0  0  0  0
    0.2240    3.3791    3.3257 H   0  0  0  0  0  0  0  0  0  0  0  0
   -0.3477    3.9067    1.7239 H   0  0  0  0  0  0  0  0  0  0  0  0
  5  6  2  0  0  0  0
  5  7  1  0  0  0  0
  2  3  1  0  0  0  0
  2  4  1  0  0  0  0
  2  5  1  0  0  0  0
  1  2  1  0  0  0  0
 26 27  2  0  0  0  0
 26 28  1  0  0  0  0
 23 24  1  0  0  0  0
 23 25  1  0  0  0  0
 20 21  1  0  0  0  0
 20 22  1  0  0  0  0
 20 23  1  0  0  0  0
 17 18  1  0  0  0  0
 17 19  1  0  0  0  0
 17 20  1  0  0  0  0
 14 15  1  0  0  0  0
 14 16  1  0  0  0  0
 14 17  1  0  0  0  0
 11 12  1  0  0  0  0
 11 13  1  0  0  0  0
 11 14  1  0  0  0  0
  9 10  1  0  0  0  0
  9 11  1  0  0  0  0
  9 26  1  0  0  0  0
  7  8  1  0  0  0  0
  7  9  1  0  0  0  0
 30 31  1  0  0  0  0
 30 32  1  0  0  0  0
 30 33  1  0  0  0  0
 28 29  1  0  0  0  0
 28 30  1  0  0  0  0
M  END
$$$$
default_name
  -OEChem-02102213163D

 33 32  0     1  0  0  0  0  0999 V2000
   -3.8420   -3.6918    1.5562 H   0  0  0  0  0  0  0  0  0  0  0  0
   -3.8430   -2.7008    1.1032 C   0  0  0  0  0  0  0  0  0  0  0  0
   -4.5510   -2.0608    1.6242 H   0  0  0  0  0  0  0  0  0  0  0  0
   -4.1140   -2.7798    0.0522 H   0  0  0  0  0  0  0  0  0  0  0  0
   -2.4570   -2.1098    1.2172 C   0  0  0  0  0  0  0  0  0  0  0  0
   -1.5600   -2.7438    1.7572 O   0  0  0  0  0  0  0  0  0  0  0  0
   -2.2870   -0.8898    0.7102 N   0  0  0  0  0  0  0  0  0  0  0  0
   -3.0820   -0.4218    0.2992 H   0  0  0  0  0  0  0  0  0  0  0  0
   -1.0240   -0.1468    0.7262 C   0  0  1  0  0  0  0  0  0  0  0  0
   -0.3583   -0.6100    1.4558 H   0  0  0  0  0  0  0  0  0  0  0  0
   -0.3739   -0.2459   -0.6675 C   0  0  0  0  0  0  0  0  0  0  0  0
    0.2704   -1.1273   -0.6880 H   0  0  0  0  0  0  0  0  0  0  0  0
   -1.1533   -0.3763   -1.4195 H   0  0  0  0  0  0  0  0  0  0  0  0
    0.4789    0.9801   -1.0293 C   0  0  0  0  0  0  0  0  0  0  0  0
   -0.1723    1.8177   -1.2807 H   0  0  0  0  0  0  0  0  0  0  0  0
    1.0973    1.2528   -0.1722 H   0  0  0  0  0  0  0  0  0  0  0  0
    1.3845    0.6819   -2.2296 C   0  0  0  0  0  0  0  0  0  0  0  0
    2.0373   -0.1597   -1.9961 H   0  0  0  0  0  0  0  0  0  0  0  0
    0.7703    0.4321   -3.0953 H   0  0  0  0  0  0  0  0  0  0  0  0
    2.2379    1.9070   -2.5521 C   0  0  0  0  0  0  0  0  0  0  0  0
    1.5884    2.7439   -2.8038 H   0  0  0  0  0  0  0  0  0  0  0  0
    2.8389    2.1687   -1.6828 H   0  0  0  0  0  0  0  0  0  0  0  0
    3.1354    1.6476   -3.6838 N   0  0  0  0  0  0  0  0  0  0  0  0
    3.6724    2.4801   -3.8775 H   0  0  0  0  0  0  0  0  0  0  0  0
    3.7619    0.8926   -3.4435 H   0  0  0  0  0  0  0  0  0  0  0  0
   -1.2712    1.3099    1.1517 C   0  0  0  0  0  0  0  0  0  0  0  0
   -2.2039    1.9448    0.6639 O   0  0  0  0  0  0  0  0  0  0  0  0
   -0.4306    1.8354    2.0503 N   0  0  0  0  0  0  0  0  0  0  0  0
    0.3001    1.2459    2.4139 H   0  0  0  0  0  0  0  0  0  0  0  0
   -0.5192    3.2082    2.5456 C   0  0  0  0  0  0  0  0  0  0  0  0
   -1.5166    3.3903    2.9518 H   0  0  0  0  0  0  0  0  0  0  0  0
    0.2240    3.3791    3.3257 H   0  0  0  0  0  0  0  0  0  0  0  0
   -0.3477    3.9067    1.7239 H   0  0  0  0  0  0  0  0  0  0  0  0
  5  6  2  0  0  0  0
  5  7  1  0  0  0  0
  2  3  1  0  0  0  0
  2  4  1  0  0  0  0
  2  5  1  0  0  0  0
  1  2  1  0  0  0  0
 26 27  2  0  0  0  0
 26 28  1  0  0  0  0
 23 24  1  0  0  0  0
 23 25  1  0  0  0  0
 20 21  1  0  0  0  0
 20 22  1  0  0  0  0
 20 23  1  0  0  0  0
 17 18  1  0  0  0  0
 17 19  1  0  0  0  0
 17 20  1  0  0  0  0
 14 15  1  0  0  0  0
 14 16  1  0  0  0  0
 14 17  1  0  0  0  0
 11 12  1  0  0  0  0
 11 13  1  0  0  0  0
 11 14  1  0  0  0  0
  9 10  1  0  0  0  0
  9 11  1  0  0  0  0
  9 26  1  0  0  0  0
  7  8  1  0  0  0  0
  7  9  1  0  0  0  0
 30 31  1  0  0  0  0
 30 32  1  0  0  0  0
 30 33  1  0  0  0  0
 28 29  1  0  0  0  0
 28 30  1  0  0  0  0
M  END
$$$$
default_name
  -OEChem-02102213163D

 33 32  0     1  0  0  0  0  0999 V2000
   -3.8420   -3.6918    1.5562 H   0  0  0  0  0  0  0  0  0  0  0  0
   -3.8430   -2.7008    1.1032 C   0  0  0  0  0  0  0  0  0  0  0  0
   -4.5510   -2.0608    1.6242 H   0  0  0  0  0  0  0  0  0  0  0  0
   -4.1140   -2.7798    0.0522 H   0  0  0  0  0  0  0  0  0  0  0  0
   -2.4570   -2.1098    1.2172 C   0  0  0  0  0  0  0  0  0  0  0  0
   -1.5600   -2.7438    1.7572 O   0  0  0  0  0  0  0  0  0  0  0  0
   -2.2870   -0.8898    0.7102 N   0  0  0  0  0  0  0  0  0  0  0  0
   -3.0820   -0.4218    0.2992 H   0  0  0  0  0  0  0  0  0  0  0  0
   -1.0240   -0.1468    0.7262 C   0  0  1  0  0  0  0  0  0  0  0  0
   -0.3583   -0.6100    1.4558 H   0  0  0  0  0  0  0  0  0  0  0  0
   -0.3739   -0.2459   -0.6675 C   0  0  0  0  0  0  0  0  0  0  0  0
    0.0475   -1.2466   -0.7835 H   0  0  0  0  0  0  0  0  0  0  0  0
   -1.1396   -0.1081   -1.4321 H   0  0  0  0  0  0  0  0  0  0  0  0
    0.7516    0.7769   -0.8877 C   0  0  0  0  0  0  0  0  0  0  0  0
    0.3545    1.7867   -0.7815 H   0  0  0  0  0  0  0  0  0  0  0  0
    1.5314    0.6190   -0.1403 H   0  0  0  0  0  0  0  0  0  0  0  0
    1.3583    0.6302   -2.2877 C   0  0  0  0  0  0  0  0  0  0  0  0
    1.7533   -0.3785   -2.4121 H   0  0  0  0  0  0  0  0  0  0  0  0
    0.5882    0.8106   -3.0384 H   0  0  0  0  0  0  0  0  0  0  0  0
    2.4893    1.6403   -2.4711 C   0  0  0  0  0  0  0  0  0  0  0  0
    2.0935    2.6492   -2.3657 H   0  0  0  0  0  0  0  0  0  0  0  0
    3.2509    1.4730   -1.7112 H   0  0  0  0  0  0  0  0  0  0  0  0
    3.1090    1.5110   -3.7949 N   0  0  0  0  0  0  0  0  0  0  0  0
    3.8405    2.2007   -3.8863 H   0  0  0  0  0  0  0  0  0  0  0  0
    3.5062    0.5868   -3.8860 H   0  0  0  0  0  0  0  0  0  0  0  0
   -1.2712    1.3099    1.1517 C   0  0  0  0  0  0  0  0  0  0  0  0
   -2.2039    1.9448    0.6639 O   0  0  0  0  0  0  0  0  0  0  0  0
   -0.4306    1.8354    2.0503 N   0  0  0  0  0  0  0  0  0  0  0  0
    0.3001    1.2459    2.4139 H   0  0  0  0  0  0  0  0  0  0  0  0
   -0.5192    3.2082    2.5456 C   0  0  0  0  0  0  0  0  0  0  0  0
   -1.5166    3.3903    2.9518 H   0  0  0  0  0  0  0  0  0  0  0  0
    0.2240    3.3791    3.3257 H   0  0  0  0  0  0  0  0  0  0  0  0
   -0.3477    3.9067    1.7239 H   0  0  0  0  0  0  0  0  0  0  0  0
  5  6  2  0  0  0  0
  5  7  1  0  0  0  0
  2  3  1  0  0  0  0
  2  4  1  0  0  0  0
  2  5  1  0  0  0  0
  1  2  1  0  0  0  0
 26 27  2  0  0  0  0
 26 28  1  0  0  0  0
 23 24  1  0  0  0  0
 23 25  1  0  0  0  0
 20 21  1  0  0  0  0
 20 22  1  0  0  0  0
 20 23  1  0  0  0  0
 17 18  1  0  0  0  0
 17 19  1  0  0  0  0
 17 20  1  0  0  0  0
 14 15  1  0  0  0  0
 14 16  1  0  0  0  0
 14 17  1  0  0  0  0
 11 12  1  0  0  0  0
 11 13  1  0  0  0  0
 11 14  1  0  0  0  0
  9 10  1  0  0  0  0
  9 11  1  0  0  0  0
  9 26  1  0  0  0  0
  7  8  1  0  0  0  0
  7  9  1  0  0  0  0
 30 31  1  0  0  0  0
 30 32  1  0  0  0  0
 30 33  1  0  0  0  0
 28 29  1  0  0  0  0
 28 30  1  0  0  0  0
M  END
$$$$
default_name
  -OEChem-02102213163D

 33 32  0     1  0  0  0  0  0999 V2000
   -3.8420   -3.6918    1.5562 H   0  0  0  0  0  0  0  0  0  0  0  0
   -3.8430   -2.7008    1.1032 C   0  0  0  0  0  0  0  0  0  0  0  0
   -4.5510   -2.0608    1.6242 H   0  0  0  0  0  0  0  0  0  0  0  0
   -4.1140   -2.7798    0.0522 H   0  0  0  0  0  0  0  0  0  0  0  0
   -2.4570   -2.1098    1.2172 C   0  0  0  0  0  0  0  0  0  0  0  0
   -1.5600   -2.7438    1.7572 O   0  0  0  0  0  0  0  0  0  0  0  0
   -2.2870   -0.8898    0.7102 N   0  0  0  0  0  0  0  0  0  0  0  0
   -3.0820   -0.4218    0.2992 H   0  0  0  0  0  0  0  0  0  0  0  0
   -1.0240   -0.1468    0.7262 C   0  0  1  0  0  0  0  0  0  0  0  0
   -0.3583   -0.6100    1.4558 H   0  0  0  0  0  0  0  0  0  0  0  0
   -0.3739   -0.2459   -0.6675 C   0  0  0  0  0  0  0  0  0  0  0  0
    0.0475   -1.2466   -0.7835 H   0  0  0  0  0  0  0  0  0  0  0  0
   -1.1396   -0.1081   -1.4321 H   0  0  0  0  0  0  0  0  0  0  0  0
    0.7516    0.7769   -0.8877 C   0  0  0  0  0  0  0  0  0  0  0  0
    0.4329    1.7552   -0.5270 H   0  0  0  0  0  0  0  0  0  0  0  0
    1.6366    0.4619   -0.3318 H   0  0  0  0  0  0  0  0  0  0  0  0
    1.1047    0.8905   -2.3750 C   0  0  0  0  0  0  0  0  0  0  0  0
    1.4183   -0.0832   -2.7527 H   0  0  0  0  0  0  0  0  0  0  0  0
    0.2298    1.2280   -2.9316 H   0  0  0  0  0  0  0  0  0  0  0  0
    2.2411    1.8936   -2.5629 C   0  0  0  0  0  0  0  0  0  0  0  0
    1.9236    2.8711   -2.2034 H   0  0  0  0  0  0  0  0  0  0  0  0
    3.1098    1.5674   -1.9934 H   0  0  0  0  0  0  0  0  0  0  0  0
    2.6208    2.0094   -3.9756 N   0  0  0  0  0  0  0  0  0  0  0  0
    3.3623    2.6886   -4.0641 H   0  0  0  0  0  0  0  0  0  0  0  0
    2.9467    1.1121   -4.3057 H   0  0  0  0  0  0  0  0  0  0  0  0
   -1.2712    1.3099    1.1517 C   0  0  0  0  0  0  0  0  0  0  0  0
   -2.2039    1.9448    0.6639 O   0  0  0  0  0  0  0  0  0  0  0  0
   -0.4306    1.8354    2.0503 N   0  0  0  0  0  0  0  0  0  0  0  0
    0.3001    1.2459    2.4139 H   0  0  0  0  0  0  0  0  0  0  0  0
   -0.5192    3.2082    2.5456 C   0  0  0  0  0  0  0  0  0  0  0  0
   -1.5166    3.3903    2.9518 H   0  0  0  0  0  0  0  0  0  0  0  0
    0.2240    3.3791    3.3257 H   0  0  0  0  0  0  0  0  0  0  0  0
   -0.3477    3.9067    1.7239 H   0  0  0  0  0  0  0  0  0  0  0  0
  5  6  2  0  0  0  0
  5  7  1  0  0  0  0
  2  3  1  0  0  0  0
  2  4  1  0  0  0  0
  2  5  1  0  0  0  0
  1  2  1  0  0  0  0
 26 27  2  0  0  0  0
 26 28  1  0  0  0  0
 23 24  1  0  0  0  0
 23 25  1  0  0  0  0
 20 21  1  0  0  0  0
 20 22  1  0  0  0  0
 20 23  1  0  0  0  0
 17 18  1  0  0  0  0
 17 19  1  0  0  0  0
 17 20  1  0  0  0  0
 14 15  1  0  0  0  0
 14 16  1  0  0  0  0
 14 17  1  0  0  0  0
 11 12  1  0  0  0  0
 11 13  1  0  0  0  0
 11 14  1  0  0  0  0
  9 10  1  0  0  0  0
  9 11  1  0  0  0  0
  9 26  1  0  0  0  0
  7  8  1  0  0  0  0
  7  9  1  0  0  0  0
 30 31  1  0  0  0  0
 30 32  1  0  0  0  0
 30 33  1  0  0  0  0
 28 29  1  0  0  0  0
 28 30  1  0  0  0  0
M  END
$$$$
default_name
  -OEChem-02102213163D

 33 32  0     1  0  0  0  0  0999 V2000
   -3.8420   -3.6918    1.5562 H   0  0  0  0  0  0  0  0  0  0  0  0
   -3.8430   -2.7008    1.1032 C   0  0  0  0  0  0  0  0  0  0  0  0
   -4.5510   -2.0608    1.6242 H   0  0  0  0  0  0  0  0  0  0  0  0
   -4.1140   -2.7798    0.0522 H   0  0  0  0  0  0  0  0  0  0  0  0
   -2.4570   -2.1098    1.2172 C   0  0  0  0  0  0  0  0  0  0  0  0
   -1.5600   -2.7438    1.7572 O   0  0  0  0  0  0  0  0  0  0  0  0
   -2.2870   -0.8898    0.7102 N   0  0  0  0  0  0  0  0  0  0  0  0
   -3.0820   -0.4218    0.2992 H   0  0  0  0  0  0  0  0  0  0  0  0
   -1.0240   -0.1468    0.7262 C   0  0  1  0  0  0  0  0  0  0  0  0
   -0.3583   -0.6100    1.4558 H   0  0  0  0  0  0  0  0  0  0  0  0
   -0.3739   -0.2459   -0.6675 C   0  0  0  0  0  0  0  0  0  0  0  0
    0.0475   -1.2466   -0.7835 H   0  0  0  0  0  0  0  0  0  0  0  0
   -1.1396   -0.1081   -1.4321 H   0  0  0  0  0  0  0  0  0  0  0  0
    0.7516    0.7769   -0.8877 C   0  0  0  0  0  0  0  0  0  0  0  0
    0.5513    1.6736   -0.3007 H   0  0  0  0  0  0  0  0  0  0  0  0
    1.6995    0.3426   -0.5646 H   0  0  0  0  0  0  0  0  0  0  0  0
    0.8543    1.1679   -2.3663 C   0  0  0  0  0  0  0  0  0  0  0  0
    1.0470    0.2791   -2.9679 H   0  0  0  0  0  0  0  0  0  0  0  0
   -0.0825    1.6242   -2.6876 H   0  0  0  0  0  0  0  0  0  0  0  0
    1.9950    2.1650   -2.5608 C   0  0  0  0  0  0  0  0  0  0  0  0
    1.7955    3.0611   -1.9754 H   0  0  0  0  0  0  0  0  0  0  0  0
    2.9285    1.7173   -2.2239 H   0  0  0  0  0  0  0  0  0  0  0  0
    2.1366    2.5431   -3.9716 N   0  0  0  0  0  0  0  0  0  0  0  0
    2.8879    3.2114   -4.0609 H   0  0  0  0  0  0  0  0  0  0  0  0
    2.3534    1.7199   -4.5151 H   0  0  0  0  0  0  0  0  0  0  0  0
   -1.2712    1.3099    1.1517 C   0  0  0  0  0  0  0  0  0  0  0  0
   -2.2039    1.9448    0.6639 O   0  0  0  0  0  0  0  0  0  0  0  0
   -0.4306    1.8354    2.0503 N   0  0  0  0  0  0  0  0  0  0  0  0
    0.3001    1.2459    2.4139 H   0  0  0  0  0  0  0  0  0  0  0  0
   -0.5192    3.2082    2.5456 C   0  0  0  0  0  0  0  0  0  0  0  0
   -1.5166    3.3903    2.9518 H   0  0  0  0  0  0  0  0  0  0  0  0
    0.2240    3.3791    3.3257 H   0  0  0  0  0  0  0  0  0  0  0  0
   -0.3477    3.9067    1.7239 H   0  0  0  0  0  0  0  0  0  0  0  0
  5  6  2  0  0  0  0
  5  7  1  0  0  0  0
  2  3  1  0  0  0  0
  2  4  1  0  0  0  0
  2  5  1  0  0  0  0
  1  2  1  0  0  0  0
 26 27  2  0  0  0  0
 26 28  1  0  0  0  0
 23 24  1  0  0  0  0
 23 25  1  0  0  0  0
 20 21  1  0  0  0  0
 20 22  1  0  0  0  0
 20 23  1  0  0  0  0
 17 18  1  0  0  0  0
 17 19  1  0  0  0  0
 17 20  1  0  0  0  0
 14 15  1  0  0  0  0
 14 16  1  0  0  0  0
 14 17  1  0  0  0  0
 11 12  1  0  0  0  0
 11 13  1  0  0  0  0
 11 14  1  0  0  0  0
  9 10  1  0  0  0  0
  9 11  1  0  0  0  0
  9 26  1  0  0  0  0
  7  8  1  0  0  0  0
  7  9  1  0  0  0  0
 30 31  1  0  0  0  0
 30 32  1  0  0  0  0
 30 33  1  0  0  0  0
 28 29  1  0  0  0  0
 28 30  1  0  0  0  0
M  END
$$$$
default_name
  -OEChem-02102213163D

 33 32  0     1  0  0  0  0  0999 V2000
   -3.8420   -3.6918    1.5562 H   0  0  0  0  0  0  0  0  0  0  0  0
   -3.8430   -2.7008    1.1032 C   0  0  0  0  0  0  0  0  0  0  0  0
   -4.5510   -2.0608    1.6242 H   0  0  0  0  0  0  0  0  0  0  0  0
   -4.1140   -2.7798    0.0522 H   0  0  0  0  0  0  0  0  0  0  0  0
   -2.4570   -2.1098    1.2172 C   0  0  0  0  0  0  0  0  0  0  0  0
   -1.5600   -2.7438    1.7572 O   0  0  0  0  0  0  0  0  0  0  0  0
   -2.2870   -0.8898    0.7102 N   0  0  0  0  0  0  0  0  0  0  0  0
   -3.0820   -0.4218    0.2992 H   0  0  0  0  0  0  0  0  0  0  0  0
   -1.0240   -0.1468    0.7262 C   0  0  1  0  0  0  0  0  0  0  0  0
   -0.3583   -0.6100    1.4558 H   0  0  0  0  0  0  0  0  0  0  0  0
   -0.3739   -0.2459   -0.6675 C   0  0  0  0  0  0  0  0  0  0  0  0
    0.0475   -1.2466   -0.7835 H   0  0  0  0  0  0  0  0  0  0  0  0
   -1.1396   -0.1081   -1.4321 H   0  0  0  0  0  0  0  0  0  0  0  0
    0.7516    0.7769   -0.8877 C   0  0  0  0  0  0  0  0  0  0  0  0
    0.7016    1.5476   -0.1180 H   0  0  0  0  0  0  0  0  0  0  0  0
    1.7157    0.2691   -0.8230 H   0  0  0  0  0  0  0  0  0  0  0  0
    0.6242    1.4435   -2.2621 C   0  0  0  0  0  0  0  0  0  0  0  0
    0.6647    0.6836   -3.0432 H   0  0  0  0  0  0  0  0  0  0  0  0
   -0.3274    1.9722   -2.3230 H   0  0  0  0  0  0  0  0  0  0  0  0
    1.7676    2.4358   -2.4650 C   0  0  0  0  0  0  0  0  0  0  0  0
    1.7182    3.2061   -1.6971 H   0  0  0  0  0  0  0  0  0  0  0  0
    2.7192    1.9126   -2.3869 H   0  0  0  0  0  0  0  0  0  0  0  0
    1.6893    3.0759   -3.7831 N   0  0  0  0  0  0  0  0  0  0  0  0
    2.4496    3.7333   -3.8771 H   0  0  0  0  0  0  0  0  0  0  0  0
    1.7669    2.3686   -4.5000 H   0  0  0  0  0  0  0  0  0  0  0  0
   -1.2712    1.3099    1.1517 C   0  0  0  0  0  0  0  0  0  0  0  0
   -2.2039    1.9448    0.6639 O   0  0  0  0  0  0  0  0  0  0  0  0
   -0.4306    1.8354    2.0503 N   0  0  0  0  0  0  0  0  0  0  0  0
    0.3001    1.2459    2.4139 H   0  0  0  0  0  0  0  0  0  0  0  0
   -0.5192    3.2082    2.5456 C   0  0  0  0  0  0  0  0  0  0  0  0
   -1.5166    3.3903    2.9518 H   0  0  0  0  0  0  0  0  0  0  0  0
    0.2240    3.3791    3.3257 H   0  0  0  0  0  0  0  0  0  0  0  0
   -0.3477    3.9067    1.7239 H   0  0  0  0  0  0  0  0  0  0  0  0
  5  6  2  0  0  0  0
  5  7  1  0  0  0  0
  2  3  1  0  0  0  0
  2  4  1  0  0  0  0
  2  5  1  0  0  0  0
  1  2  1  0  0  0  0
 26 27  2  0  0  0  0
 26 28  1  0  0  0  0
 23 24  1  0  0  0  0
 23 25  1  0  0  0  0
 20 21  1  0  0  0  0
 20 22  1  0  0  0  0
 20 23  1  0  0  0  0
 17 18  1  0  0  0  0
 17 19  1  0  0  0  0
 17 20  1  0  0  0  0
 14 15  1  0  0  0  0
 14 16  1  0  0  0  0
 14 17  1  0  0  0  0
 11 12  1  0  0  0  0
 11 13  1  0  0  0  0
 11 14  1  0  0  0  0
  9 10  1  0  0  0  0
  9 11  1  0  0  0  0
  9 26  1  0  0  0  0
  7  8  1  0  0  0  0
  7  9  1  0  0  0  0
 30 31  1  0  0  0  0
 30 32  1  0  0  0  0
 30 33  1  0  0  0  0
 28 29  1  0  0  0  0
 28 30  1  0  0  0  0
M  END
$$$$
default_name
  -OEChem-02102213163D

 33 32  0     1  0  0  0  0  0999 V2000
   -3.8420   -3.6918    1.5562 H   0  0  0  0  0  0  0  0  0  0  0  0
   -3.8430   -2.7008    1.1032 C   0  0  0  0  0  0  0  0  0  0  0  0
   -4.5510   -2.0608    1.6242 H   0  0  0  0  0  0  0  0  0  0  0  0
   -4.1140   -2.7798    0.0522 H   0  0  0  0  0  0  0  0  0  0  0  0
   -2.4570   -2.1098    1.2172 C   0  0  0  0  0  0  0  0  0  0  0  0
   -1.5600   -2.7438    1.7572 O   0  0  0  0  0  0  0  0  0  0  0  0
   -2.2870   -0.8898    0.7102 N   0  0  0  0  0  0  0  0  0  0  0  0
   -3.0820   -0.4218    0.2992 H   0  0  0  0  0  0  0  0  0  0  0  0
   -1.0240   -0.1468    0.7262 C   0  0  1  0  0  0  0  0  0  0  0  0
   -0.3583   -0.6100    1.4558 H   0  0  0  0  0  0  0  0  0  0  0  0
   -0.3739   -0.2459   -0.6675 C   0  0  0  0  0  0  0  0  0  0  0  0
    0.0475   -1.2466   -0.7835 H   0  0  0  0  0  0  0  0  0  0  0  0
   -1.1396   -0.1081   -1.4321 H   0  0  0  0  0  0  0  0  0  0  0  0
    0.7516    0.7769   -0.8877 C   0  0  0  0  0  0  0  0  0  0  0  0
    0.8736    1.3855    0.0087 H   0  0  0  0  0  0  0  0  0  0  0  0
    1.6841    0.2466   -1.0893 H   0  0  0  0  0  0  0  0  0  0  0  0
    0.4302    1.6985   -2.0697 C   0  0  0  0  0  0  0  0  0  0  0  0
    0.2975    1.1028   -2.9733 H   0  0  0  0  0  0  0  0  0  0  0  0
   -0.4883    2.2484   -1.8626 H   0  0  0  0  0  0  0  0  0  0  0  0
    1.5746    2.6876   -2.2819 C   0  0  0  0  0  0  0  0  0  0  0  0
    1.6969    3.2963   -1.3874 H   0  0  0  0  0  0  0  0  0  0  0  0
    2.4963    2.1398   -2.4712 H   0  0  0  0  0  0  0  0  0  0  0  0
    1.3096    3.5714   -3.4230 N   0  0  0  0  0  0  0  0  0  0  0  0
    2.0773    4.2188   -3.5250 H   0  0  0  0  0  0  0  0  0  0  0  0
    1.2270    3.0141   -4.2614 H   0  0  0  0  0  0  0  0  0  0  0  0
   -1.2712    1.3099    1.1517 C   0  0  0  0  0  0  0  0  0  0  0  0
   -2.2039    1.9448    0.6639 O   0  0  0  0  0  0  0  0  0  0  0  0
   -0.4306    1.8354    2.0503 N   0  0  0  0  0  0  0  0  0  0  0  0
    0.3001    1.2459    2.4139 H   0  0  0  0  0  0  0  0  0  0  0  0
   -0.5192    3.2082    2.5456 C   0  0  0  0  0  0  0  0  0  0  0  0
   -1.5166    3.3903    2.9518 H   0  0  0  0  0  0  0  0  0  0  0  0
    0.2240    3.3791    3.3257 H   0  0  0  0  0  0  0  0  0  0  0  0
   -0.3477    3.9067    1.7239 H   0  0  0  0  0  0  0  0  0  0  0  0
  5  6  2  0  0  0  0
  5  7  1  0  0  0  0
  2  3  1  0  0  0  0
  2  4  1  0  0  0  0
  2  5  1  0  0  0  0
  1  2  1  0  0  0  0
 26 27  2  0  0  0  0
 26 28  1  0  0  0  0
 23 24  1  0  0  0  0
 23 25  1  0  0  0  0
 20 21  1  0  0  0  0
 20 22  1  0  0  0  0
 20 23  1  0  0  0  0
 17 18  1  0  0  0  0
 17 19  1  0  0  0  0
 17 20  1  0  0  0  0
 14 15  1  0  0  0  0
 14 16  1  0  0  0  0
 14 17  1  0  0  0  0
 11 12  1  0  0  0  0
 11 13  1  0  0  0  0
 11 14  1  0  0  0  0
  9 10  1  0  0  0  0
  9 11  1  0  0  0  0
  9 26  1  0  0  0  0
  7  8  1  0  0  0  0
  7  9  1  0  0  0  0
 30 31  1  0  0  0  0
 30 32  1  0  0  0  0
 30 33  1  0  0  0  0
 28 29  1  0  0  0  0
 28 30  1  0  0  0  0
M  END
$$$$
default_name
  -OEChem-02102213163D

 33 32  0     1  0  0  0  0  0999 V2000
   -3.8420   -3.6918    1.5562 H   0  0  0  0  0  0  0  0  0  0  0  0
   -3.8430   -2.7008    1.1032 C   0  0  0  0  0  0  0  0  0  0  0  0
   -4.5510   -2.0608    1.6242 H   0  0  0  0  0  0  0  0  0  0  0  0
   -4.1140   -2.7798    0.0522 H   0  0  0  0  0  0  0  0  0  0  0  0
   -2.4570   -2.1098    1.2172 C   0  0  0  0  0  0  0  0  0  0  0  0
   -1.5600   -2.7438    1.7572 O   0  0  0  0  0  0  0  0  0  0  0  0
   -2.2870   -0.8898    0.7102 N   0  0  0  0  0  0  0  0  0  0  0  0
   -3.0820   -0.4218    0.2992 H   0  0  0  0  0  0  0  0  0  0  0  0
   -1.0240   -0.1468    0.7262 C   0  0  1  0  0  0  0  0  0  0  0  0
   -0.3583   -0.6100    1.4558 H   0  0  0  0  0  0  0  0  0  0  0  0
   -0.3739   -0.2459   -0.6675 C   0  0  0  0  0  0  0  0  0  0  0  0
    0.0475   -1.2466   -0.7835 H   0  0  0  0  0  0  0  0  0  0  0  0
   -1.1396   -0.1081   -1.4321 H   0  0  0  0  0  0  0  0  0  0  0  0
    0.7516    0.7769   -0.8877 C   0  0  0  0  0  0  0  0  0  0  0  0
    1.0556    1.1986    0.0707 H   0  0  0  0  0  0  0  0  0  0  0  0
    1.6069    0.2764   -1.3453 H   0  0  0  0  0  0  0  0  0  0  0  0
    0.2854    1.9155   -1.8020 C   0  0  0  0  0  0  0  0  0  0  0  0
   -0.0297    1.5081   -2.7631 H   0  0  0  0  0  0  0  0  0  0  0  0
   -0.5541    2.4338   -1.3378 H   0  0  0  0  0  0  0  0  0  0  0  0
    1.4290    2.9033   -2.0240 C   0  0  0  0  0  0  0  0  0  0  0  0
    1.7329    3.3254   -1.0675 H   0  0  0  0  0  0  0  0  0  0  0  0
    2.2748    2.3835   -2.4712 H   0  0  0  0  0  0  0  0  0  0  0  0
    1.0231    3.9958   -2.9158 N   0  0  0  0  0  0  0  0  0  0  0  0
    1.7963    4.6349   -3.0288 H   0  0  0  0  0  0  0  0  0  0  0  0
    0.7705    3.6125   -3.8156 H   0  0  0  0  0  0  0  0  0  0  0  0
   -1.2712    1.3099    1.1517 C   0  0  0  0  0  0  0  0  0  0  0  0
   -2.2039    1.9448    0.6639 O   0  0  0  0  0  0  0  0  0  0  0  0
   -0.4306    1.8354    2.0503 N   0  0  0  0  0  0  0  0  0  0  0  0
    0.3001    1.2459    2.4139 H   0  0  0  0  0  0  0  0  0  0  0  0
   -0.5192    3.2082    2.5456 C   0  0  0  0  0  0  0  0  0  0  0  0
   -1.5166    3.3903    2.9518 H   0  0  0  0  0  0  0  0  0  0  0  0
    0.2240    3.3791    3.3257 H   0  0  0  0  0  0  0  0  0  0  0  0
   -0.3477    3.9067    1.7239 H   0  0  0  0  0  0  0  0  0  0  0  0
  5  6  2  0  0  0  0
  5  7  1  0  0  0  0
  2  3  1  0  0  0  0
  2  4  1  0  0  0  0
  2  5  1  0  0  0  0
  1  2  1  0  0  0  0
 26 27  2  0  0  0  0
 26 28  1  0  0  0  0
 23 24  1  0  0  0  0
 23 25  1  0  0  0  0
 20 21  1  0  0  0  0
 20 22  1  0  0  0  0
 20 23  1  0  0  0  0
 17 18  1  0  0  0  0
 17 19  1  0  0  0  0
 17 20  1  0  0  0  0
 14 15  1  0  0  0  0
 14 16  1  0  0  0  0
 14 17  1  0  0  0  0
 11 12  1  0  0  0  0
 11 13  1  0  0  0  0
 11 14  1  0  0  0  0
  9 10  1  0  0  0  0
  9 11  1  0  0  0  0
  9 26  1  0  0  0  0
  7  8  1  0  0  0  0
  7  9  1  0  0  0  0
 30 31  1  0  0  0  0
 30 32  1  0  0  0  0
 30 33  1  0  0  0  0
 28 29  1  0  0  0  0
 28 30  1  0  0  0  0
M  END
$$$$
default_name
  -OEChem-02102213163D

 33 32  0     1  0  0  0  0  0999 V2000
   -3.8420   -3.6918    1.5562 H   0  0  0  0  0  0  0  0  0  0  0  0
   -3.8430   -2.7008    1.1032 C   0  0  0  0  0  0  0  0  0  0  0  0
   -4.5510   -2.0608    1.6242 H   0  0  0  0  0  0  0  0  0  0  0  0
   -4.1140   -2.7798    0.0522 H   0  0  0  0  0  0  0  0  0  0  0  0
   -2.4570   -2.1098    1.2172 C   0  0  0  0  0  0  0  0  0  0  0  0
   -1.5600   -2.7438    1.7572 O   0  0  0  0  0  0  0  0  0  0  0  0
   -2.2870   -0.8898    0.7102 N   0  0  0  0  0  0  0  0  0  0  0  0
   -3.0820   -0.4218    0.2992 H   0  0  0  0  0  0  0  0  0  0  0  0
   -1.0240   -0.1468    0.7262 C   0  0  1  0  0  0  0  0  0  0  0  0
   -0.3583   -0.6100    1.4558 H   0  0  0  0  0  0  0  0  0  0  0  0
   -0.3739   -0.2459   -0.6675 C   0  0  0  0  0  0  0  0  0  0  0  0
    0.0475   -1.2466   -0.7835 H   0  0  0  0  0  0  0  0  0  0  0  0
   -1.1396   -0.1081   -1.4321 H   0  0  0  0  0  0  0  0  0  0  0  0
    0.7516    0.7769   -0.8877 C   0  0  0  0  0  0  0  0  0  0  0  0
    1.2351    0.9996    0.0639 H   0  0  0  0  0  0  0  0  0  0  0  0
    1.4893    0.3566   -1.5737 H   0  0  0  0  0  0  0  0  0  0  0  0
    0.1997    2.0797   -1.4773 C   0  0  0  0  0  0  0  0  0  0  0  0
   -0.2944    1.8718   -2.4269 H   0  0  0  0  0  0  0  0  0  0  0  0
   -0.5205    2.5159   -0.7845 H   0  0  0  0  0  0  0  0  0  0  0  0
    1.3408    3.0682   -1.7090 C   0  0  0  0  0  0  0  0  0  0  0  0
    1.8240    3.2917   -0.7592 H   0  0  0  0  0  0  0  0  0  0  0  0
    2.0699    2.6272   -2.3868 H   0  0  0  0  0  0  0  0  0  0  0  0
    0.8496    4.3202   -2.2961 N   0  0  0  0  0  0  0  0  0  0  0  0
    1.6258    4.9531   -2.4222 H   0  0  0  0  0  0  0  0  0  0  0  0
    0.4286    4.1228   -3.1928 H   0  0  0  0  0  0  0  0  0  0  0  0
   -1.2712    1.3099    1.1517 C   0  0  0  0  0  0  0  0  0  0  0  0
   -2.2039    1.9448    0.6639 O   0  0  0  0  0  0  0  0  0  0  0  0
   -0.4306    1.8354    2.0503 N   0  0  0  0  0  0  0  0  0  0  0  0
    0.3001    1.2459    2.4139 H   0  0  0  0  0  0  0  0  0  0  0  0
   -0.5192    3.2082    2.5456 C   0  0  0  0  0  0  0  0  0  0  0  0
   -1.5166    3.3903    2.9518 H   0  0  0  0  0  0  0  0  0  0  0  0
    0.2240    3.3791    3.3257 H   0  0  0  0  0  0  0  0  0  0  0  0
   -0.3477    3.9067    1.7239 H   0  0  0  0  0  0  0  0  0  0  0  0
  5  6  2  0  0  0  0
  5  7  1  0  0  0  0
  2  3  1  0  0  0  0
  2  4  1  0  0  0  0
  2  5  1  0  0  0  0
  1  2  1  0  0  0  0
 26 27  2  0  0  0  0
 26 28  1  0  0  0  0
 23 24  1  0  0  0  0
 23 25  1  0  0  0  0
 20 21  1  0  0  0  0
 20 22  1  0  0  0  0
 20 23  1  0  0  0  0
 17 18  1  0  0  0  0
 17 19  1  0  0  0  0
 17 20  1  0  0  0  0
 14 15  1  0  0  0  0
 14 16  1  0  0  0  0
 14 17  1  0  0  0  0
 11 12  1  0  0  0  0
 11 13  1  0  0  0  0
 11 14  1  0  0  0  0
  9 10  1  0  0  0  0
  9 11  1  0  0  0  0
  9 26  1  0  0  0  0
  7  8  1  0  0  0  0
  7  9  1  0  0  0  0
 30 31  1  0  0  0  0
 30 32  1  0  0  0  0
 30 33  1  0  0  0  0
 28 29  1  0  0  0  0
 28 30  1  0  0  0  0
M  END
$$$$
default_name
  -OEChem-02102213163D

 33 32  0     1  0  0  0  0  0999 V2000
   -3.8420   -3.6918    1.5562 H   0  0  0  0  0  0  0  0  0  0  0  0
   -3.8430   -2.7008    1.1032 C   0  0  0  0  0  0  0  0  0  0  0  0
   -4.5510   -2.0608    1.6242 H   0  0  0  0  0  0  0  0  0  0  0  0
   -4.1140   -2.7798    0.0522 H   0  0  0  0  0  0  0  0  0  0  0  0
   -2.4570   -2.1098    1.2172 C   0  0  0  0  0  0  0  0  0  0  0  0
   -1.5600   -2.7438    1.7572 O   0  0  0  0  0  0  0  0  0  0  0  0
   -2.2870   -0.8898    0.7102 N   0  0  0  0  0  0  0  0  0  0  0  0
   -3.0820   -0.4218    0.2992 H   0  0  0  0  0  0  0  0  0  0  0  0
   -1.0240   -0.1468    0.7262 C   0  0  1  0  0  0  0  0  0  0  0  0
   -0.3583   -0.6100    1.4558 H   0  0  0  0  0  0  0  0  0  0  0  0
   -0.3739   -0.2459   -0.6675 C   0  0  0  0  0  0  0  0  0  0  0  0
    0.0475   -1.2466   -0.7835 H   0  0  0  0  0  0  0  0  0  0  0  0
   -1.1396   -0.1081   -1.4321 H   0  0  0  0  0  0  0  0  0  0  0  0
    0.7516    0.7769   -0.8877 C   0  0  0  0  0  0  0  0  0  0  0  0
    1.3999    0.8020   -0.0114 H   0  0  0  0  0  0  0  0  0  0  0  0
    1.3394    0.4818   -1.7588 H   0  0  0  0  0  0  0  0  0  0  0  0
    0.1789    2.1800   -1.1179 C   0  0  0  0  0  0  0  0  0  0  0  0
   -0.4788    2.1692   -1.9876 H   0  0  0  0  0  0  0  0  0  0  0  0
   -0.3896    2.4891   -0.2402 H   0  0  0  0  0  0  0  0  0  0  0  0
    1.3160    3.1710   -1.3583 C   0  0  0  0  0  0  0  0  0  0  0  0
    1.9637    3.1972   -0.4835 H   0  0  0  0  0  0  0  0  0  0  0  0
    1.8955    2.8542   -2.2238 H   0  0  0  0  0  0  0  0  0  0  0  0
    0.8007    4.5225   -1.6061 N   0  0  0  0  0  0  0  0  0  0  0  0
    1.5774    5.1519   -1.7466 H   0  0  0  0  0  0  0  0  0  0  0  0
    0.2245    4.5104   -2.4357 H   0  0  0  0  0  0  0  0  0  0  0  0
   -1.2712    1.3099    1.1517 C   0  0  0  0  0  0  0  0  0  0  0  0
   -2.2039    1.9448    0.6639 O   0  0  0  0  0  0  0  0  0  0  0  0
   -0.4306    1.8354    2.0503 N   0  0  0  0  0  0  0  0  0  0  0  0
    0.3001    1.2459    2.4139 H   0  0  0  0  0  0  0  0  0  0  0  0
   -0.5192    3.2082    2.5456 C   0  0  0  0  0  0  0  0  0  0  0  0
   -1.5166    3.3903    2.9518 H   0  0  0  0  0  0  0  0  0  0  0  0
    0.2240    3.3791    3.3257 H   0  0  0  0  0  0  0  0  0  0  0  0
   -0.3477    3.9067    1.7239 H   0  0  0  0  0  0  0  0  0  0  0  0
  5  6  2  0  0  0  0
  5  7  1  0  0  0  0
  2  3  1  0  0  0  0
  2  4  1  0  0  0  0
  2  5  1  0  0  0  0
  1  2  1  0  0  0  0
 26 27  2  0  0  0  0
 26 28  1  0  0  0  0
 23 24  1  0  0  0  0
 23 25  1  0  0  0  0
 20 21  1  0  0  0  0
 20 22  1  0  0  0  0
 20 23  1  0  0  0  0
 17 18  1  0  0  0  0
 17 19  1  0  0  0  0
 17 20  1  0  0  0  0
 14 15  1  0  0  0  0
 14 16  1  0  0  0  0
 14 17  1  0  0  0  0
 11 12  1  0  0  0  0
 11 13  1  0  0  0  0
 11 14  1  0  0  0  0
  9 10  1  0  0  0  0
  9 11  1  0  0  0  0
  9 26  1  0  0  0  0
  7  8  1  0  0  0  0
  7  9  1  0  0  0  0
 30 31  1  0  0  0  0
 30 32  1  0  0  0  0
 30 33  1  0  0  0  0
 28 29  1  0  0  0  0
 28 30  1  0  0  0  0
M  END
$$$$
default_name
  -OEChem-02102213163D

 33 32  0     1  0  0  0  0  0999 V2000
   -3.8420   -3.6918    1.5562 H   0  0  0  0  0  0  0  0  0  0  0  0
   -3.8430   -2.7008    1.1032 C   0  0  0  0  0  0  0  0  0  0  0  0
   -4.5510   -2.0608    1.6242 H   0  0  0  0  0  0  0  0  0  0  0  0
   -4.1140   -2.7798    0.0522 H   0  0  0  0  0  0  0  0  0  0  0  0
   -2.4570   -2.1098    1.2172 C   0  0  0  0  0  0  0  0  0  0  0  0
   -1.5600   -2.7438    1.7572 O   0  0  0  0  0  0  0  0  0  0  0  0
   -2.2870   -0.8898    0.7102 N   0  0  0  0  0  0  0  0  0  0  0  0
   -3.0820   -0.4218    0.2992 H   0  0  0  0  0  0  0  0  0  0  0  0
   -1.0240   -0.1468    0.7262 C   0  0  1  0  0  0  0  0  0  0  0  0
   -0.3583   -0.6100    1.4558 H   0  0  0  0  0  0  0  0  0  0  0  0
   -0.3739   -0.2459   -0.6675 C   0  0  0  0  0  0  0  0  0  0  0  0
    0.0475   -1.2466   -0.7835 H   0  0  0  0  0  0  0  0  0  0  0  0
   -1.1396   -0.1081   -1.4321 H   0  0  0  0  0  0  0  0  0  0  0  0
    0.7516    0.7769   -0.8877 C   0  0  0  0  0  0  0  0  0  0  0  0
    1.5389    0.6193   -0.1499 H   0  0  0  0  0  0  0  0  0  0  0  0
    1.1673    0.6433   -1.8881 H   0  0  0  0  0  0  0  0  0  0  0  0
    0.2244    2.2094   -0.7480 C   0  0  0  0  0  0  0  0  0  0  0  0
   -0.5701    2.3801   -1.4751 H   0  0  0  0  0  0  0  0  0  0  0  0
   -0.1704    2.3551    0.2579 H   0  0  0  0  0  0  0  0  0  0  0  0
    1.3563    3.2048   -0.9957 C   0  0  0  0  0  0  0  0  0  0  0  0
    2.1427    3.0485   -0.2592 H   0  0  0  0  0  0  0  0  0  0  0  0
    1.7636    3.0489   -1.9933 H   0  0  0  0  0  0  0  0  0  0  0  0
    0.8799    4.5889   -0.8929 N   0  0  0  0  0  0  0  0  0  0  0  0
    1.6544    5.2175   -1.0479 H   0  0  0  0  0  0  0  0  0  0  0  0
    0.1722    4.7488   -1.5957 H   0  0  0  0  0  0  0  0  0  0  0  0
   -1.2712    1.3099    1.1517 C   0  0  0  0  0  0  0  0  0  0  0  0
   -2.2039    1.9448    0.6639 O   0  0  0  0  0  0  0  0  0  0  0  0
   -0.4306    1.8354    2.0503 N   0  0  0  0  0  0  0  0  0  0  0  0
    0.3001    1.2459    2.4139 H   0  0  0  0  0  0  0  0  0  0  0  0
   -0.5192    3.2082    2.5456 C   0  0  0  0  0  0  0  0  0  0  0  0
   -1.5166    3.3903    2.9518 H   0  0  0  0  0  0  0  0  0  0  0  0
    0.2240    3.3791    3.3257 H   0  0  0  0  0  0  0  0  0  0  0  0
   -0.3477    3.9067    1.7239 H   0  0  0  0  0  0  0  0  0  0  0  0
  5  6  2  0  0  0  0
  5  7  1  0  0  0  0
  2  3  1  0  0  0  0
  2  4  1  0  0  0  0
  2  5  1  0  0  0  0
  1  2  1  0  0  0  0
 26 27  2  0  0  0  0
 26 28  1  0  0  0  0
 23 24  1  0  0  0  0
 23 25  1  0  0  0  0
 20 21  1  0  0  0  0
 20 22  1  0  0  0  0
 20 23  1  0  0  0  0
 17 18  1  0  0  0  0
 17 19  1  0  0  0  0
 17 20  1  0  0  0  0
 14 15  1  0  0  0  0
 14 16  1  0  0  0  0
 14 17  1  0  0  0  0
 11 12  1  0  0  0  0
 11 13  1  0  0  0  0
 11 14  1  0  0  0  0
  9 10  1  0  0  0  0
  9 11  1  0  0  0  0
  9 26  1  0  0  0  0
  7  8  1  0  0  0  0
  7  9  1  0  0  0  0
 30 31  1  0  0  0  0
 30 32  1  0  0  0  0
 30 33  1  0  0  0  0
 28 29  1  0  0  0  0
 28 30  1  0  0  0  0
M  END
$$$$
default_name
  -OEChem-02102213163D

 33 32  0     1  0  0  0  0  0999 V2000
   -3.8420   -3.6918    1.5562 H   0  0  0  0  0  0  0  0  0  0  0  0
   -3.8430   -2.7008    1.1032 C   0  0  0  0  0  0  0  0  0  0  0  0
   -4.5510   -2.0608    1.6242 H   0  0  0  0  0  0  0  0  0  0  0  0
   -4.1140   -2.7798    0.0522 H   0  0  0  0  0  0  0  0  0  0  0  0
   -2.4570   -2.1098    1.2172 C   0  0  0  0  0  0  0  0  0  0  0  0
   -1.5600   -2.7438    1.7572 O   0  0  0  0  0  0  0  0  0  0  0  0
   -2.2870   -0.8898    0.7102 N   0  0  0  0  0  0  0  0  0  0  0  0
   -3.0820   -0.4218    0.2992 H   0  0  0  0  0  0  0  0  0  0  0  0
   -1.0240   -0.1468    0.7262 C   0  0  1  0  0  0  0  0  0  0  0  0
   -0.3583   -0.6100    1.4558 H   0  0  0  0  0  0  0  0  0  0  0  0
   -0.3739   -0.2459   -0.6675 C   0  0  0  0  0  0  0  0  0  0  0  0
    0.0475   -1.2466   -0.7835 H   0  0  0  0  0  0  0  0  0  0  0  0
   -1.1396   -0.1081   -1.4321 H   0  0  0  0  0  0  0  0  0  0  0  0
    0.7516    0.7769   -0.8877 C   0  0  0  0  0  0  0  0  0  0  0  0
    1.6424    0.4639   -0.3424 H   0  0  0  0  0  0  0  0  0  0  0  0
    0.9848    0.8302   -1.9527 H   0  0  0  0  0  0  0  0  0  0  0  0
    0.3332    2.1661   -0.3931 C   0  0  0  0  0  0  0  0  0  0  0  0
   -0.5622    2.4900   -0.9244 H   0  0  0  0  0  0  0  0  0  0  0  0
    0.1221    2.1231    0.6758 H   0  0  0  0  0  0  0  0  0  0  0  0
    1.4589    3.1672   -0.6461 C   0  0  0  0  0  0  0  0  0  0  0  0
    2.3488    2.8557   -0.1015 H   0  0  0  0  0  0  0  0  0  0  0  0
    1.6831    3.1983   -1.7110 H   0  0  0  0  0  0  0  0  0  0  0  0
    1.0817    4.5149   -0.2050 N   0  0  0  0  0  0  0  0  0  0  0  0
    1.8515    5.1457   -0.3739 H   0  0  0  0  0  0  0  0  0  0  0  0
    0.2752    4.8218   -0.7301 H   0  0  0  0  0  0  0  0  0  0  0  0
   -1.2712    1.3099    1.1517 C   0  0  0  0  0  0  0  0  0  0  0  0
   -2.2039    1.9448    0.6639 O   0  0  0  0  0  0  0  0  0  0  0  0
   -0.4306    1.8354    2.0503 N   0  0  0  0  0  0  0  0  0  0  0  0
    0.3001    1.2459    2.4139 H   0  0  0  0  0  0  0  0  0  0  0  0
   -0.5192    3.2082    2.5456 C   0  0  0  0  0  0  0  0  0  0  0  0
   -1.5166    3.3903    2.9518 H   0  0  0  0  0  0  0  0  0  0  0  0
    0.2240    3.3791    3.3257 H   0  0  0  0  0  0  0  0  0  0  0  0
   -0.3477    3.9067    1.7239 H   0  0  0  0  0  0  0  0  0  0  0  0
  5  6  2  0  0  0  0
  5  7  1  0  0  0  0
  2  3  1  0  0  0  0
  2  4  1  0  0  0  0
  2  5  1  0  0  0  0
  1  2  1  0  0  0  0
 26 27  2  0  0  0  0
 26 28  1  0  0  0  0
 23 24  1  0  0  0  0
 23 25  1  0  0  0  0
 20 21  1  0  0  0  0
 20 22  1  0  0  0  0
 20 23  1  0  0  0  0
 17 18  1  0  0  0  0
 17 19  1  0  0  0  0
 17 20  1  0  0  0  0
 14 15  1  0  0  0  0
 14 16  1  0  0  0  0
 14 17  1  0  0  0  0
 11 12  1  0  0  0  0
 11 13  1  0  0  0  0
 11 14  1  0  0  0  0
  9 10  1  0  0  0  0
  9 11  1  0  0  0  0
  9 26  1  0  0  0  0
  7  8  1  0  0  0  0
  7  9  1  0  0  0  0
 30 31  1  0  0  0  0
 30 32  1  0  0  0  0
 30 33  1  0  0  0  0
 28 29  1  0  0  0  0
 28 30  1  0  0  0  0
M  END
$$$$
default_name
  -OEChem-02102213163D

 33 32  0     1  0  0  0  0  0999 V2000
   -3.8420   -3.6918    1.5562 H   0  0  0  0  0  0  0  0  0  0  0  0
   -3.8430   -2.7008    1.1032 C   0  0  0  0  0  0  0  0  0  0  0  0
   -4.5510   -2.0608    1.6242 H   0  0  0  0  0  0  0  0  0  0  0  0
   -4.1140   -2.7798    0.0522 H   0  0  0  0  0  0  0  0  0  0  0  0
   -2.4570   -2.1098    1.2172 C   0  0  0  0  0  0  0  0  0  0  0  0
   -1.5600   -2.7438    1.7572 O   0  0  0  0  0  0  0  0  0  0  0  0
   -2.2870   -0.8898    0.7102 N   0  0  0  0  0  0  0  0  0  0  0  0
   -3.0820   -0.4218    0.2992 H   0  0  0  0  0  0  0  0  0  0  0  0
   -1.0240   -0.1468    0.7262 C   0  0  1  0  0  0  0  0  0  0  0  0
   -0.3583   -0.6100    1.4558 H   0  0  0  0  0  0  0  0  0  0  0  0
   -0.3739   -0.2459   -0.6675 C   0  0  0  0  0  0  0  0  0  0  0  0
    0.0475   -1.2466   -0.7835 H   0  0  0  0  0  0  0  0  0  0  0  0
   -1.1396   -0.1081   -1.4321 H   0  0  0  0  0  0  0  0  0  0  0  0
    0.7516    0.7769   -0.8877 C   0  0  0  0  0  0  0  0  0  0  0  0
    1.7035    0.3465   -0.5755 H   0  0  0  0  0  0  0  0  0  0  0  0
    0.8044    1.0298   -1.9482 H   0  0  0  0  0  0  0  0  0  0  0  0
    0.4979    2.0530   -0.0772 C   0  0  0  0  0  0  0  0  0  0  0  0
   -0.4557    2.4914   -0.3729 H   0  0  0  0  0  0  0  0  0  0  0  0
    0.4681    1.8090    0.9852 H   0  0  0  0  0  0  0  0  0  0  0  0
    1.6168    3.0607   -0.3331 C   0  0  0  0  0  0  0  0  0  0  0  0
    2.5678    2.6320   -0.0212 H   0  0  0  0  0  0  0  0  0  0  0  0
    1.6596    3.2920   -1.3962 H   0  0  0  0  0  0  0  0  0  0  0  0
    1.3924    4.3056    0.4106 N   0  0  0  0  0  0  0  0  0  0  0  0
    2.1554    4.9412    0.2295 H   0  0  0  0  0  0  0  0  0  0  0  0
    0.5265    4.7244    0.1021 H   0  0  0  0  0  0  0  0  0  0  0  0
   -1.2712    1.3099    1.1517 C   0  0  0  0  0  0  0  0  0  0  0  0
   -2.2039    1.9448    0.6639 O   0  0  0  0  0  0  0  0  0  0  0  0
   -0.4306    1.8354    2.0503 N   0  0  0  0  0  0  0  0  0  0  0  0
    0.3001    1.2459    2.4139 H   0  0  0  0  0  0  0  0  0  0  0  0
   -0.5192    3.2082    2.5456 C   0  0  0  0  0  0  0  0  0  0  0  0
   -1.5166    3.3903    2.9518 H   0  0  0  0  0  0  0  0  0  0  0  0
    0.2240    3.3791    3.3257 H   0  0  0  0  0  0  0  0  0  0  0  0
   -0.3477    3.9067    1.7239 H   0  0  0  0  0  0  0  0  0  0  0  0
  5  6  2  0  0  0  0
  5  7  1  0  0  0  0
  2  3  1  0  0  0  0
  2  4  1  0  0  0  0
  2  5  1  0  0  0  0
  1  2  1  0  0  0  0
 26 27  2  0  0  0  0
 26 28  1  0  0  0  0
 23 24  1  0  0  0  0
 23 25  1  0  0  0  0
 20 21  1  0  0  0  0
 20 22  1  0  0  0  0
 20 23  1  0  0  0  0
 17 18  1  0  0  0  0
 17 19  1  0  0  0  0
 17 20  1  0  0  0  0
 14 15  1  0  0  0  0
 14 16  1  0  0  0  0
 14 17  1  0  0  0  0
 11 12  1  0  0  0  0
 11 13  1  0  0  0  0
 11 14  1  0  0  0  0
  9 10  1  0  0  0  0
  9 11  1  0  0  0  0
  9 26  1  0  0  0  0
  7  8  1  0  0  0  0
  7  9  1  0  0  0  0
 30 31  1  0  0  0  0
 30 32  1  0  0  0  0
 30 33  1  0  0  0  0
 28 29  1  0  0  0  0
 28 30  1  0  0  0  0
M  END
$$$$
default_name
  -OEChem-02102213163D

 33 32  0     1  0  0  0  0  0999 V2000
   -3.8420   -3.6918    1.5562 H   0  0  0  0  0  0  0  0  0  0  0  0
   -3.8430   -2.7008    1.1032 C   0  0  0  0  0  0  0  0  0  0  0  0
   -4.5510   -2.0608    1.6242 H   0  0  0  0  0  0  0  0  0  0  0  0
   -4.1140   -2.7798    0.0522 H   0  0  0  0  0  0  0  0  0  0  0  0
   -2.4570   -2.1098    1.2172 C   0  0  0  0  0  0  0  0  0  0  0  0
   -1.5600   -2.7438    1.7572 O   0  0  0  0  0  0  0  0  0  0  0  0
   -2.2870   -0.8898    0.7102 N   0  0  0  0  0  0  0  0  0  0  0  0
   -3.0820   -0.4218    0.2992 H   0  0  0  0  0  0  0  0  0  0  0  0
   -1.0240   -0.1468    0.7262 C   0  0  1  0  0  0  0  0  0  0  0  0
   -0.3583   -0.6100    1.4558 H   0  0  0  0  0  0  0  0  0  0  0  0
   -0.3739   -0.2459   -0.6675 C   0  0  0  0  0  0  0  0  0  0  0  0
    0.0475   -1.2466   -0.7835 H   0  0  0  0  0  0  0  0  0  0  0  0
   -1.1396   -0.1081   -1.4321 H   0  0  0  0  0  0  0  0  0  0  0  0
    0.7516    0.7769   -0.8877 C   0  0  0  0  0  0  0  0  0  0  0  0
    1.7180    0.2749   -0.8335 H   0  0  0  0  0  0  0  0  0  0  0  0
    0.6382    1.2284   -1.8749 H   0  0  0  0  0  0  0  0  0  0  0  0
    0.7071    1.8776    0.1782 C   0  0  0  0  0  0  0  0  0  0  0  0
   -0.2577    2.3844    0.1416 H   0  0  0  0  0  0  0  0  0  0  0  0
    0.8439    1.4341    1.1648 H   0  0  0  0  0  0  0  0  0  0  0  0
    1.8193    2.8927   -0.0782 C   0  0  0  0  0  0  0  0  0  0  0  0
    2.7849    2.3925   -0.0239 H   0  0  0  0  0  0  0  0  0  0  0  0
    1.6945    3.3237   -1.0702 H   0  0  0  0  0  0  0  0  0  0  0  0
    1.7907    3.9752    0.9121 N   0  0  0  0  0  0  0  0  0  0  0  0
    2.5453    4.6180    0.7213 H   0  0  0  0  0  0  0  0  0  0  0  0
    0.9090    4.4632    0.8442 H   0  0  0  0  0  0  0  0  0  0  0  0
   -1.2712    1.3099    1.1517 C   0  0  0  0  0  0  0  0  0  0  0  0
   -2.2039    1.9448    0.6639 O   0  0  0  0  0  0  0  0  0  0  0  0
   -0.4306    1.8354    2.0503 N   0  0  0  0  0  0  0  0  0  0  0  0
    0.3001    1.2459    2.4139 H   0  0  0  0  0  0  0  0  0  0  0  0
   -0.5192    3.2082    2.5456 C   0  0  0  0  0  0  0  0  0  0  0  0
   -1.5166    3.3903    2.9518 H   0  0  0  0  0  0  0  0  0  0  0  0
    0.2240    3.3791    3.3257 H   0  0  0  0  0  0  0  0  0  0  0  0
   -0.3477    3.9067    1.7239 H   0  0  0  0  0  0  0  0  0  0  0  0
  5  6  2  0  0  0  0
  5  7  1  0  0  0  0
  2  3  1  0  0  0  0
  2  4  1  0  0  0  0
  2  5  1  0  0  0  0
  1  2  1  0  0  0  0
 26 27  2  0  0  0  0
 26 28  1  0  0  0  0
 23 24  1  0  0  0  0
 23 25  1  0  0  0  0
 20 21  1  0  0  0  0
 20 22  1  0  0  0  0
 20 23  1  0  0  0  0
 17 18  1  0  0  0  0
 17 19  1  0  0  0  0
 17 20  1  0  0  0  0
 14 15  1  0  0  0  0
 14 16  1  0  0  0  0
 14 17  1  0  0  0  0
 11 12  1  0  0  0  0
 11 13  1  0  0  0  0
 11 14  1  0  0  0  0
  9 10  1  0  0  0  0
  9 11  1  0  0  0  0
  9 26  1  0  0  0  0
  7  8  1  0  0  0  0
  7  9  1  0  0  0  0
 30 31  1  0  0  0  0
 30 32  1  0  0  0  0
 30 33  1  0  0  0  0
 28 29  1  0  0  0  0
 28 30  1  0  0  0  0
M  END
$$$$
default_name
  -OEChem-02102213163D

 33 32  0     1  0  0  0  0  0999 V2000
   -3.8420   -3.6918    1.5562 H   0  0  0  0  0  0  0  0  0  0  0  0
   -3.8430   -2.7008    1.1032 C   0  0  0  0  0  0  0  0  0  0  0  0
   -4.5510   -2.0608    1.6242 H   0  0  0  0  0  0  0  0  0  0  0  0
   -4.1140   -2.7798    0.0522 H   0  0  0  0  0  0  0  0  0  0  0  0
   -2.4570   -2.1098    1.2172 C   0  0  0  0  0  0  0  0  0  0  0  0
   -1.5600   -2.7438    1.7572 O   0  0  0  0  0  0  0  0  0  0  0  0
   -2.2870   -0.8898    0.7102 N   0  0  0  0  0  0  0  0  0  0  0  0
   -3.0820   -0.4218    0.2992 H   0  0  0  0  0  0  0  0  0  0  0  0
   -1.0240   -0.1468    0.7262 C   0  0  1  0  0  0  0  0  0  0  0  0
   -0.3583   -0.6100    1.4558 H   0  0  0  0  0  0  0  0  0  0  0  0
   -0.3739   -0.2459   -0.6675 C   0  0  0  0  0  0  0  0  0  0  0  0
    0.0475   -1.2466   -0.7835 H   0  0  0  0  0  0  0  0  0  0  0  0
   -1.1396   -0.1081   -1.4321 H   0  0  0  0  0  0  0  0  0  0  0  0
    0.7516    0.7769   -0.8877 C   0  0  0  0  0  0  0  0  0  0  0  0
    1.6850    0.2542   -1.0988 H   0  0  0  0  0  0  0  0  0  0  0  0
    0.4977    1.4125   -1.7379 H   0  0  0  0  0  0  0  0  0  0  0  0
    0.9467    1.6521    0.3555 C   0  0  0  0  0  0  0  0  0  0  0  0
    0.0182    2.1761    0.5843 H   0  0  0  0  0  0  0  0  0  0  0  0
    1.2240    1.0240    1.2025 H   0  0  0  0  0  0  0  0  0  0  0  0
    2.0526    2.6746    0.1012 C   0  0  0  0  0  0  0  0  0  0  0  0
    2.9852    2.1536   -0.1092 H   0  0  0  0  0  0  0  0  0  0  0  0
    1.7856    3.2913   -0.7554 H   0  0  0  0  0  0  0  0  0  0  0  0
    2.2497    3.5461    1.2653 N   0  0  0  0  0  0  0  0  0  0  0  0
    2.9947    4.1981    1.0679 H   0  0  0  0  0  0  0  0  0  0  0  0
    1.3966    4.0561    1.4455 H   0  0  0  0  0  0  0  0  0  0  0  0
   -1.2712    1.3099    1.1517 C   0  0  0  0  0  0  0  0  0  0  0  0
   -2.2039    1.9448    0.6639 O   0  0  0  0  0  0  0  0  0  0  0  0
   -0.4306    1.8354    2.0503 N   0  0  0  0  0  0  0  0  0  0  0  0
    0.3001    1.2459    2.4139 H   0  0  0  0  0  0  0  0  0  0  0  0
   -0.5192    3.2082    2.5456 C   0  0  0  0  0  0  0  0  0  0  0  0
   -1.5166    3.3903    2.9518 H   0  0  0  0  0  0  0  0  0  0  0  0
    0.2240    3.3791    3.3257 H   0  0  0  0  0  0  0  0  0  0  0  0
   -0.3477    3.9067    1.7239 H   0  0  0  0  0  0  0  0  0  0  0  0
  5  6  2  0  0  0  0
  5  7  1  0  0  0  0
  2  3  1  0  0  0  0
  2  4  1  0  0  0  0
  2  5  1  0  0  0  0
  1  2  1  0  0  0  0
 26 27  2  0  0  0  0
 26 28  1  0  0  0  0
 23 24  1  0  0  0  0
 23 25  1  0  0  0  0
 20 21  1  0  0  0  0
 20 22  1  0  0  0  0
 20 23  1  0  0  0  0
 17 18  1  0  0  0  0
 17 19  1  0  0  0  0
 17 20  1  0  0  0  0
 14 15  1  0  0  0  0
 14 16  1  0  0  0  0
 14 17  1  0  0  0  0
 11 12  1  0  0  0  0
 11 13  1  0  0  0  0
 11 14  1  0  0  0  0
  9 10  1  0  0  0  0
  9 11  1  0  0  0  0
  9 26  1  0  0  0  0
  7  8  1  0  0  0  0
  7  9  1  0  0  0  0
 30 31  1  0  0  0  0
 30 32  1  0  0  0  0
 30 33  1  0  0  0  0
 28 29  1  0  0  0  0
 28 30  1  0  0  0  0
M  END
$$$$
default_name
  -OEChem-02102213163D

 33 32  0     1  0  0  0  0  0999 V2000
   -3.8420   -3.6918    1.5562 H   0  0  0  0  0  0  0  0  0  0  0  0
   -3.8430   -2.7008    1.1032 C   0  0  0  0  0  0  0  0  0  0  0  0
   -4.5510   -2.0608    1.6242 H   0  0  0  0  0  0  0  0  0  0  0  0
   -4.1140   -2.7798    0.0522 H   0  0  0  0  0  0  0  0  0  0  0  0
   -2.4570   -2.1098    1.2172 C   0  0  0  0  0  0  0  0  0  0  0  0
   -1.5600   -2.7438    1.7572 O   0  0  0  0  0  0  0  0  0  0  0  0
   -2.2870   -0.8898    0.7102 N   0  0  0  0  0  0  0  0  0  0  0  0
   -3.0820   -0.4218    0.2992 H   0  0  0  0  0  0  0  0  0  0  0  0
   -1.0240   -0.1468    0.7262 C   0  0  1  0  0  0  0  0  0  0  0  0
   -0.3583   -0.6100    1.4558 H   0  0  0  0  0  0  0  0  0  0  0  0
   -0.3739   -0.2459   -0.6675 C   0  0  0  0  0  0  0  0  0  0  0  0
    0.0475   -1.2466   -0.7835 H   0  0  0  0  0  0  0  0  0  0  0  0
   -1.1396   -0.1081   -1.4321 H   0  0  0  0  0  0  0  0  0  0  0  0
    0.7516    0.7769   -0.8877 C   0  0  0  0  0  0  0  0  0  0  0  0
    1.6066    0.2857   -1.3532 H   0  0  0  0  0  0  0  0  0  0  0  0
    0.3924    1.5696   -1.5465 H   0  0  0  0  0  0  0  0  0  0  0  0
    1.2004    1.3918    0.4428 C   0  0  0  0  0  0  0  0  0  0  0  0
    0.3532    1.8807    0.9248 H   0  0  0  0  0  0  0  0  0  0  0  0
    1.5824    0.6066    1.0958 H   0  0  0  0  0  0  0  0  0  0  0  0
    2.3008    2.4213    0.1931 C   0  0  0  0  0  0  0  0  0  0  0  0
    3.1552    1.9317   -0.2714 H   0  0  0  0  0  0  0  0  0  0  0  0
    1.9266    3.1969   -0.4731 H   0  0  0  0  0  0  0  0  0  0  0  0
    2.7379    3.0478    1.4460 N   0  0  0  0  0  0  0  0  0  0  0  0
    3.4728    3.7102    1.2456 H   0  0  0  0  0  0  0  0  0  0  0  0
    1.9561    3.5308    1.8653 H   0  0  0  0  0  0  0  0  0  0  0  0
   -1.2712    1.3099    1.1517 C   0  0  0  0  0  0  0  0  0  0  0  0
   -2.2039    1.9448    0.6639 O   0  0  0  0  0  0  0  0  0  0  0  0
   -0.4306    1.8354    2.0503 N   0  0  0  0  0  0  0  0  0  0  0  0
    0.3001    1.2459    2.4139 H   0  0  0  0  0  0  0  0  0  0  0  0
   -0.5192    3.2082    2.5456 C   0  0  0  0  0  0  0  0  0  0  0  0
   -1.5166    3.3903    2.9518 H   0  0  0  0  0  0  0  0  0  0  0  0
    0.2240    3.3791    3.3257 H   0  0  0  0  0  0  0  0  0  0  0  0
   -0.3477    3.9067    1.7239 H   0  0  0  0  0  0  0  0  0  0  0  0
  5  6  2  0  0  0  0
  5  7  1  0  0  0  0
  2  3  1  0  0  0  0
  2  4  1  0  0  0  0
  2  5  1  0  0  0  0
  1  2  1  0  0  0  0
 26 27  2  0  0  0  0
 26 28  1  0  0  0  0
 23 24  1  0  0  0  0
 23 25  1  0  0  0  0
 20 21  1  0  0  0  0
 20 22  1  0  0  0  0
 20 23  1  0  0  0  0
 17 18  1  0  0  0  0
 17 19  1  0  0  0  0
 17 20  1  0  0  0  0
 14 15  1  0  0  0  0
 14 16  1  0  0  0  0
 14 17  1  0  0  0  0
 11 12  1  0  0  0  0
 11 13  1  0  0  0  0
 11 14  1  0  0  0  0
  9 10  1  0  0  0  0
  9 11  1  0  0  0  0
  9 26  1  0  0  0  0
  7  8  1  0  0  0  0
  7  9  1  0  0  0  0
 30 31  1  0  0  0  0
 30 32  1  0  0  0  0
 30 33  1  0  0  0  0
 28 29  1  0  0  0  0
 28 30  1  0  0  0  0
M  END
$$$$
default_name
  -OEChem-02102213163D

 33 32  0     1  0  0  0  0  0999 V2000
   -3.8420   -3.6918    1.5562 H   0  0  0  0  0  0  0  0  0  0  0  0
   -3.8430   -2.7008    1.1032 C   0  0  0  0  0  0  0  0  0  0  0  0
   -4.5510   -2.0608    1.6242 H   0  0  0  0  0  0  0  0  0  0  0  0
   -4.1140   -2.7798    0.0522 H   0  0  0  0  0  0  0  0  0  0  0  0
   -2.4570   -2.1098    1.2172 C   0  0  0  0  0  0  0  0  0  0  0  0
   -1.5600   -2.7438    1.7572 O   0  0  0  0  0  0  0  0  0  0  0  0
   -2.2870   -0.8898    0.7102 N   0  0  0  0  0  0  0  0  0  0  0  0
   -3.0820   -0.4218    0.2992 H   0  0  0  0  0  0  0  0  0  0  0  0
   -1.0240   -0.1468    0.7262 C   0  0  1  0  0  0  0  0  0  0  0  0
   -0.3583   -0.6100    1.4558 H   0  0  0  0  0  0  0  0  0  0  0  0
   -0.3739   -0.2459   -0.6675 C   0  0  0  0  0  0  0  0  0  0  0  0
    0.0475   -1.2466   -0.7835 H   0  0  0  0  0  0  0  0  0  0  0  0
   -1.1396   -0.1081   -1.4321 H   0  0  0  0  0  0  0  0  0  0  0  0
    0.7516    0.7769   -0.8877 C   0  0  0  0  0  0  0  0  0  0  0  0
    1.4882    0.3673   -1.5795 H   0  0  0  0  0  0  0  0  0  0  0  0
    0.3296    1.6890   -1.3136 H   0  0  0  0  0  0  0  0  0  0  0  0
    1.4507    1.1144    0.4341 C   0  0  0  0  0  0  0  0  0  0  0  0
    0.7245    1.5184    1.1400 H   0  0  0  0  0  0  0  0  0  0  0  0
    1.8947    0.2103    0.8517 H   0  0  0  0  0  0  0  0  0  0  0  0
    2.5469    2.1500    0.1910 C   0  0  0  0  0  0  0  0  0  0  0  0
    3.2832    1.7417   -0.4995 H   0  0  0  0  0  0  0  0  0  0  0  0
    2.1079    3.0470   -0.2427 H   0  0  0  0  0  0  0  0  0  0  0  0
    3.2221    2.5140    1.4419 N   0  0  0  0  0  0  0  0  0  0  0  0
    3.9472    3.1874    1.2425 H   0  0  0  0  0  0  0  0  0  0  0  0
    2.5493    2.9230    2.0747 H   0  0  0  0  0  0  0  0  0  0  0  0
   -1.2712    1.3099    1.1517 C   0  0  0  0  0  0  0  0  0  0  0  0
   -2.2039    1.9448    0.6639 O   0  0  0  0  0  0  0  0  0  0  0  0
   -0.4306    1.8354    2.0503 N   0  0  0  0  0  0  0  0  0  0  0  0
    0.3001    1.2459    2.4139 H   0  0  0  0  0  0  0  0  0  0  0  0
   -0.5192    3.2082    2.5456 C   0  0  0  0  0  0  0  0  0  0  0  0
   -1.5166    3.3903    2.9518 H   0  0  0  0  0  0  0  0  0  0  0  0
    0.2240    3.3791    3.3257 H   0  0  0  0  0  0  0  0  0  0  0  0
   -0.3477    3.9067    1.7239 H   0  0  0  0  0  0  0  0  0  0  0  0
  5  6  2  0  0  0  0
  5  7  1  0  0  0  0
  2  3  1  0  0  0  0
  2  4  1  0  0  0  0
  2  5  1  0  0  0  0
  1  2  1  0  0  0  0
 26 27  2  0  0  0  0
 26 28  1  0  0  0  0
 23 24  1  0  0  0  0
 23 25  1  0  0  0  0
 20 21  1  0  0  0  0
 20 22  1  0  0  0  0
 20 23  1  0  0  0  0
 17 18  1  0  0  0  0
 17 19  1  0  0  0  0
 17 20  1  0  0  0  0
 14 15  1  0  0  0  0
 14 16  1  0  0  0  0
 14 17  1  0  0  0  0
 11 12  1  0  0  0  0
 11 13  1  0  0  0  0
 11 14  1  0  0  0  0
  9 10  1  0  0  0  0
  9 11  1  0  0  0  0
  9 26  1  0  0  0  0
  7  8  1  0  0  0  0
  7  9  1  0  0  0  0
 30 31  1  0  0  0  0
 30 32  1  0  0  0  0
 30 33  1  0  0  0  0
 28 29  1  0  0  0  0
 28 30  1  0  0  0  0
M  END
$$$$
default_name
  -OEChem-02102213163D

 33 32  0     1  0  0  0  0  0999 V2000
   -3.8420   -3.6918    1.5562 H   0  0  0  0  0  0  0  0  0  0  0  0
   -3.8430   -2.7008    1.1032 C   0  0  0  0  0  0  0  0  0  0  0  0
   -4.5510   -2.0608    1.6242 H   0  0  0  0  0  0  0  0  0  0  0  0
   -4.1140   -2.7798    0.0522 H   0  0  0  0  0  0  0  0  0  0  0  0
   -2.4570   -2.1098    1.2172 C   0  0  0  0  0  0  0  0  0  0  0  0
   -1.5600   -2.7438    1.7572 O   0  0  0  0  0  0  0  0  0  0  0  0
   -2.2870   -0.8898    0.7102 N   0  0  0  0  0  0  0  0  0  0  0  0
   -3.0820   -0.4218    0.2992 H   0  0  0  0  0  0  0  0  0  0  0  0
   -1.0240   -0.1468    0.7262 C   0  0  1  0  0  0  0  0  0  0  0  0
   -0.3583   -0.6100    1.4558 H   0  0  0  0  0  0  0  0  0  0  0  0
   -0.3739   -0.2459   -0.6675 C   0  0  0  0  0  0  0  0  0  0  0  0
    0.0475   -1.2466   -0.7835 H   0  0  0  0  0  0  0  0  0  0  0  0
   -1.1396   -0.1081   -1.4321 H   0  0  0  0  0  0  0  0  0  0  0  0
    0.7516    0.7769   -0.8877 C   0  0  0  0  0  0  0  0  0  0  0  0
    1.3378    0.4934   -1.7622 H   0  0  0  0  0  0  0  0  0  0  0  0
    0.3134    1.7624   -1.0552 H   0  0  0  0  0  0  0  0  0  0  0  0
    1.6808    0.8388    0.3299 C   0  0  0  0  0  0  0  0  0  0  0  0
    1.1068    1.1139    1.2153 H   0  0  0  0  0  0  0  0  0  0  0  0
    2.1397   -0.1377    0.4871 H   0  0  0  0  0  0  0  0  0  0  0  0
    2.7743    1.8792    0.0951 C   0  0  0  0  0  0  0  0  0  0  0  0
    3.3605    1.5967   -0.7778 H   0  0  0  0  0  0  0  0  0  0  0  0
    2.3172    2.8517   -0.0797 H   0  0  0  0  0  0  0  0  0  0  0  0
    3.6694    1.9813    1.2534 N   0  0  0  0  0  0  0  0  0  0  0  0
    4.3855    2.6655    1.0586 H   0  0  0  0  0  0  0  0  0  0  0  0
    3.1359    2.2743    2.0596 H   0  0  0  0  0  0  0  0  0  0  0  0
   -1.2712    1.3099    1.1517 C   0  0  0  0  0  0  0  0  0  0  0  0
   -2.2039    1.9448    0.6639 O   0  0  0  0  0  0  0  0  0  0  0  0
   -0.4306    1.8354    2.0503 N   0  0  0  0  0  0  0  0  0  0  0  0
    0.3001    1.2459    2.4139 H   0  0  0  0  0  0  0  0  0  0  0  0
   -0.5192    3.2082    2.5456 C   0  0  0  0  0  0  0  0  0  0  0  0
   -1.5166    3.3903    2.9518 H   0  0  0  0  0  0  0  0  0  0  0  0
    0.2240    3.3791    3.3257 H   0  0  0  0  0  0  0  0  0  0  0  0
   -0.3477    3.9067    1.7239 H   0  0  0  0  0  0  0  0  0  0  0  0
  5  6  2  0  0  0  0
  5  7  1  0  0  0  0
  2  3  1  0  0  0  0
  2  4  1  0  0  0  0
  2  5  1  0  0  0  0
  1  2  1  0  0  0  0
 26 27  2  0  0  0  0
 26 28  1  0  0  0  0
 23 24  1  0  0  0  0
 23 25  1  0  0  0  0
 20 21  1  0  0  0  0
 20 22  1  0  0  0  0
 20 23  1  0  0  0  0
 17 18  1  0  0  0  0
 17 19  1  0  0  0  0
 17 20  1  0  0  0  0
 14 15  1  0  0  0  0
 14 16  1  0  0  0  0
 14 17  1  0  0  0  0
 11 12  1  0  0  0  0
 11 13  1  0  0  0  0
 11 14  1  0  0  0  0
  9 10  1  0  0  0  0
  9 11  1  0  0  0  0
  9 26  1  0  0  0  0
  7  8  1  0  0  0  0
  7  9  1  0  0  0  0
 30 31  1  0  0  0  0
 30 32  1  0  0  0  0
 30 33  1  0  0  0  0
 28 29  1  0  0  0  0
 28 30  1  0  0  0  0
M  END
$$$$
default_name
  -OEChem-02102213163D

 33 32  0     1  0  0  0  0  0999 V2000
   -3.8420   -3.6918    1.5562 H   0  0  0  0  0  0  0  0  0  0  0  0
   -3.8430   -2.7008    1.1032 C   0  0  0  0  0  0  0  0  0  0  0  0
   -4.5510   -2.0608    1.6242 H   0  0  0  0  0  0  0  0  0  0  0  0
   -4.1140   -2.7798    0.0522 H   0  0  0  0  0  0  0  0  0  0  0  0
   -2.4570   -2.1098    1.2172 C   0  0  0  0  0  0  0  0  0  0  0  0
   -1.5600   -2.7438    1.7572 O   0  0  0  0  0  0  0  0  0  0  0  0
   -2.2870   -0.8898    0.7102 N   0  0  0  0  0  0  0  0  0  0  0  0
   -3.0820   -0.4218    0.2992 H   0  0  0  0  0  0  0  0  0  0  0  0
   -1.0240   -0.1468    0.7262 C   0  0  1  0  0  0  0  0  0  0  0  0
   -0.3583   -0.6100    1.4558 H   0  0  0  0  0  0  0  0  0  0  0  0
   -0.3739   -0.2459   -0.6675 C   0  0  0  0  0  0  0  0  0  0  0  0
    0.0475   -1.2466   -0.7835 H   0  0  0  0  0  0  0  0  0  0  0  0
   -1.1396   -0.1081   -1.4321 H   0  0  0  0  0  0  0  0  0  0  0  0
    0.7516    0.7769   -0.8877 C   0  0  0  0  0  0  0  0  0  0  0  0
    1.1658    0.6554   -1.8890 H   0  0  0  0  0  0  0  0  0  0  0  0
    0.3449    1.7850   -0.7890 H   0  0  0  0  0  0  0  0  0  0  0  0
    1.8748    0.5839    0.1374 C   0  0  0  0  0  0  0  0  0  0  0  0
    1.4741    0.6947    1.1455 H   0  0  0  0  0  0  0  0  0  0  0  0
    2.3006   -0.4139    0.0268 H   0  0  0  0  0  0  0  0  0  0  0  0
    2.9673    1.6273   -0.0880 C   0  0  0  0  0  0  0  0  0  0  0  0
    3.3819    1.5065   -1.0875 H   0  0  0  0  0  0  0  0  0  0  0  0
    2.5402    2.6245    0.0046 H   0  0  0  0  0  0  0  0  0  0  0  0
    4.0491    1.4858    0.8933 N   0  0  0  0  0  0  0  0  0  0  0  0
    4.7579    2.1800    0.7066 H   0  0  0  0  0  0  0  0  0  0  0  0
    3.6758    1.6287    1.8210 H   0  0  0  0  0  0  0  0  0  0  0  0
   -1.2712    1.3099    1.1517 C   0  0  0  0  0  0  0  0  0  0  0  0
   -2.2039    1.9448    0.6639 O   0  0  0  0  0  0  0  0  0  0  0  0
   -0.4306    1.8354    2.0503 N   0  0  0  0  0  0  0  0  0  0  0  0
    0.3001    1.2459    2.4139 H   0  0  0  0  0  0  0  0  0  0  0  0
   -0.5192    3.2082    2.5456 C   0  0  0  0  0  0  0  0  0  0  0  0
   -1.5166    3.3903    2.9518 H   0  0  0  0  0  0  0  0  0  0  0  0
    0.2240    3.3791    3.3257 H   0  0  0  0  0  0  0  0  0  0  0  0
   -0.3477    3.9067    1.7239 H   0  0  0  0  0  0  0  0  0  0  0  0
  5  6  2  0  0  0  0
  5  7  1  0  0  0  0
  2  3  1  0  0  0  0
  2  4  1  0  0  0  0
  2  5  1  0  0  0  0
  1  2  1  0  0  0  0
 26 27  2  0  0  0  0
 26 28  1  0  0  0  0
 23 24  1  0  0  0  0
 23 25  1  0  0  0  0
 20 21  1  0  0  0  0
 20 22  1  0  0  0  0
 20 23  1  0  0  0  0
 17 18  1  0  0  0  0
 17 19  1  0  0  0  0
 17 20  1  0  0  0  0
 14 15  1  0  0  0  0
 14 16  1  0  0  0  0
 14 17  1  0  0  0  0
 11 12  1  0  0  0  0
 11 13  1  0  0  0  0
 11 14  1  0  0  0  0
  9 10  1  0  0  0  0
  9 11  1  0  0  0  0
  9 26  1  0  0  0  0
  7  8  1  0  0  0  0
  7  9  1  0  0  0  0
 30 31  1  0  0  0  0
 30 32  1  0  0  0  0
 30 33  1  0  0  0  0
 28 29  1  0  0  0  0
 28 30  1  0  0  0  0
M  END
$$$$
default_name
  -OEChem-02102213163D

 33 32  0     1  0  0  0  0  0999 V2000
   -3.8420   -3.6918    1.5562 H   0  0  0  0  0  0  0  0  0  0  0  0
   -3.8430   -2.7008    1.1032 C   0  0  0  0  0  0  0  0  0  0  0  0
   -4.5510   -2.0608    1.6242 H   0  0  0  0  0  0  0  0  0  0  0  0
   -4.1140   -2.7798    0.0522 H   0  0  0  0  0  0  0  0  0  0  0  0
   -2.4570   -2.1098    1.2172 C   0  0  0  0  0  0  0  0  0  0  0  0
   -1.5600   -2.7438    1.7572 O   0  0  0  0  0  0  0  0  0  0  0  0
   -2.2870   -0.8898    0.7102 N   0  0  0  0  0  0  0  0  0  0  0  0
   -3.0820   -0.4218    0.2992 H   0  0  0  0  0  0  0  0  0  0  0  0
   -1.0240   -0.1468    0.7262 C   0  0  1  0  0  0  0  0  0  0  0  0
   -0.3583   -0.6100    1.4558 H   0  0  0  0  0  0  0  0  0  0  0  0
   -0.3739   -0.2459   -0.6675 C   0  0  0  0  0  0  0  0  0  0  0  0
    0.0475   -1.2466   -0.7835 H   0  0  0  0  0  0  0  0  0  0  0  0
   -1.1396   -0.1081   -1.4321 H   0  0  0  0  0  0  0  0  0  0  0  0
    0.7516    0.7769   -0.8877 C   0  0  0  0  0  0  0  0  0  0  0  0
    0.9839    0.8423   -1.9510 H   0  0  0  0  0  0  0  0  0  0  0  0
    0.4221    1.7551   -0.5329 H   0  0  0  0  0  0  0  0  0  0  0  0
    2.0197    0.3669   -0.1302 C   0  0  0  0  0  0  0  0  0  0  0  0
    1.8012    0.2895    0.9353 H   0  0  0  0  0  0  0  0  0  0  0  0
    2.3664   -0.5993   -0.4980 H   0  0  0  0  0  0  0  0  0  0  0  0
    3.1129    1.4116   -0.3458 C   0  0  0  0  0  0  0  0  0  0  0  0
    3.3458    1.4774   -1.4074 H   0  0  0  0  0  0  0  0  0  0  0  0
    2.7617    2.3808    0.0046 H   0  0  0  0  0  0  0  0  0  0  0  0
    4.3356    1.0614    0.3862 N   0  0  0  0  0  0  0  0  0  0  0  0
    5.0389    1.7639    0.2103 H   0  0  0  0  0  0  0  0  0  0  0  0
    4.1323    1.0304    1.3751 H   0  0  0  0  0  0  0  0  0  0  0  0
   -1.2712    1.3099    1.1517 C   0  0  0  0  0  0  0  0  0  0  0  0
   -2.2039    1.9448    0.6639 O   0  0  0  0  0  0  0  0  0  0  0  0
   -0.4306    1.8354    2.0503 N   0  0  0  0  0  0  0  0  0  0  0  0
    0.3001    1.2459    2.4139 H   0  0  0  0  0  0  0  0  0  0  0  0
   -0.5192    3.2082    2.5456 C   0  0  0  0  0  0  0  0  0  0  0  0
   -1.5166    3.3903    2.9518 H   0  0  0  0  0  0  0  0  0  0  0  0
    0.2240    3.3791    3.3257 H   0  0  0  0  0  0  0  0  0  0  0  0
   -0.3477    3.9067    1.7239 H   0  0  0  0  0  0  0  0  0  0  0  0
  5  6  2  0  0  0  0
  5  7  1  0  0  0  0
  2  3  1  0  0  0  0
  2  4  1  0  0  0  0
  2  5  1  0  0  0  0
  1  2  1  0  0  0  0
 26 27  2  0  0  0  0
 26 28  1  0  0  0  0
 23 24  1  0  0  0  0
 23 25  1  0  0  0  0
 20 21  1  0  0  0  0
 20 22  1  0  0  0  0
 20 23  1  0  0  0  0
 17 18  1  0  0  0  0
 17 19  1  0  0  0  0
 17 20  1  0  0  0  0
 14 15  1  0  0  0  0
 14 16  1  0  0  0  0
 14 17  1  0  0  0  0
 11 12  1  0  0  0  0
 11 13  1  0  0  0  0
 11 14  1  0  0  0  0
  9 10  1  0  0  0  0
  9 11  1  0  0  0  0
  9 26  1  0  0  0  0
  7  8  1  0  0  0  0
  7  9  1  0  0  0  0
 30 31  1  0  0  0  0
 30 32  1  0  0  0  0
 30 33  1  0  0  0  0
 28 29  1  0  0  0  0
 28 30  1  0  0  0  0
M  END
$$$$
default_name
  -OEChem-02102213163D

 33 32  0     1  0  0  0  0  0999 V2000
   -3.8420   -3.6918    1.5562 H   0  0  0  0  0  0  0  0  0  0  0  0
   -3.8430   -2.7008    1.1032 C   0  0  0  0  0  0  0  0  0  0  0  0
   -4.5510   -2.0608    1.6242 H   0  0  0  0  0  0  0  0  0  0  0  0
   -4.1140   -2.7798    0.0522 H   0  0  0  0  0  0  0  0  0  0  0  0
   -2.4570   -2.1098    1.2172 C   0  0  0  0  0  0  0  0  0  0  0  0
   -1.5600   -2.7438    1.7572 O   0  0  0  0  0  0  0  0  0  0  0  0
   -2.2870   -0.8898    0.7102 N   0  0  0  0  0  0  0  0  0  0  0  0
   -3.0820   -0.4218    0.2992 H   0  0  0  0  0  0  0  0  0  0  0  0
   -1.0240   -0.1468    0.7262 C   0  0  1  0  0  0  0  0  0  0  0  0
   -0.3583   -0.6100    1.4558 H   0  0  0  0  0  0  0  0  0  0  0  0
   -0.3739   -0.2459   -0.6675 C   0  0  0  0  0  0  0  0  0  0  0  0
    0.0475   -1.2466   -0.7835 H   0  0  0  0  0  0  0  0  0  0  0  0
   -1.1396   -0.1081   -1.4321 H   0  0  0  0  0  0  0  0  0  0  0  0
    0.7516    0.7769   -0.8877 C   0  0  0  0  0  0  0  0  0  0  0  0
    0.8043    1.0413   -1.9441 H   0  0  0  0  0  0  0  0  0  0  0  0
    0.5397    1.6749   -0.3045 H   0  0  0  0  0  0  0  0  0  0  0  0
    2.1054    0.2026   -0.4549 C   0  0  0  0  0  0  0  0  0  0  0  0
    2.0660   -0.0743    0.5991 H   0  0  0  0  0  0  0  0  0  0  0  0
    2.3327   -0.6814   -1.0513 H   0  0  0  0  0  0  0  0  0  0  0  0
    3.2011    1.2467   -0.6608 C   0  0  0  0  0  0  0  0  0  0  0  0
    3.2548    1.5111   -1.7157 H   0  0  0  0  0  0  0  0  0  0  0  0
    2.9665    2.1371   -0.0798 H   0  0  0  0  0  0  0  0  0  0  0  0
    4.5091    0.7370   -0.2335 N   0  0  0  0  0  0  0  0  0  0  0  0
    5.2094    1.4457   -0.3963 H   0  0  0  0  0  0  0  0  0  0  0  0
    4.4742    0.5200    0.7524 H   0  0  0  0  0  0  0  0  0  0  0  0
   -1.2712    1.3099    1.1517 C   0  0  0  0  0  0  0  0  0  0  0  0
   -2.2039    1.9448    0.6639 O   0  0  0  0  0  0  0  0  0  0  0  0
   -0.4306    1.8354    2.0503 N   0  0  0  0  0  0  0  0  0  0  0  0
    0.3001    1.2459    2.4139 H   0  0  0  0  0  0  0  0  0  0  0  0
   -0.5192    3.2082    2.5456 C   0  0  0  0  0  0  0  0  0  0  0  0
   -1.5166    3.3903    2.9518 H   0  0  0  0  0  0  0  0  0  0  0  0
    0.2240    3.3791    3.3257 H   0  0  0  0  0  0  0  0  0  0  0  0
   -0.3477    3.9067    1.7239 H   0  0  0  0  0  0  0  0  0  0  0  0
  5  6  2  0  0  0  0
  5  7  1  0  0  0  0
  2  3  1  0  0  0  0
  2  4  1  0  0  0  0
  2  5  1  0  0  0  0
  1  2  1  0  0  0  0
 26 27  2  0  0  0  0
 26 28  1  0  0  0  0
 23 24  1  0  0  0  0
 23 25  1  0  0  0  0
 20 21  1  0  0  0  0
 20 22  1  0  0  0  0
 20 23  1  0  0  0  0
 17 18  1  0  0  0  0
 17 19  1  0  0  0  0
 17 20  1  0  0  0  0
 14 15  1  0  0  0  0
 14 16  1  0  0  0  0
 14 17  1  0  0  0  0
 11 12  1  0  0  0  0
 11 13  1  0  0  0  0
 11 14  1  0  0  0  0
  9 10  1  0  0  0  0
  9 11  1  0  0  0  0
  9 26  1  0  0  0  0
  7  8  1  0  0  0  0
  7  9  1  0  0  0  0
 30 31  1  0  0  0  0
 30 32  1  0  0  0  0
 30 33  1  0  0  0  0
 28 29  1  0  0  0  0
 28 30  1  0  0  0  0
M  END
$$$$
default_name
  -OEChem-02102213163D

 33 32  0     1  0  0  0  0  0999 V2000
   -3.8420   -3.6918    1.5562 H   0  0  0  0  0  0  0  0  0  0  0  0
   -3.8430   -2.7008    1.1032 C   0  0  0  0  0  0  0  0  0  0  0  0
   -4.5510   -2.0608    1.6242 H   0  0  0  0  0  0  0  0  0  0  0  0
   -4.1140   -2.7798    0.0522 H   0  0  0  0  0  0  0  0  0  0  0  0
   -2.4570   -2.1098    1.2172 C   0  0  0  0  0  0  0  0  0  0  0  0
   -1.5600   -2.7438    1.7572 O   0  0  0  0  0  0  0  0  0  0  0  0
   -2.2870   -0.8898    0.7102 N   0  0  0  0  0  0  0  0  0  0  0  0
   -3.0820   -0.4218    0.2992 H   0  0  0  0  0  0  0  0  0  0  0  0
   -1.0240   -0.1468    0.7262 C   0  0  1  0  0  0  0  0  0  0  0  0
   -0.3583   -0.6100    1.4558 H   0  0  0  0  0  0  0  0  0  0  0  0
   -0.3739   -0.2459   -0.6675 C   0  0  0  0  0  0  0  0  0  0  0  0
    0.0475   -1.2466   -0.7835 H   0  0  0  0  0  0  0  0  0  0  0  0
   -1.1396   -0.1081   -1.4321 H   0  0  0  0  0  0  0  0  0  0  0  0
    0.7516    0.7769   -0.8877 C   0  0  0  0  0  0  0  0  0  0  0  0
    0.6395    1.2390   -1.8689 H   0  0  0  0  0  0  0  0  0  0  0  0
    0.6897    1.5498   -0.1194 H   0  0  0  0  0  0  0  0  0  0  0  0
    2.1262    0.1023   -0.8144 C   0  0  0  0  0  0  0  0  0  0  0  0
    2.2503   -0.3717    0.1597 H   0  0  0  0  0  0  0  0  0  0  0  0
    2.2019   -0.6546   -1.5956 H   0  0  0  0  0  0  0  0  0  0  0  0
    3.2259    1.1439   -1.0115 C   0  0  0  0  0  0  0  0  0  0  0  0
    3.1150    1.6056   -1.9914 H   0  0  0  0  0  0  0  0  0  0  0  0
    3.1409    1.9102   -0.2428 H   0  0  0  0  0  0  0  0  0  0  0  0
    4.5580    0.5347   -0.9235 N   0  0  0  0  0  0  0  0  0  0  0  0
    5.2578    1.2469   -1.0719 H   0  0  0  0  0  0  0  0  0  0  0  0
    4.6783    0.1325   -0.0048 H   0  0  0  0  0  0  0  0  0  0  0  0
   -1.2712    1.3099    1.1517 C   0  0  0  0  0  0  0  0  0  0  0  0
   -2.2039    1.9448    0.6639 O   0  0  0  0  0  0  0  0  0  0  0  0
   -0.4306    1.8354    2.0503 N   0  0  0  0  0  0  0  0  0  0  0  0
    0.3001    1.2459    2.4139 H   0  0  0  0  0  0  0  0  0  0  0  0
   -0.5192    3.2082    2.5456 C   0  0  0  0  0  0  0  0  0  0  0  0
   -1.5166    3.3903    2.9518 H   0  0  0  0  0  0  0  0  0  0  0  0
    0.2240    3.3791    3.3257 H   0  0  0  0  0  0  0  0  0  0  0  0
   -0.3477    3.9067    1.7239 H   0  0  0  0  0  0  0  0  0  0  0  0
  5  6  2  0  0  0  0
  5  7  1  0  0  0  0
  2  3  1  0  0  0  0
  2  4  1  0  0  0  0
  2  5  1  0  0  0  0
  1  2  1  0  0  0  0
 26 27  2  0  0  0  0
 26 28  1  0  0  0  0
 23 24  1  0  0  0  0
 23 25  1  0  0  0  0
 20 21  1  0  0  0  0
 20 22  1  0  0  0  0
 20 23  1  0  0  0  0
 17 18  1  0  0  0  0
 17 19  1  0  0  0  0
 17 20  1  0  0  0  0
 14 15  1  0  0  0  0
 14 16  1  0  0  0  0
 14 17  1  0  0  0  0
 11 12  1  0  0  0  0
 11 13  1  0  0  0  0
 11 14  1  0  0  0  0
  9 10  1  0  0  0  0
  9 11  1  0  0  0  0
  9 26  1  0  0  0  0
  7  8  1  0  0  0  0
  7  9  1  0  0  0  0
 30 31  1  0  0  0  0
 30 32  1  0  0  0  0
 30 33  1  0  0  0  0
 28 29  1  0  0  0  0
 28 30  1  0  0  0  0
M  END
$$$$
default_name
  -OEChem-02102213163D

 33 32  0     1  0  0  0  0  0999 V2000
   -3.8420   -3.6918    1.5562 H   0  0  0  0  0  0  0  0  0  0  0  0
   -3.8430   -2.7008    1.1032 C   0  0  0  0  0  0  0  0  0  0  0  0
   -4.5510   -2.0608    1.6242 H   0  0  0  0  0  0  0  0  0  0  0  0
   -4.1140   -2.7798    0.0522 H   0  0  0  0  0  0  0  0  0  0  0  0
   -2.4570   -2.1098    1.2172 C   0  0  0  0  0  0  0  0  0  0  0  0
   -1.5600   -2.7438    1.7572 O   0  0  0  0  0  0  0  0  0  0  0  0
   -2.2870   -0.8898    0.7102 N   0  0  0  0  0  0  0  0  0  0  0  0
   -3.0820   -0.4218    0.2992 H   0  0  0  0  0  0  0  0  0  0  0  0
   -1.0240   -0.1468    0.7262 C   0  0  1  0  0  0  0  0  0  0  0  0
   -0.3583   -0.6100    1.4558 H   0  0  0  0  0  0  0  0  0  0  0  0
   -0.3739   -0.2459   -0.6675 C   0  0  0  0  0  0  0  0  0  0  0  0
    0.0475   -1.2466   -0.7835 H   0  0  0  0  0  0  0  0  0  0  0  0
   -1.1396   -0.1081   -1.4321 H   0  0  0  0  0  0  0  0  0  0  0  0
    0.7516    0.7769   -0.8877 C   0  0  0  0  0  0  0  0  0  0  0  0
    0.5006    1.4217   -1.7303 H   0  0  0  0  0  0  0  0  0  0  0  0
    0.8617    1.3882    0.0099 H   0  0  0  0  0  0  0  0  0  0  0  0
    2.0806    0.0729   -1.1842 C   0  0  0  0  0  0  0  0  0  0  0  0
    2.3416   -0.5826   -0.3527 H   0  0  0  0  0  0  0  0  0  0  0  0
    1.9827   -0.5206   -2.0937 H   0  0  0  0  0  0  0  0  0  0  0  0
    3.1856    1.1102   -1.3741 C   0  0  0  0  0  0  0  0  0  0  0  0
    2.9360    1.7543   -2.2157 H   0  0  0  0  0  0  0  0  0  0  0  0
    3.2728    1.7154   -0.4733 H   0  0  0  0  0  0  0  0  0  0  0  0
    4.4788    0.4683   -1.6367 N   0  0  0  0  0  0  0  0  0  0  0  0
    5.1808    1.1813   -1.7705 H   0  0  0  0  0  0  0  0  0  0  0  0
    4.7306   -0.1060   -0.8448 H   0  0  0  0  0  0  0  0  0  0  0  0
   -1.2712    1.3099    1.1517 C   0  0  0  0  0  0  0  0  0  0  0  0
   -2.2039    1.9448    0.6639 O   0  0  0  0  0  0  0  0  0  0  0  0
   -0.4306    1.8354    2.0503 N   0  0  0  0  0  0  0  0  0  0  0  0
    0.3001    1.2459    2.4139 H   0  0  0  0  0  0  0  0  0  0  0  0
   -0.5192    3.2082    2.5456 C   0  0  0  0  0  0  0  0  0  0  0  0
   -1.5166    3.3903    2.9518 H   0  0  0  0  0  0  0  0  0  0  0  0
    0.2240    3.3791    3.3257 H   0  0  0  0  0  0  0  0  0  0  0  0
   -0.3477    3.9067    1.7239 H   0  0  0  0  0  0  0  0  0  0  0  0
  5  6  2  0  0  0  0
  5  7  1  0  0  0  0
  2  3  1  0  0  0  0
  2  4  1  0  0  0  0
  2  5  1  0  0  0  0
  1  2  1  0  0  0  0
 26 27  2  0  0  0  0
 26 28  1  0  0  0  0
 23 24  1  0  0  0  0
 23 25  1  0  0  0  0
 20 21  1  0  0  0  0
 20 22  1  0  0  0  0
 20 23  1  0  0  0  0
 17 18  1  0  0  0  0
 17 19  1  0  0  0  0
 17 20  1  0  0  0  0
 14 15  1  0  0  0  0
 14 16  1  0  0  0  0
 14 17  1  0  0  0  0
 11 12  1  0  0  0  0
 11 13  1  0  0  0  0
 11 14  1  0  0  0  0
  9 10  1  0  0  0  0
  9 11  1  0  0  0  0
  9 26  1  0  0  0  0
  7  8  1  0  0  0  0
  7  9  1  0  0  0  0
 30 31  1  0  0  0  0
 30 32  1  0  0  0  0
 30 33  1  0  0  0  0
 28 29  1  0  0  0  0
 28 30  1  0  0  0  0
M  END
$$$$
default_name
  -OEChem-02102213163D

 33 32  0     1  0  0  0  0  0999 V2000
   -3.8420   -3.6918    1.5562 H   0  0  0  0  0  0  0  0  0  0  0  0
   -3.8430   -2.7008    1.1032 C   0  0  0  0  0  0  0  0  0  0  0  0
   -4.5510   -2.0608    1.6242 H   0  0  0  0  0  0  0  0  0  0  0  0
   -4.1140   -2.7798    0.0522 H   0  0  0  0  0  0  0  0  0  0  0  0
   -2.4570   -2.1098    1.2172 C   0  0  0  0  0  0  0  0  0  0  0  0
   -1.5600   -2.7438    1.7572 O   0  0  0  0  0  0  0  0  0  0  0  0
   -2.2870   -0.8898    0.7102 N   0  0  0  0  0  0  0  0  0  0  0  0
   -3.0820   -0.4218    0.2992 H   0  0  0  0  0  0  0  0  0  0  0  0
   -1.0240   -0.1468    0.7262 C   0  0  1  0  0  0  0  0  0  0  0  0
   -0.3583   -0.6100    1.4558 H   0  0  0  0  0  0  0  0  0  0  0  0
   -0.3739   -0.2459   -0.6675 C   0  0  0  0  0  0  0  0  0  0  0  0
    0.0475   -1.2466   -0.7835 H   0  0  0  0  0  0  0  0  0  0  0  0
   -1.1396   -0.1081   -1.4321 H   0  0  0  0  0  0  0  0  0  0  0  0
    0.7516    0.7769   -0.8877 C   0  0  0  0  0  0  0  0  0  0  0  0
    0.3970    1.5771   -1.5379 H   0  0  0  0  0  0  0  0  0  0  0  0
    1.0442    1.2013    0.0744 H   0  0  0  0  0  0  0  0  0  0  0  0
    1.9718    0.1162   -1.5391 C   0  0  0  0  0  0  0  0  0  0  0  0
    2.3338   -0.6925   -0.9035 H   0  0  0  0  0  0  0  0  0  0  0  0
    1.6901   -0.2886   -2.5116 H   0  0  0  0  0  0  0  0  0  0  0  0
    3.0830    1.1478   -1.7238 C   0  0  0  0  0  0  0  0  0  0  0  0
    2.7300    1.9471   -2.3734 H   0  0  0  0  0  0  0  0  0  0  0  0
    3.3533    1.5660   -0.7555 H   0  0  0  0  0  0  0  0  0  0  0  0
    4.2770    0.5422   -2.3246 N   0  0  0  0  0  0  0  0  0  0  0  0
    4.9836    1.2531   -2.4445 H   0  0  0  0  0  0  0  0  0  0  0  0
    4.6276   -0.1789   -1.7104 H   0  0  0  0  0  0  0  0  0  0  0  0
   -1.2712    1.3099    1.1517 C   0  0  0  0  0  0  0  0  0  0  0  0
   -2.2039    1.9448    0.6639 O   0  0  0  0  0  0  0  0  0  0  0  0
   -0.4306    1.8354    2.0503 N   0  0  0  0  0  0  0  0  0  0  0  0
    0.3001    1.2459    2.4139 H   0  0  0  0  0  0  0  0  0  0  0  0
   -0.5192    3.2082    2.5456 C   0  0  0  0  0  0  0  0  0  0  0  0
   -1.5166    3.3903    2.9518 H   0  0  0  0  0  0  0  0  0  0  0  0
    0.2240    3.3791    3.3257 H   0  0  0  0  0  0  0  0  0  0  0  0
   -0.3477    3.9067    1.7239 H   0  0  0  0  0  0  0  0  0  0  0  0
  5  6  2  0  0  0  0
  5  7  1  0  0  0  0
  2  3  1  0  0  0  0
  2  4  1  0  0  0  0
  2  5  1  0  0  0  0
  1  2  1  0  0  0  0
 26 27  2  0  0  0  0
 26 28  1  0  0  0  0
 23 24  1  0  0  0  0
 23 25  1  0  0  0  0
 20 21  1  0  0  0  0
 20 22  1  0  0  0  0
 20 23  1  0  0  0  0
 17 18  1  0  0  0  0
 17 19  1  0  0  0  0
 17 20  1  0  0  0  0
 14 15  1  0  0  0  0
 14 16  1  0  0  0  0
 14 17  1  0  0  0  0
 11 12  1  0  0  0  0
 11 13  1  0  0  0  0
 11 14  1  0  0  0  0
  9 10  1  0  0  0  0
  9 11  1  0  0  0  0
  9 26  1  0  0  0  0
  7  8  1  0  0  0  0
  7  9  1  0  0  0  0
 30 31  1  0  0  0  0
 30 32  1  0  0  0  0
 30 33  1  0  0  0  0
 28 29  1  0  0  0  0
 28 30  1  0  0  0  0
M  END
$$$$
default_name
  -OEChem-02102213163D

 33 32  0     1  0  0  0  0  0999 V2000
   -3.8420   -3.6918    1.5562 H   0  0  0  0  0  0  0  0  0  0  0  0
   -3.8430   -2.7008    1.1032 C   0  0  0  0  0  0  0  0  0  0  0  0
   -4.5510   -2.0608    1.6242 H   0  0  0  0  0  0  0  0  0  0  0  0
   -4.1140   -2.7798    0.0522 H   0  0  0  0  0  0  0  0  0  0  0  0
   -2.4570   -2.1098    1.2172 C   0  0  0  0  0  0  0  0  0  0  0  0
   -1.5600   -2.7438    1.7572 O   0  0  0  0  0  0  0  0  0  0  0  0
   -2.2870   -0.8898    0.7102 N   0  0  0  0  0  0  0  0  0  0  0  0
   -3.0820   -0.4218    0.2992 H   0  0  0  0  0  0  0  0  0  0  0  0
   -1.0240   -0.1468    0.7262 C   0  0  1  0  0  0  0  0  0  0  0  0
   -0.3583   -0.6100    1.4558 H   0  0  0  0  0  0  0  0  0  0  0  0
   -0.3739   -0.2459   -0.6675 C   0  0  0  0  0  0  0  0  0  0  0  0
    0.0475   -1.2466   -0.7835 H   0  0  0  0  0  0  0  0  0  0  0  0
   -1.1396   -0.1081   -1.4321 H   0  0  0  0  0  0  0  0  0  0  0  0
    0.7516    0.7769   -0.8877 C   0  0  0  0  0  0  0  0  0  0  0  0
    0.3359    1.6945   -1.3048 H   0  0  0  0  0  0  0  0  0  0  0  0
    1.2247    1.0017    0.0700 H   0  0  0  0  0  0  0  0  0  0  0  0
    1.8072    0.2294   -1.8551 C   0  0  0  0  0  0  0  0  0  0  0  0
    2.2272   -0.6939   -1.4549 H   0  0  0  0  0  0  0  0  0  0  0  0
    1.3441    0.0255   -2.8210 H   0  0  0  0  0  0  0  0  0  0  0  0
    2.9251    1.2542   -2.0367 C   0  0  0  0  0  0  0  0  0  0  0  0
    2.5110    2.1708   -2.4536 H   0  0  0  0  0  0  0  0  0  0  0  0
    3.3769    1.4723   -1.0704 H   0  0  0  0  0  0  0  0  0  0  0  0
    3.9663    0.7516   -2.9403 N   0  0  0  0  0  0  0  0  0  0  0  0
    4.6797    1.4576   -3.0480 H   0  0  0  0  0  0  0  0  0  0  0  0
    4.3763   -0.0815   -2.5425 H   0  0  0  0  0  0  0  0  0  0  0  0
   -1.2712    1.3099    1.1517 C   0  0  0  0  0  0  0  0  0  0  0  0
   -2.2039    1.9448    0.6639 O   0  0  0  0  0  0  0  0  0  0  0  0
   -0.4306    1.8354    2.0503 N   0  0  0  0  0  0  0  0  0  0  0  0
    0.3001    1.2459    2.4139 H   0  0  0  0  0  0  0  0  0  0  0  0
   -0.5192    3.2082    2.5456 C   0  0  0  0  0  0  0  0  0  0  0  0
   -1.5166    3.3903    2.9518 H   0  0  0  0  0  0  0  0  0  0  0  0
    0.2240    3.3791    3.3257 H   0  0  0  0  0  0  0  0  0  0  0  0
   -0.3477    3.9067    1.7239 H   0  0  0  0  0  0  0  0  0  0  0  0
  5  6  2  0  0  0  0
  5  7  1  0  0  0  0
  2  3  1  0  0  0  0
  2  4  1  0  0  0  0
  2  5  1  0  0  0  0
  1  2  1  0  0  0  0
 26 27  2  0  0  0  0
 26 28  1  0  0  0  0
 23 24  1  0  0  0  0
 23 25  1  0  0  0  0
 20 21  1  0  0  0  0
 20 22  1  0  0  0  0
 20 23  1  0  0  0  0
 17 18  1  0  0  0  0
 17 19  1  0  0  0  0
 17 20  1  0  0  0  0
 14 15  1  0  0  0  0
 14 16  1  0  0  0  0
 14 17  1  0  0  0  0
 11 12  1  0  0  0  0
 11 13  1  0  0  0  0
 11 14  1  0  0  0  0
  9 10  1  0  0  0  0
  9 11  1  0  0  0  0
  9 26  1  0  0  0  0
  7  8  1  0  0  0  0
  7  9  1  0  0  0  0
 30 31  1  0  0  0  0
 30 32  1  0  0  0  0
 30 33  1  0  0  0  0
 28 29  1  0  0  0  0
 28 30  1  0  0  0  0
M  END
$$$$
default_name
  -OEChem-02102213163D

 33 32  0     1  0  0  0  0  0999 V2000
   -3.8420   -3.6918    1.5562 H   0  0  0  0  0  0  0  0  0  0  0  0
   -3.8430   -2.7008    1.1032 C   0  0  0  0  0  0  0  0  0  0  0  0
   -4.5510   -2.0608    1.6242 H   0  0  0  0  0  0  0  0  0  0  0  0
   -4.1140   -2.7798    0.0522 H   0  0  0  0  0  0  0  0  0  0  0  0
   -2.4570   -2.1098    1.2172 C   0  0  0  0  0  0  0  0  0  0  0  0
   -1.5600   -2.7438    1.7572 O   0  0  0  0  0  0  0  0  0  0  0  0
   -2.2870   -0.8898    0.7102 N   0  0  0  0  0  0  0  0  0  0  0  0
   -3.0820   -0.4218    0.2992 H   0  0  0  0  0  0  0  0  0  0  0  0
   -1.0240   -0.1468    0.7262 C   0  0  1  0  0  0  0  0  0  0  0  0
   -0.3583   -0.6100    1.4558 H   0  0  0  0  0  0  0  0  0  0  0  0
   -0.3739   -0.2459   -0.6675 C   0  0  0  0  0  0  0  0  0  0  0  0
    0.0475   -1.2466   -0.7835 H   0  0  0  0  0  0  0  0  0  0  0  0
   -1.1396   -0.1081   -1.4321 H   0  0  0  0  0  0  0  0  0  0  0  0
    0.7516    0.7769   -0.8877 C   0  0  0  0  0  0  0  0  0  0  0  0
    0.3214    1.7660   -1.0468 H   0  0  0  0  0  0  0  0  0  0  0  0
    1.3909    0.8031   -0.0033 H   0  0  0  0  0  0  0  0  0  0  0  0
    1.5979    0.4047   -2.1104 C   0  0  0  0  0  0  0  0  0  0  0  0
    2.0292   -0.5869   -1.9695 H   0  0  0  0  0  0  0  0  0  0  0  0
    0.9683    0.4004   -3.0006 H   0  0  0  0  0  0  0  0  0  0  0  0
    2.7226    1.4222   -2.2916 C   0  0  0  0  0  0  0  0  0  0  0  0
    2.2939    2.4103   -2.4510 H   0  0  0  0  0  0  0  0  0  0  0  0
    3.3419    1.4406   -1.3963 H   0  0  0  0  0  0  0  0  0  0  0  0
    3.5680    1.0820   -3.4418 N   0  0  0  0  0  0  0  0  0  0  0  0
    4.2898    1.7808   -3.5398 H   0  0  0  0  0  0  0  0  0  0  0  0
    3.9938    0.1796   -3.2846 H   0  0  0  0  0  0  0  0  0  0  0  0
   -1.2712    1.3099    1.1517 C   0  0  0  0  0  0  0  0  0  0  0  0
   -2.2039    1.9448    0.6639 O   0  0  0  0  0  0  0  0  0  0  0  0
   -0.4306    1.8354    2.0503 N   0  0  0  0  0  0  0  0  0  0  0  0
    0.3001    1.2459    2.4139 H   0  0  0  0  0  0  0  0  0  0  0  0
   -0.5192    3.2082    2.5456 C   0  0  0  0  0  0  0  0  0  0  0  0
   -1.5166    3.3903    2.9518 H   0  0  0  0  0  0  0  0  0  0  0  0
    0.2240    3.3791    3.3257 H   0  0  0  0  0  0  0  0  0  0  0  0
   -0.3477    3.9067    1.7239 H   0  0  0  0  0  0  0  0  0  0  0  0
  5  6  2  0  0  0  0
  5  7  1  0  0  0  0
  2  3  1  0  0  0  0
  2  4  1  0  0  0  0
  2  5  1  0  0  0  0
  1  2  1  0  0  0  0
 26 27  2  0  0  0  0
 26 28  1  0  0  0  0
 23 24  1  0  0  0  0
 23 25  1  0  0  0  0
 20 21  1  0  0  0  0
 20 22  1  0  0  0  0
 20 23  1  0  0  0  0
 17 18  1  0  0  0  0
 17 19  1  0  0  0  0
 17 20  1  0  0  0  0
 14 15  1  0  0  0  0
 14 16  1  0  0  0  0
 14 17  1  0  0  0  0
 11 12  1  0  0  0  0
 11 13  1  0  0  0  0
 11 14  1  0  0  0  0
  9 10  1  0  0  0  0
  9 11  1  0  0  0  0
  9 26  1  0  0  0  0
  7  8  1  0  0  0  0
  7  9  1  0  0  0  0
 30 31  1  0  0  0  0
 30 32  1  0  0  0  0
 30 33  1  0  0  0  0
 28 29  1  0  0  0  0
 28 30  1  0  0  0  0
M  END
$$$$
